data_str_m2_o10_o16_pcu_sym.100
_audit_creation_date              2020-01-03
_audit_creation_method            'Materials Studio'
_symmetry_space_group_name_H-M    'P1'
_symmetry_Int_Tables_number       1
_symmetry_cell_setting            triclinic
loop_
_symmetry_equiv_pos_as_xyz
  x,y,z
_cell_length_a                    22.3033
_cell_length_b                    26.2091
_cell_length_c                    26.6214
_cell_angle_alpha                 94.4665
_cell_angle_beta                  77.1016
_cell_angle_gamma                 103.1707
loop_
_atom_site_label
_atom_site_type_symbol
_atom_site_fract_x
_atom_site_fract_y
_atom_site_fract_z
_atom_site_U_iso_or_equiv
_atom_site_adp_type
_atom_site_occupancy
C1     C     0.18199   0.26662   0.25145   0.00000  Uiso   1.00
C2     C     0.10931   0.15998   0.40407   0.00000  Uiso   1.00
C3     C     0.19248   0.32256   0.25077   0.00000  Uiso   1.00
C4     C     0.13240   0.16385   0.34749   0.00000  Uiso   1.00
C5     C     0.14395   0.01089   0.24935   0.00000  Uiso   1.00
C6     C     0.15184   0.06665   0.24838   0.00000  Uiso   1.00
C7     C     0.20072   0.17031   0.15273   0.00000  Uiso   1.00
C8     C     0.28316   0.23910   0.03017   0.00000  Uiso   1.00
C9     C     0.22144   0.18047   0.09752   0.00000  Uiso   1.00
C10    C     0.04983   0.12820   0.42380   0.00000  Uiso   1.00
C11    C     0.03196   0.11765   0.47612   0.00000  Uiso   1.00
C12    C     0.13467   0.16652   0.48975   0.00000  Uiso   1.00
C13    C     0.07363   0.13513   0.00950   0.00000  Uiso   1.00
C14    C     0.29483   0.13362   0.39765   0.00000  Uiso   1.00
C15    C     0.02148   0.07740   0.07471   0.00000  Uiso   1.00
C16    C     0.15638   0.29140   0.39812   0.00000  Uiso   1.00
C17    C     0.27119   0.02553   0.29334   0.00000  Uiso   1.00
C18    C     0.14792   0.18455   0.43862   0.00000  Uiso   1.00
C19    C     0.18256   0.18241   0.01915   0.00000  Uiso   1.00
C20    C     0.23648   0.22232   0.00085   0.00000  Uiso   1.00
C21    C     0.24187   0.24635   0.45461   0.00000  Uiso   1.00
C22    C     0.19728   0.22905   0.42439   0.00000  Uiso   1.00
C23    C     0.17942   0.15925   0.06578   0.00000  Uiso   1.00
C24    C     0.27480   0.21906   0.07889   0.00000  Uiso   1.00
Cu25   Cu    0.10710   0.16105   0.24436   0.00000  Uiso   1.00
Cu26   Cu    0.22623   0.17228   0.25565   0.00000  Uiso   1.00
F27    F     0.32613   0.12236   0.19968   0.00000  Uiso   1.00
F28    F     0.00167   0.27704   0.01303   0.00000  Uiso   1.00
H29    H     0.30803   0.23569   0.10302   0.00000  Uiso   1.00
H30    H     0.04448   0.04844   0.04915   0.00000  Uiso   1.00
H31    H     0.30395   0.07001   0.07402   0.00000  Uiso   1.00
H32    H     0.02493   0.07092   0.11451   0.00000  Uiso   1.00
H33    H     0.10836   0.26946   0.41615   0.00000  Uiso   1.00
H34    H     0.15138   0.30957   0.36354   0.00000  Uiso   1.00
H35    H     0.17371   0.32331   0.42483   0.00000  Uiso   1.00
H36    H     0.27930   0.32216   0.30611   0.00000  Uiso   1.00
H37    H     0.23571   0.04094   0.32318   0.00000  Uiso   1.00
H38    H     0.31614   0.05501   0.28970   0.00000  Uiso   1.00
H39    H     0.09679   0.32056   0.25057   0.00000  Uiso   1.00
H40    H     0.00276   0.20464   0.29111   0.00000  Uiso   1.00
H41    H     0.28028   0.27935   0.44193   0.00000  Uiso   1.00
H42    H     0.14408   0.12505   0.07928   0.00000  Uiso   1.00
H43    H     0.31824   0.09522   0.49068   0.00000  Uiso   1.00
H44    H     0.31431   0.17642   0.39249   0.00000  Uiso   1.00
H45    H     0.26191   0.12631   0.43568   0.00000  Uiso   1.00
H46    H     0.26721   0.11993   0.36757   0.00000  Uiso   1.00
N47    N     0.31574   0.18074   0.26416   0.00000  Uiso   1.00
N48    N     0.01759   0.15259   0.23584   0.00000  Uiso   1.00
O49    O     0.12797   0.23807   0.24633   0.00000  Uiso   1.00
O50    O     0.05106   0.12999   0.06232   0.00000  Uiso   1.00
O51    O     0.19987   0.25857   0.38281   0.00000  Uiso   1.00
O52    O     0.25401   0.01835   0.24492   0.00000  Uiso   1.00
O53    O     0.22858   0.24755   0.25587   0.00000  Uiso   1.00
O54    O     0.09181   0.15960   0.31839   0.00000  Uiso   1.00
O55    O     0.19242   0.16908   0.32793   0.00000  Uiso   1.00
O56    O     0.10476   0.08578   0.24413   0.00000  Uiso   1.00
O57    O     0.20536   0.09526   0.25367   0.00000  Uiso   1.00
O58    O     0.14092   0.16425   0.17207   0.00000  Uiso   1.00
O59    O     0.24152   0.17373   0.18161   0.00000  Uiso   1.00
O60    O     0.00968   0.10547   0.39156   0.00000  Uiso   1.00
C61    C     0.51532   0.26662   0.25145   0.00000  Uiso   1.00
C62    C     0.44264   0.15998   0.40407   0.00000  Uiso   1.00
C63    C     0.52581   0.32256   0.25077   0.00000  Uiso   1.00
C64    C     0.46573   0.16385   0.34749   0.00000  Uiso   1.00
C65    C     0.47728   0.01089   0.24935   0.00000  Uiso   1.00
C66    C     0.48517   0.06665   0.24838   0.00000  Uiso   1.00
C67    C     0.53406   0.17031   0.15273   0.00000  Uiso   1.00
C68    C     0.61649   0.23910   0.03017   0.00000  Uiso   1.00
C69    C     0.55478   0.18047   0.09752   0.00000  Uiso   1.00
C70    C     0.38316   0.12820   0.42380   0.00000  Uiso   1.00
C71    C     0.36529   0.11765   0.47612   0.00000  Uiso   1.00
C72    C     0.46801   0.16652   0.48975   0.00000  Uiso   1.00
C73    C     0.40696   0.13513   0.00950   0.00000  Uiso   1.00
C74    C     0.62816   0.13362   0.39765   0.00000  Uiso   1.00
C75    C     0.35481   0.07740   0.07471   0.00000  Uiso   1.00
C76    C     0.48972   0.29140   0.39812   0.00000  Uiso   1.00
C77    C     0.60453   0.02553   0.29334   0.00000  Uiso   1.00
C78    C     0.48125   0.18455   0.43862   0.00000  Uiso   1.00
C79    C     0.51589   0.18241   0.01915   0.00000  Uiso   1.00
C80    C     0.56981   0.22232   0.00085   0.00000  Uiso   1.00
C81    C     0.57520   0.24635   0.45461   0.00000  Uiso   1.00
C82    C     0.53061   0.22905   0.42439   0.00000  Uiso   1.00
C83    C     0.51275   0.15925   0.06578   0.00000  Uiso   1.00
C84    C     0.60813   0.21906   0.07889   0.00000  Uiso   1.00
Cu85   Cu    0.44043   0.16105   0.24436   0.00000  Uiso   1.00
Cu86   Cu    0.55957   0.17228   0.25565   0.00000  Uiso   1.00
F87    F     0.65947   0.12236   0.19968   0.00000  Uiso   1.00
F88    F     0.33500   0.27704   0.01303   0.00000  Uiso   1.00
H89    H     0.64136   0.23569   0.10302   0.00000  Uiso   1.00
H90    H     0.37782   0.04844   0.04915   0.00000  Uiso   1.00
H91    H     0.63728   0.07001   0.07402   0.00000  Uiso   1.00
H92    H     0.35826   0.07092   0.11451   0.00000  Uiso   1.00
H93    H     0.44169   0.26946   0.41615   0.00000  Uiso   1.00
H94    H     0.48472   0.30957   0.36354   0.00000  Uiso   1.00
H95    H     0.50705   0.32331   0.42483   0.00000  Uiso   1.00
H96    H     0.61263   0.32216   0.30611   0.00000  Uiso   1.00
H97    H     0.56905   0.04094   0.32318   0.00000  Uiso   1.00
H98    H     0.64948   0.05501   0.28970   0.00000  Uiso   1.00
H99    H     0.43012   0.32056   0.25057   0.00000  Uiso   1.00
H100   H     0.33609   0.20464   0.29111   0.00000  Uiso   1.00
H101   H     0.61361   0.27935   0.44193   0.00000  Uiso   1.00
H102   H     0.47741   0.12505   0.07928   0.00000  Uiso   1.00
H103   H     0.65157   0.09522   0.49068   0.00000  Uiso   1.00
H104   H     0.64764   0.17642   0.39249   0.00000  Uiso   1.00
H105   H     0.59524   0.12631   0.43568   0.00000  Uiso   1.00
H106   H     0.60054   0.11993   0.36757   0.00000  Uiso   1.00
N107   N     0.64908   0.18074   0.26416   0.00000  Uiso   1.00
N108   N     0.35092   0.15259   0.23584   0.00000  Uiso   1.00
O109   O     0.46131   0.23807   0.24633   0.00000  Uiso   1.00
O110   O     0.38439   0.12999   0.06232   0.00000  Uiso   1.00
O111   O     0.53321   0.25857   0.38281   0.00000  Uiso   1.00
O112   O     0.58734   0.01835   0.24492   0.00000  Uiso   1.00
O113   O     0.56191   0.24755   0.25587   0.00000  Uiso   1.00
O114   O     0.42515   0.15960   0.31839   0.00000  Uiso   1.00
O115   O     0.52575   0.16908   0.32793   0.00000  Uiso   1.00
O116   O     0.43809   0.08578   0.24413   0.00000  Uiso   1.00
O117   O     0.53869   0.09526   0.25367   0.00000  Uiso   1.00
O118   O     0.47425   0.16425   0.17207   0.00000  Uiso   1.00
O119   O     0.57485   0.17373   0.18161   0.00000  Uiso   1.00
O120   O     0.34301   0.10547   0.39156   0.00000  Uiso   1.00
C121   C     0.84865   0.26662   0.25145   0.00000  Uiso   1.00
C122   C     0.77597   0.15998   0.40407   0.00000  Uiso   1.00
C123   C     0.85915   0.32256   0.25077   0.00000  Uiso   1.00
C124   C     0.79906   0.16385   0.34749   0.00000  Uiso   1.00
C125   C     0.81062   0.01089   0.24935   0.00000  Uiso   1.00
C126   C     0.81851   0.06665   0.24838   0.00000  Uiso   1.00
C127   C     0.86739   0.17031   0.15273   0.00000  Uiso   1.00
C128   C     0.94983   0.23910   0.03017   0.00000  Uiso   1.00
C129   C     0.88811   0.18047   0.09752   0.00000  Uiso   1.00
C130   C     0.71649   0.12820   0.42380   0.00000  Uiso   1.00
C131   C     0.69862   0.11765   0.47612   0.00000  Uiso   1.00
C132   C     0.80134   0.16652   0.48975   0.00000  Uiso   1.00
C133   C     0.74030   0.13513   0.00950   0.00000  Uiso   1.00
C134   C     0.96149   0.13362   0.39765   0.00000  Uiso   1.00
C135   C     0.68815   0.07740   0.07471   0.00000  Uiso   1.00
C136   C     0.82305   0.29140   0.39812   0.00000  Uiso   1.00
C137   C     0.93786   0.02553   0.29334   0.00000  Uiso   1.00
C138   C     0.81459   0.18455   0.43862   0.00000  Uiso   1.00
C139   C     0.84922   0.18241   0.01915   0.00000  Uiso   1.00
C140   C     0.90315   0.22232   0.00085   0.00000  Uiso   1.00
C141   C     0.90853   0.24635   0.45461   0.00000  Uiso   1.00
C142   C     0.86395   0.22905   0.42439   0.00000  Uiso   1.00
C143   C     0.84608   0.15925   0.06578   0.00000  Uiso   1.00
C144   C     0.94146   0.21906   0.07889   0.00000  Uiso   1.00
Cu145  Cu    0.77377   0.16105   0.24436   0.00000  Uiso   1.00
Cu146  Cu    0.89290   0.17228   0.25565   0.00000  Uiso   1.00
F147   F     0.99280   0.12236   0.19968   0.00000  Uiso   1.00
F148   F     0.66833   0.27704   0.01303   0.00000  Uiso   1.00
H149   H     0.97469   0.23569   0.10302   0.00000  Uiso   1.00
H150   H     0.71115   0.04844   0.04915   0.00000  Uiso   1.00
H151   H     0.97062   0.07001   0.07402   0.00000  Uiso   1.00
H152   H     0.69159   0.07092   0.11451   0.00000  Uiso   1.00
H153   H     0.77502   0.26946   0.41615   0.00000  Uiso   1.00
H154   H     0.81805   0.30957   0.36354   0.00000  Uiso   1.00
H155   H     0.84038   0.32331   0.42483   0.00000  Uiso   1.00
H156   H     0.94596   0.32216   0.30611   0.00000  Uiso   1.00
H157   H     0.90238   0.04094   0.32318   0.00000  Uiso   1.00
H158   H     0.98281   0.05501   0.28970   0.00000  Uiso   1.00
H159   H     0.76345   0.32056   0.25057   0.00000  Uiso   1.00
H160   H     0.66942   0.20464   0.29111   0.00000  Uiso   1.00
H161   H     0.94695   0.27935   0.44193   0.00000  Uiso   1.00
H162   H     0.81075   0.12505   0.07928   0.00000  Uiso   1.00
H163   H     0.98490   0.09522   0.49068   0.00000  Uiso   1.00
H164   H     0.98098   0.17642   0.39249   0.00000  Uiso   1.00
H165   H     0.92857   0.12631   0.43568   0.00000  Uiso   1.00
H166   H     0.93388   0.11993   0.36757   0.00000  Uiso   1.00
N167   N     0.98241   0.18074   0.26416   0.00000  Uiso   1.00
N168   N     0.68426   0.15259   0.23584   0.00000  Uiso   1.00
O169   O     0.79464   0.23807   0.24633   0.00000  Uiso   1.00
O170   O     0.71773   0.12999   0.06232   0.00000  Uiso   1.00
O171   O     0.86654   0.25857   0.38281   0.00000  Uiso   1.00
O172   O     0.92068   0.01835   0.24492   0.00000  Uiso   1.00
O173   O     0.89524   0.24755   0.25587   0.00000  Uiso   1.00
O174   O     0.75848   0.15960   0.31839   0.00000  Uiso   1.00
O175   O     0.85908   0.16908   0.32793   0.00000  Uiso   1.00
O176   O     0.77142   0.08578   0.24413   0.00000  Uiso   1.00
O177   O     0.87203   0.09526   0.25367   0.00000  Uiso   1.00
O178   O     0.80758   0.16425   0.17207   0.00000  Uiso   1.00
O179   O     0.90819   0.17373   0.18161   0.00000  Uiso   1.00
O180   O     0.67634   0.10547   0.39156   0.00000  Uiso   1.00
C181   C     0.18199   0.59996   0.25145   0.00000  Uiso   1.00
C182   C     0.10931   0.49332   0.40407   0.00000  Uiso   1.00
C183   C     0.19248   0.65589   0.25077   0.00000  Uiso   1.00
C184   C     0.13240   0.49718   0.34749   0.00000  Uiso   1.00
C185   C     0.14395   0.34422   0.24935   0.00000  Uiso   1.00
C186   C     0.15184   0.39999   0.24838   0.00000  Uiso   1.00
C187   C     0.20072   0.50365   0.15273   0.00000  Uiso   1.00
C188   C     0.28316   0.57244   0.03017   0.00000  Uiso   1.00
C189   C     0.22144   0.51380   0.09752   0.00000  Uiso   1.00
C190   C     0.04983   0.46153   0.42380   0.00000  Uiso   1.00
C191   C     0.03196   0.45099   0.47612   0.00000  Uiso   1.00
C192   C     0.13467   0.49985   0.48975   0.00000  Uiso   1.00
C193   C     0.07363   0.46847   0.00950   0.00000  Uiso   1.00
C194   C     0.29483   0.46695   0.39765   0.00000  Uiso   1.00
C195   C     0.02148   0.41074   0.07471   0.00000  Uiso   1.00
C196   C     0.15638   0.62474   0.39812   0.00000  Uiso   1.00
C197   C     0.27119   0.35886   0.29334   0.00000  Uiso   1.00
C198   C     0.14792   0.51789   0.43862   0.00000  Uiso   1.00
C199   C     0.18256   0.51574   0.01915   0.00000  Uiso   1.00
C200   C     0.23648   0.55566   0.00085   0.00000  Uiso   1.00
C201   C     0.24187   0.57968   0.45461   0.00000  Uiso   1.00
C202   C     0.19728   0.56238   0.42439   0.00000  Uiso   1.00
C203   C     0.17942   0.49259   0.06578   0.00000  Uiso   1.00
C204   C     0.27480   0.55240   0.07889   0.00000  Uiso   1.00
Cu205  Cu    0.10710   0.49439   0.24436   0.00000  Uiso   1.00
Cu206  Cu    0.22623   0.50561   0.25565   0.00000  Uiso   1.00
F207   F     0.32613   0.45570   0.19968   0.00000  Uiso   1.00
F208   F     0.00167   0.61037   0.01303   0.00000  Uiso   1.00
H209   H     0.30803   0.56902   0.10302   0.00000  Uiso   1.00
H210   H     0.04448   0.38178   0.04915   0.00000  Uiso   1.00
H211   H     0.30395   0.40334   0.07402   0.00000  Uiso   1.00
H212   H     0.02493   0.40425   0.11451   0.00000  Uiso   1.00
H213   H     0.10836   0.60279   0.41615   0.00000  Uiso   1.00
H214   H     0.15138   0.64290   0.36354   0.00000  Uiso   1.00
H215   H     0.17371   0.65665   0.42483   0.00000  Uiso   1.00
H216   H     0.27930   0.65549   0.30611   0.00000  Uiso   1.00
H217   H     0.23571   0.37427   0.32318   0.00000  Uiso   1.00
H218   H     0.31614   0.38834   0.28970   0.00000  Uiso   1.00
H219   H     0.09679   0.65389   0.25057   0.00000  Uiso   1.00
H220   H     0.00276   0.53798   0.29111   0.00000  Uiso   1.00
H221   H     0.28028   0.61269   0.44193   0.00000  Uiso   1.00
H222   H     0.14408   0.45838   0.07928   0.00000  Uiso   1.00
H223   H     0.31824   0.42855   0.49068   0.00000  Uiso   1.00
H224   H     0.31431   0.50975   0.39249   0.00000  Uiso   1.00
H225   H     0.26191   0.45965   0.43568   0.00000  Uiso   1.00
H226   H     0.26721   0.45327   0.36757   0.00000  Uiso   1.00
N227   N     0.31574   0.51407   0.26416   0.00000  Uiso   1.00
N228   N     0.01759   0.48593   0.23584   0.00000  Uiso   1.00
O229   O     0.12797   0.57141   0.24633   0.00000  Uiso   1.00
O230   O     0.05106   0.46332   0.06232   0.00000  Uiso   1.00
O231   O     0.19987   0.59190   0.38281   0.00000  Uiso   1.00
O232   O     0.25401   0.35168   0.24492   0.00000  Uiso   1.00
O233   O     0.22858   0.58089   0.25587   0.00000  Uiso   1.00
O234   O     0.09181   0.49293   0.31839   0.00000  Uiso   1.00
O235   O     0.19242   0.50241   0.32793   0.00000  Uiso   1.00
O236   O     0.10476   0.41911   0.24413   0.00000  Uiso   1.00
O237   O     0.20536   0.42859   0.25367   0.00000  Uiso   1.00
O238   O     0.14092   0.49759   0.17207   0.00000  Uiso   1.00
O239   O     0.24152   0.50707   0.18161   0.00000  Uiso   1.00
O240   O     0.00968   0.43880   0.39156   0.00000  Uiso   1.00
C241   C     0.51532   0.59996   0.25145   0.00000  Uiso   1.00
C242   C     0.44264   0.49332   0.40407   0.00000  Uiso   1.00
C243   C     0.52581   0.65589   0.25077   0.00000  Uiso   1.00
C244   C     0.46573   0.49718   0.34749   0.00000  Uiso   1.00
C245   C     0.47728   0.34422   0.24935   0.00000  Uiso   1.00
C246   C     0.48517   0.39999   0.24838   0.00000  Uiso   1.00
C247   C     0.53406   0.50365   0.15273   0.00000  Uiso   1.00
C248   C     0.61649   0.57244   0.03017   0.00000  Uiso   1.00
C249   C     0.55478   0.51380   0.09752   0.00000  Uiso   1.00
C250   C     0.38316   0.46153   0.42380   0.00000  Uiso   1.00
C251   C     0.36529   0.45099   0.47612   0.00000  Uiso   1.00
C252   C     0.46801   0.49985   0.48975   0.00000  Uiso   1.00
C253   C     0.40696   0.46847   0.00950   0.00000  Uiso   1.00
C254   C     0.62816   0.46695   0.39765   0.00000  Uiso   1.00
C255   C     0.35481   0.41074   0.07471   0.00000  Uiso   1.00
C256   C     0.48972   0.62474   0.39812   0.00000  Uiso   1.00
C257   C     0.60453   0.35886   0.29334   0.00000  Uiso   1.00
C258   C     0.48125   0.51789   0.43862   0.00000  Uiso   1.00
C259   C     0.51589   0.51574   0.01915   0.00000  Uiso   1.00
C260   C     0.56981   0.55566   0.00085   0.00000  Uiso   1.00
C261   C     0.57520   0.57968   0.45461   0.00000  Uiso   1.00
C262   C     0.53061   0.56238   0.42439   0.00000  Uiso   1.00
C263   C     0.51275   0.49259   0.06578   0.00000  Uiso   1.00
C264   C     0.60813   0.55240   0.07889   0.00000  Uiso   1.00
Cu265  Cu    0.44043   0.49439   0.24436   0.00000  Uiso   1.00
Cu266  Cu    0.55957   0.50561   0.25565   0.00000  Uiso   1.00
F267   F     0.65947   0.45570   0.19968   0.00000  Uiso   1.00
F268   F     0.33500   0.61037   0.01303   0.00000  Uiso   1.00
H269   H     0.64136   0.56902   0.10302   0.00000  Uiso   1.00
H270   H     0.37782   0.38178   0.04915   0.00000  Uiso   1.00
H271   H     0.63728   0.40334   0.07402   0.00000  Uiso   1.00
H272   H     0.35826   0.40425   0.11451   0.00000  Uiso   1.00
H273   H     0.44169   0.60279   0.41615   0.00000  Uiso   1.00
H274   H     0.48472   0.64290   0.36354   0.00000  Uiso   1.00
H275   H     0.50705   0.65665   0.42483   0.00000  Uiso   1.00
H276   H     0.61263   0.65549   0.30611   0.00000  Uiso   1.00
H277   H     0.56905   0.37427   0.32318   0.00000  Uiso   1.00
H278   H     0.64948   0.38834   0.28970   0.00000  Uiso   1.00
H279   H     0.43012   0.65389   0.25057   0.00000  Uiso   1.00
H280   H     0.33609   0.53798   0.29111   0.00000  Uiso   1.00
H281   H     0.61361   0.61269   0.44193   0.00000  Uiso   1.00
H282   H     0.47741   0.45838   0.07928   0.00000  Uiso   1.00
H283   H     0.65157   0.42855   0.49068   0.00000  Uiso   1.00
H284   H     0.64764   0.50975   0.39249   0.00000  Uiso   1.00
H285   H     0.59524   0.45965   0.43568   0.00000  Uiso   1.00
H286   H     0.60054   0.45327   0.36757   0.00000  Uiso   1.00
N287   N     0.64908   0.51407   0.26416   0.00000  Uiso   1.00
N288   N     0.35092   0.48593   0.23584   0.00000  Uiso   1.00
O289   O     0.46131   0.57141   0.24633   0.00000  Uiso   1.00
O290   O     0.38439   0.46332   0.06232   0.00000  Uiso   1.00
O291   O     0.53321   0.59190   0.38281   0.00000  Uiso   1.00
O292   O     0.58734   0.35168   0.24492   0.00000  Uiso   1.00
O293   O     0.56191   0.58089   0.25587   0.00000  Uiso   1.00
O294   O     0.42515   0.49293   0.31839   0.00000  Uiso   1.00
O295   O     0.52575   0.50241   0.32793   0.00000  Uiso   1.00
O296   O     0.43809   0.41911   0.24413   0.00000  Uiso   1.00
O297   O     0.53869   0.42859   0.25367   0.00000  Uiso   1.00
O298   O     0.47425   0.49759   0.17207   0.00000  Uiso   1.00
O299   O     0.57485   0.50707   0.18161   0.00000  Uiso   1.00
O300   O     0.34301   0.43880   0.39156   0.00000  Uiso   1.00
C301   C     0.84865   0.59996   0.25145   0.00000  Uiso   1.00
C302   C     0.77597   0.49332   0.40407   0.00000  Uiso   1.00
C303   C     0.85915   0.65589   0.25077   0.00000  Uiso   1.00
C304   C     0.79906   0.49718   0.34749   0.00000  Uiso   1.00
C305   C     0.81062   0.34422   0.24935   0.00000  Uiso   1.00
C306   C     0.81851   0.39999   0.24838   0.00000  Uiso   1.00
C307   C     0.86739   0.50365   0.15273   0.00000  Uiso   1.00
C308   C     0.94983   0.57244   0.03017   0.00000  Uiso   1.00
C309   C     0.88811   0.51380   0.09752   0.00000  Uiso   1.00
C310   C     0.71649   0.46153   0.42380   0.00000  Uiso   1.00
C311   C     0.69862   0.45099   0.47612   0.00000  Uiso   1.00
C312   C     0.80134   0.49985   0.48975   0.00000  Uiso   1.00
C313   C     0.74030   0.46847   0.00950   0.00000  Uiso   1.00
C314   C     0.96149   0.46695   0.39765   0.00000  Uiso   1.00
C315   C     0.68815   0.41074   0.07471   0.00000  Uiso   1.00
C316   C     0.82305   0.62474   0.39812   0.00000  Uiso   1.00
C317   C     0.93786   0.35886   0.29334   0.00000  Uiso   1.00
C318   C     0.81459   0.51789   0.43862   0.00000  Uiso   1.00
C319   C     0.84922   0.51574   0.01915   0.00000  Uiso   1.00
C320   C     0.90315   0.55566   0.00085   0.00000  Uiso   1.00
C321   C     0.90853   0.57968   0.45461   0.00000  Uiso   1.00
C322   C     0.86395   0.56238   0.42439   0.00000  Uiso   1.00
C323   C     0.84608   0.49259   0.06578   0.00000  Uiso   1.00
C324   C     0.94146   0.55240   0.07889   0.00000  Uiso   1.00
Cu325  Cu    0.77377   0.49439   0.24436   0.00000  Uiso   1.00
Cu326  Cu    0.89290   0.50561   0.25565   0.00000  Uiso   1.00
F327   F     0.99280   0.45570   0.19968   0.00000  Uiso   1.00
F328   F     0.66833   0.61037   0.01303   0.00000  Uiso   1.00
H329   H     0.97469   0.56902   0.10302   0.00000  Uiso   1.00
H330   H     0.71115   0.38178   0.04915   0.00000  Uiso   1.00
H331   H     0.97062   0.40334   0.07402   0.00000  Uiso   1.00
H332   H     0.69159   0.40425   0.11451   0.00000  Uiso   1.00
H333   H     0.77502   0.60279   0.41615   0.00000  Uiso   1.00
H334   H     0.81805   0.64290   0.36354   0.00000  Uiso   1.00
H335   H     0.84038   0.65665   0.42483   0.00000  Uiso   1.00
H336   H     0.94596   0.65549   0.30611   0.00000  Uiso   1.00
H337   H     0.90238   0.37427   0.32318   0.00000  Uiso   1.00
H338   H     0.98281   0.38834   0.28970   0.00000  Uiso   1.00
H339   H     0.76345   0.65389   0.25057   0.00000  Uiso   1.00
H340   H     0.66942   0.53798   0.29111   0.00000  Uiso   1.00
H341   H     0.94695   0.61269   0.44193   0.00000  Uiso   1.00
H342   H     0.81075   0.45838   0.07928   0.00000  Uiso   1.00
H343   H     0.98490   0.42855   0.49068   0.00000  Uiso   1.00
H344   H     0.98098   0.50975   0.39249   0.00000  Uiso   1.00
H345   H     0.92857   0.45965   0.43568   0.00000  Uiso   1.00
H346   H     0.93388   0.45327   0.36757   0.00000  Uiso   1.00
N347   N     0.98241   0.51407   0.26416   0.00000  Uiso   1.00
N348   N     0.68426   0.48593   0.23584   0.00000  Uiso   1.00
O349   O     0.79464   0.57141   0.24633   0.00000  Uiso   1.00
O350   O     0.71773   0.46332   0.06232   0.00000  Uiso   1.00
O351   O     0.86654   0.59190   0.38281   0.00000  Uiso   1.00
O352   O     0.92068   0.35168   0.24492   0.00000  Uiso   1.00
O353   O     0.89524   0.58089   0.25587   0.00000  Uiso   1.00
O354   O     0.75848   0.49293   0.31839   0.00000  Uiso   1.00
O355   O     0.85908   0.50241   0.32793   0.00000  Uiso   1.00
O356   O     0.77142   0.41911   0.24413   0.00000  Uiso   1.00
O357   O     0.87203   0.42859   0.25367   0.00000  Uiso   1.00
O358   O     0.80758   0.49759   0.17207   0.00000  Uiso   1.00
O359   O     0.90819   0.50707   0.18161   0.00000  Uiso   1.00
O360   O     0.67634   0.43880   0.39156   0.00000  Uiso   1.00
C361   C     0.18199   0.93329   0.25145   0.00000  Uiso   1.00
C362   C     0.10931   0.82665   0.40407   0.00000  Uiso   1.00
C363   C     0.19248   0.98923   0.25077   0.00000  Uiso   1.00
C364   C     0.13240   0.83052   0.34749   0.00000  Uiso   1.00
C365   C     0.14395   0.67756   0.24935   0.00000  Uiso   1.00
C366   C     0.15184   0.73332   0.24838   0.00000  Uiso   1.00
C367   C     0.20072   0.83698   0.15273   0.00000  Uiso   1.00
C368   C     0.28316   0.90577   0.03017   0.00000  Uiso   1.00
C369   C     0.22144   0.84714   0.09752   0.00000  Uiso   1.00
C370   C     0.04983   0.79487   0.42380   0.00000  Uiso   1.00
C371   C     0.03196   0.78432   0.47612   0.00000  Uiso   1.00
C372   C     0.13467   0.83318   0.48975   0.00000  Uiso   1.00
C373   C     0.07363   0.80180   0.00950   0.00000  Uiso   1.00
C374   C     0.29483   0.80029   0.39765   0.00000  Uiso   1.00
C375   C     0.02148   0.74407   0.07471   0.00000  Uiso   1.00
C376   C     0.15638   0.95807   0.39812   0.00000  Uiso   1.00
C377   C     0.27119   0.69219   0.29334   0.00000  Uiso   1.00
C378   C     0.14792   0.85122   0.43862   0.00000  Uiso   1.00
C379   C     0.18256   0.84908   0.01915   0.00000  Uiso   1.00
C380   C     0.23648   0.88899   0.00085   0.00000  Uiso   1.00
C381   C     0.24187   0.91301   0.45461   0.00000  Uiso   1.00
C382   C     0.19728   0.89571   0.42439   0.00000  Uiso   1.00
C383   C     0.17942   0.82592   0.06578   0.00000  Uiso   1.00
C384   C     0.27480   0.88573   0.07889   0.00000  Uiso   1.00
Cu385  Cu    0.10710   0.82772   0.24436   0.00000  Uiso   1.00
Cu386  Cu    0.22623   0.83895   0.25565   0.00000  Uiso   1.00
F387   F     0.32613   0.78903   0.19968   0.00000  Uiso   1.00
F388   F     0.00167   0.94370   0.01303   0.00000  Uiso   1.00
H389   H     0.30803   0.90236   0.10302   0.00000  Uiso   1.00
H390   H     0.04448   0.71511   0.04915   0.00000  Uiso   1.00
H391   H     0.30395   0.73668   0.07402   0.00000  Uiso   1.00
H392   H     0.02493   0.73759   0.11451   0.00000  Uiso   1.00
H393   H     0.10836   0.93613   0.41615   0.00000  Uiso   1.00
H394   H     0.15138   0.97624   0.36354   0.00000  Uiso   1.00
H395   H     0.17371   0.98998   0.42483   0.00000  Uiso   1.00
H396   H     0.27930   0.98882   0.30611   0.00000  Uiso   1.00
H397   H     0.23571   0.70761   0.32318   0.00000  Uiso   1.00
H398   H     0.31614   0.72167   0.28970   0.00000  Uiso   1.00
H399   H     0.09679   0.98723   0.25057   0.00000  Uiso   1.00
H400   H     0.00276   0.87131   0.29111   0.00000  Uiso   1.00
H401   H     0.28028   0.94602   0.44193   0.00000  Uiso   1.00
H402   H     0.14408   0.79171   0.07928   0.00000  Uiso   1.00
H403   H     0.31824   0.76189   0.49068   0.00000  Uiso   1.00
H404   H     0.31431   0.84308   0.39249   0.00000  Uiso   1.00
H405   H     0.26191   0.79298   0.43568   0.00000  Uiso   1.00
H406   H     0.26721   0.78660   0.36757   0.00000  Uiso   1.00
N407   N     0.31574   0.84741   0.26416   0.00000  Uiso   1.00
N408   N     0.01759   0.81926   0.23584   0.00000  Uiso   1.00
O409   O     0.12797   0.90474   0.24633   0.00000  Uiso   1.00
O410   O     0.05106   0.79665   0.06232   0.00000  Uiso   1.00
O411   O     0.19987   0.92523   0.38281   0.00000  Uiso   1.00
O412   O     0.25401   0.68502   0.24492   0.00000  Uiso   1.00
O413   O     0.22858   0.91422   0.25587   0.00000  Uiso   1.00
O414   O     0.09181   0.82627   0.31839   0.00000  Uiso   1.00
O415   O     0.19242   0.83575   0.32793   0.00000  Uiso   1.00
O416   O     0.10476   0.75245   0.24413   0.00000  Uiso   1.00
O417   O     0.20536   0.76193   0.25367   0.00000  Uiso   1.00
O418   O     0.14092   0.83092   0.17207   0.00000  Uiso   1.00
O419   O     0.24152   0.84040   0.18161   0.00000  Uiso   1.00
O420   O     0.00968   0.77214   0.39156   0.00000  Uiso   1.00
C421   C     0.51532   0.93329   0.25145   0.00000  Uiso   1.00
C422   C     0.44264   0.82665   0.40407   0.00000  Uiso   1.00
C423   C     0.52581   0.98923   0.25077   0.00000  Uiso   1.00
C424   C     0.46573   0.83052   0.34749   0.00000  Uiso   1.00
C425   C     0.47728   0.67756   0.24935   0.00000  Uiso   1.00
C426   C     0.48517   0.73332   0.24838   0.00000  Uiso   1.00
C427   C     0.53406   0.83698   0.15273   0.00000  Uiso   1.00
C428   C     0.61649   0.90577   0.03017   0.00000  Uiso   1.00
C429   C     0.55478   0.84714   0.09752   0.00000  Uiso   1.00
C430   C     0.38316   0.79487   0.42380   0.00000  Uiso   1.00
C431   C     0.36529   0.78432   0.47612   0.00000  Uiso   1.00
C432   C     0.46801   0.83318   0.48975   0.00000  Uiso   1.00
C433   C     0.40696   0.80180   0.00950   0.00000  Uiso   1.00
C434   C     0.62816   0.80029   0.39765   0.00000  Uiso   1.00
C435   C     0.35481   0.74407   0.07471   0.00000  Uiso   1.00
C436   C     0.48972   0.95807   0.39812   0.00000  Uiso   1.00
C437   C     0.60453   0.69219   0.29334   0.00000  Uiso   1.00
C438   C     0.48125   0.85122   0.43862   0.00000  Uiso   1.00
C439   C     0.51589   0.84908   0.01915   0.00000  Uiso   1.00
C440   C     0.56981   0.88899   0.00085   0.00000  Uiso   1.00
C441   C     0.57520   0.91301   0.45461   0.00000  Uiso   1.00
C442   C     0.53061   0.89571   0.42439   0.00000  Uiso   1.00
C443   C     0.51275   0.82592   0.06578   0.00000  Uiso   1.00
C444   C     0.60813   0.88573   0.07889   0.00000  Uiso   1.00
Cu445  Cu    0.44043   0.82772   0.24436   0.00000  Uiso   1.00
Cu446  Cu    0.55957   0.83895   0.25565   0.00000  Uiso   1.00
F447   F     0.65947   0.78903   0.19968   0.00000  Uiso   1.00
F448   F     0.33500   0.94370   0.01303   0.00000  Uiso   1.00
H449   H     0.64136   0.90236   0.10302   0.00000  Uiso   1.00
H450   H     0.37782   0.71511   0.04915   0.00000  Uiso   1.00
H451   H     0.63728   0.73668   0.07402   0.00000  Uiso   1.00
H452   H     0.35826   0.73759   0.11451   0.00000  Uiso   1.00
H453   H     0.44169   0.93613   0.41615   0.00000  Uiso   1.00
H454   H     0.48472   0.97624   0.36354   0.00000  Uiso   1.00
H455   H     0.50705   0.98998   0.42483   0.00000  Uiso   1.00
H456   H     0.61263   0.98882   0.30611   0.00000  Uiso   1.00
H457   H     0.56905   0.70761   0.32318   0.00000  Uiso   1.00
H458   H     0.64948   0.72167   0.28970   0.00000  Uiso   1.00
H459   H     0.43012   0.98723   0.25057   0.00000  Uiso   1.00
H460   H     0.33609   0.87131   0.29111   0.00000  Uiso   1.00
H461   H     0.61361   0.94602   0.44193   0.00000  Uiso   1.00
H462   H     0.47741   0.79171   0.07928   0.00000  Uiso   1.00
H463   H     0.65157   0.76189   0.49068   0.00000  Uiso   1.00
H464   H     0.64764   0.84308   0.39249   0.00000  Uiso   1.00
H465   H     0.59524   0.79298   0.43568   0.00000  Uiso   1.00
H466   H     0.60054   0.78660   0.36757   0.00000  Uiso   1.00
N467   N     0.64908   0.84741   0.26416   0.00000  Uiso   1.00
N468   N     0.35092   0.81926   0.23584   0.00000  Uiso   1.00
O469   O     0.46131   0.90474   0.24633   0.00000  Uiso   1.00
O470   O     0.38439   0.79665   0.06232   0.00000  Uiso   1.00
O471   O     0.53321   0.92523   0.38281   0.00000  Uiso   1.00
O472   O     0.58734   0.68502   0.24492   0.00000  Uiso   1.00
O473   O     0.56191   0.91422   0.25587   0.00000  Uiso   1.00
O474   O     0.42515   0.82627   0.31839   0.00000  Uiso   1.00
O475   O     0.52575   0.83575   0.32793   0.00000  Uiso   1.00
O476   O     0.43809   0.75245   0.24413   0.00000  Uiso   1.00
O477   O     0.53869   0.76193   0.25367   0.00000  Uiso   1.00
O478   O     0.47425   0.83092   0.17207   0.00000  Uiso   1.00
O479   O     0.57485   0.84040   0.18161   0.00000  Uiso   1.00
O480   O     0.34301   0.77214   0.39156   0.00000  Uiso   1.00
C481   C     0.84865   0.93329   0.25145   0.00000  Uiso   1.00
C482   C     0.77597   0.82665   0.40407   0.00000  Uiso   1.00
C483   C     0.85915   0.98923   0.25077   0.00000  Uiso   1.00
C484   C     0.79906   0.83052   0.34749   0.00000  Uiso   1.00
C485   C     0.81062   0.67756   0.24935   0.00000  Uiso   1.00
C486   C     0.81851   0.73332   0.24838   0.00000  Uiso   1.00
C487   C     0.86739   0.83698   0.15273   0.00000  Uiso   1.00
C488   C     0.94983   0.90577   0.03017   0.00000  Uiso   1.00
C489   C     0.88811   0.84714   0.09752   0.00000  Uiso   1.00
C490   C     0.71649   0.79487   0.42380   0.00000  Uiso   1.00
C491   C     0.69862   0.78432   0.47612   0.00000  Uiso   1.00
C492   C     0.80134   0.83318   0.48975   0.00000  Uiso   1.00
C493   C     0.74030   0.80180   0.00950   0.00000  Uiso   1.00
C494   C     0.96149   0.80029   0.39765   0.00000  Uiso   1.00
C495   C     0.68815   0.74407   0.07471   0.00000  Uiso   1.00
C496   C     0.82305   0.95807   0.39812   0.00000  Uiso   1.00
C497   C     0.93786   0.69219   0.29334   0.00000  Uiso   1.00
C498   C     0.81459   0.85122   0.43862   0.00000  Uiso   1.00
C499   C     0.84922   0.84908   0.01915   0.00000  Uiso   1.00
C500   C     0.90315   0.88899   0.00085   0.00000  Uiso   1.00
C501   C     0.90853   0.91301   0.45461   0.00000  Uiso   1.00
C502   C     0.86395   0.89571   0.42439   0.00000  Uiso   1.00
C503   C     0.84608   0.82592   0.06578   0.00000  Uiso   1.00
C504   C     0.94146   0.88573   0.07889   0.00000  Uiso   1.00
Cu505  Cu    0.77377   0.82772   0.24436   0.00000  Uiso   1.00
Cu506  Cu    0.89290   0.83895   0.25565   0.00000  Uiso   1.00
F507   F     0.99280   0.78903   0.19968   0.00000  Uiso   1.00
F508   F     0.66833   0.94370   0.01303   0.00000  Uiso   1.00
H509   H     0.97469   0.90236   0.10302   0.00000  Uiso   1.00
H510   H     0.71115   0.71511   0.04915   0.00000  Uiso   1.00
H511   H     0.97062   0.73668   0.07402   0.00000  Uiso   1.00
H512   H     0.69159   0.73759   0.11451   0.00000  Uiso   1.00
H513   H     0.77502   0.93613   0.41615   0.00000  Uiso   1.00
H514   H     0.81805   0.97624   0.36354   0.00000  Uiso   1.00
H515   H     0.84038   0.98998   0.42483   0.00000  Uiso   1.00
H516   H     0.94596   0.98882   0.30611   0.00000  Uiso   1.00
H517   H     0.90238   0.70761   0.32318   0.00000  Uiso   1.00
H518   H     0.98281   0.72167   0.28970   0.00000  Uiso   1.00
H519   H     0.76345   0.98723   0.25057   0.00000  Uiso   1.00
H520   H     0.66942   0.87131   0.29111   0.00000  Uiso   1.00
H521   H     0.94695   0.94602   0.44193   0.00000  Uiso   1.00
H522   H     0.81075   0.79171   0.07928   0.00000  Uiso   1.00
H523   H     0.98490   0.76189   0.49068   0.00000  Uiso   1.00
H524   H     0.98098   0.84308   0.39249   0.00000  Uiso   1.00
H525   H     0.92857   0.79298   0.43568   0.00000  Uiso   1.00
H526   H     0.93388   0.78660   0.36757   0.00000  Uiso   1.00
N527   N     0.98241   0.84741   0.26416   0.00000  Uiso   1.00
N528   N     0.68426   0.81926   0.23584   0.00000  Uiso   1.00
O529   O     0.79464   0.90474   0.24633   0.00000  Uiso   1.00
O530   O     0.71773   0.79665   0.06232   0.00000  Uiso   1.00
O531   O     0.86654   0.92523   0.38281   0.00000  Uiso   1.00
O532   O     0.92068   0.68502   0.24492   0.00000  Uiso   1.00
O533   O     0.89524   0.91422   0.25587   0.00000  Uiso   1.00
O534   O     0.75848   0.82627   0.31839   0.00000  Uiso   1.00
O535   O     0.85908   0.83575   0.32793   0.00000  Uiso   1.00
O536   O     0.77142   0.75245   0.24413   0.00000  Uiso   1.00
O537   O     0.87203   0.76193   0.25367   0.00000  Uiso   1.00
O538   O     0.80758   0.83092   0.17207   0.00000  Uiso   1.00
O539   O     0.90819   0.84040   0.18161   0.00000  Uiso   1.00
O540   O     0.67634   0.77214   0.39156   0.00000  Uiso   1.00
C541   C     0.18199   0.26662   0.75145   0.00000  Uiso   1.00
C542   C     0.10931   0.15998   0.90407   0.00000  Uiso   1.00
C543   C     0.19248   0.32256   0.75077   0.00000  Uiso   1.00
C544   C     0.13240   0.16385   0.84749   0.00000  Uiso   1.00
C545   C     0.14395   0.01089   0.74935   0.00000  Uiso   1.00
C546   C     0.15184   0.06665   0.74838   0.00000  Uiso   1.00
C547   C     0.20072   0.17031   0.65273   0.00000  Uiso   1.00
C548   C     0.28316   0.23910   0.53017   0.00000  Uiso   1.00
C549   C     0.22144   0.18047   0.59752   0.00000  Uiso   1.00
C550   C     0.04983   0.12820   0.92380   0.00000  Uiso   1.00
C551   C     0.03196   0.11765   0.97612   0.00000  Uiso   1.00
C552   C     0.13467   0.16652   0.98975   0.00000  Uiso   1.00
C553   C     0.07363   0.13513   0.50950   0.00000  Uiso   1.00
C554   C     0.29483   0.13362   0.89765   0.00000  Uiso   1.00
C555   C     0.02148   0.07740   0.57471   0.00000  Uiso   1.00
C556   C     0.15638   0.29140   0.89812   0.00000  Uiso   1.00
C557   C     0.27119   0.02553   0.79334   0.00000  Uiso   1.00
C558   C     0.14792   0.18455   0.93862   0.00000  Uiso   1.00
C559   C     0.18256   0.18241   0.51915   0.00000  Uiso   1.00
C560   C     0.23648   0.22232   0.50085   0.00000  Uiso   1.00
C561   C     0.24187   0.24635   0.95461   0.00000  Uiso   1.00
C562   C     0.19728   0.22905   0.92439   0.00000  Uiso   1.00
C563   C     0.17942   0.15925   0.56578   0.00000  Uiso   1.00
C564   C     0.27480   0.21906   0.57889   0.00000  Uiso   1.00
Cu565  Cu    0.10710   0.16105   0.74436   0.00000  Uiso   1.00
Cu566  Cu    0.22623   0.17228   0.75565   0.00000  Uiso   1.00
F567   F     0.32613   0.12236   0.69968   0.00000  Uiso   1.00
F568   F     0.00167   0.27704   0.51303   0.00000  Uiso   1.00
H569   H     0.30803   0.23569   0.60302   0.00000  Uiso   1.00
H570   H     0.04448   0.04844   0.54915   0.00000  Uiso   1.00
H571   H     0.30395   0.07001   0.57402   0.00000  Uiso   1.00
H572   H     0.02493   0.07092   0.61451   0.00000  Uiso   1.00
H573   H     0.10836   0.26946   0.91615   0.00000  Uiso   1.00
H574   H     0.15138   0.30957   0.86354   0.00000  Uiso   1.00
H575   H     0.17371   0.32331   0.92483   0.00000  Uiso   1.00
H576   H     0.27930   0.32216   0.80611   0.00000  Uiso   1.00
H577   H     0.23571   0.04094   0.82318   0.00000  Uiso   1.00
H578   H     0.31614   0.05501   0.78970   0.00000  Uiso   1.00
H579   H     0.09679   0.32056   0.75057   0.00000  Uiso   1.00
H580   H     0.00276   0.20464   0.79111   0.00000  Uiso   1.00
H581   H     0.28028   0.27935   0.94193   0.00000  Uiso   1.00
H582   H     0.14408   0.12505   0.57928   0.00000  Uiso   1.00
H583   H     0.31824   0.09522   0.99068   0.00000  Uiso   1.00
H584   H     0.31431   0.17642   0.89249   0.00000  Uiso   1.00
H585   H     0.26191   0.12631   0.93568   0.00000  Uiso   1.00
H586   H     0.26721   0.11993   0.86757   0.00000  Uiso   1.00
N587   N     0.31574   0.18074   0.76416   0.00000  Uiso   1.00
N588   N     0.01759   0.15259   0.73584   0.00000  Uiso   1.00
O589   O     0.12797   0.23807   0.74633   0.00000  Uiso   1.00
O590   O     0.05106   0.12999   0.56232   0.00000  Uiso   1.00
O591   O     0.19987   0.25857   0.88281   0.00000  Uiso   1.00
O592   O     0.25401   0.01835   0.74492   0.00000  Uiso   1.00
O593   O     0.22858   0.24755   0.75587   0.00000  Uiso   1.00
O594   O     0.09181   0.15960   0.81839   0.00000  Uiso   1.00
O595   O     0.19242   0.16908   0.82793   0.00000  Uiso   1.00
O596   O     0.10476   0.08578   0.74413   0.00000  Uiso   1.00
O597   O     0.20536   0.09526   0.75367   0.00000  Uiso   1.00
O598   O     0.14092   0.16425   0.67207   0.00000  Uiso   1.00
O599   O     0.24152   0.17373   0.68161   0.00000  Uiso   1.00
O600   O     0.00968   0.10547   0.89156   0.00000  Uiso   1.00
C601   C     0.51532   0.26662   0.75145   0.00000  Uiso   1.00
C602   C     0.44264   0.15998   0.90407   0.00000  Uiso   1.00
C603   C     0.52581   0.32256   0.75077   0.00000  Uiso   1.00
C604   C     0.46573   0.16385   0.84749   0.00000  Uiso   1.00
C605   C     0.47728   0.01089   0.74935   0.00000  Uiso   1.00
C606   C     0.48517   0.06665   0.74838   0.00000  Uiso   1.00
C607   C     0.53406   0.17031   0.65273   0.00000  Uiso   1.00
C608   C     0.61649   0.23910   0.53017   0.00000  Uiso   1.00
C609   C     0.55478   0.18047   0.59752   0.00000  Uiso   1.00
C610   C     0.38316   0.12820   0.92380   0.00000  Uiso   1.00
C611   C     0.36529   0.11765   0.97612   0.00000  Uiso   1.00
C612   C     0.46801   0.16652   0.98975   0.00000  Uiso   1.00
C613   C     0.40696   0.13513   0.50950   0.00000  Uiso   1.00
C614   C     0.62816   0.13362   0.89765   0.00000  Uiso   1.00
C615   C     0.35481   0.07740   0.57471   0.00000  Uiso   1.00
C616   C     0.48972   0.29140   0.89812   0.00000  Uiso   1.00
C617   C     0.60453   0.02553   0.79334   0.00000  Uiso   1.00
C618   C     0.48125   0.18455   0.93862   0.00000  Uiso   1.00
C619   C     0.51589   0.18241   0.51915   0.00000  Uiso   1.00
C620   C     0.56981   0.22232   0.50085   0.00000  Uiso   1.00
C621   C     0.57520   0.24635   0.95461   0.00000  Uiso   1.00
C622   C     0.53061   0.22905   0.92439   0.00000  Uiso   1.00
C623   C     0.51275   0.15925   0.56578   0.00000  Uiso   1.00
C624   C     0.60813   0.21906   0.57889   0.00000  Uiso   1.00
Cu625  Cu    0.44043   0.16105   0.74436   0.00000  Uiso   1.00
Cu626  Cu    0.55957   0.17228   0.75565   0.00000  Uiso   1.00
F627   F     0.65947   0.12236   0.69968   0.00000  Uiso   1.00
F628   F     0.33500   0.27704   0.51303   0.00000  Uiso   1.00
H629   H     0.64136   0.23569   0.60302   0.00000  Uiso   1.00
H630   H     0.37782   0.04844   0.54915   0.00000  Uiso   1.00
H631   H     0.63728   0.07001   0.57402   0.00000  Uiso   1.00
H632   H     0.35826   0.07092   0.61451   0.00000  Uiso   1.00
H633   H     0.44169   0.26946   0.91615   0.00000  Uiso   1.00
H634   H     0.48472   0.30957   0.86354   0.00000  Uiso   1.00
H635   H     0.50705   0.32331   0.92483   0.00000  Uiso   1.00
H636   H     0.61263   0.32216   0.80611   0.00000  Uiso   1.00
H637   H     0.56905   0.04094   0.82318   0.00000  Uiso   1.00
H638   H     0.64948   0.05501   0.78970   0.00000  Uiso   1.00
H639   H     0.43012   0.32056   0.75057   0.00000  Uiso   1.00
H640   H     0.33609   0.20464   0.79111   0.00000  Uiso   1.00
H641   H     0.61361   0.27935   0.94193   0.00000  Uiso   1.00
H642   H     0.47741   0.12505   0.57928   0.00000  Uiso   1.00
H643   H     0.65157   0.09522   0.99068   0.00000  Uiso   1.00
H644   H     0.64764   0.17642   0.89249   0.00000  Uiso   1.00
H645   H     0.59524   0.12631   0.93568   0.00000  Uiso   1.00
H646   H     0.60054   0.11993   0.86757   0.00000  Uiso   1.00
N647   N     0.64908   0.18074   0.76416   0.00000  Uiso   1.00
N648   N     0.35092   0.15259   0.73584   0.00000  Uiso   1.00
O649   O     0.46131   0.23807   0.74633   0.00000  Uiso   1.00
O650   O     0.38439   0.12999   0.56232   0.00000  Uiso   1.00
O651   O     0.53321   0.25857   0.88281   0.00000  Uiso   1.00
O652   O     0.58734   0.01835   0.74492   0.00000  Uiso   1.00
O653   O     0.56191   0.24755   0.75587   0.00000  Uiso   1.00
O654   O     0.42515   0.15960   0.81839   0.00000  Uiso   1.00
O655   O     0.52575   0.16908   0.82793   0.00000  Uiso   1.00
O656   O     0.43809   0.08578   0.74413   0.00000  Uiso   1.00
O657   O     0.53869   0.09526   0.75367   0.00000  Uiso   1.00
O658   O     0.47425   0.16425   0.67207   0.00000  Uiso   1.00
O659   O     0.57485   0.17373   0.68161   0.00000  Uiso   1.00
O660   O     0.34301   0.10547   0.89156   0.00000  Uiso   1.00
C661   C     0.84865   0.26662   0.75145   0.00000  Uiso   1.00
C662   C     0.77597   0.15998   0.90407   0.00000  Uiso   1.00
C663   C     0.85915   0.32256   0.75077   0.00000  Uiso   1.00
C664   C     0.79906   0.16385   0.84749   0.00000  Uiso   1.00
C665   C     0.81062   0.01089   0.74935   0.00000  Uiso   1.00
C666   C     0.81851   0.06665   0.74838   0.00000  Uiso   1.00
C667   C     0.86739   0.17031   0.65273   0.00000  Uiso   1.00
C668   C     0.94983   0.23910   0.53017   0.00000  Uiso   1.00
C669   C     0.88811   0.18047   0.59752   0.00000  Uiso   1.00
C670   C     0.71649   0.12820   0.92380   0.00000  Uiso   1.00
C671   C     0.69862   0.11765   0.97612   0.00000  Uiso   1.00
C672   C     0.80134   0.16652   0.98975   0.00000  Uiso   1.00
C673   C     0.74030   0.13513   0.50950   0.00000  Uiso   1.00
C674   C     0.96149   0.13362   0.89765   0.00000  Uiso   1.00
C675   C     0.68815   0.07740   0.57471   0.00000  Uiso   1.00
C676   C     0.82305   0.29140   0.89812   0.00000  Uiso   1.00
C677   C     0.93786   0.02553   0.79334   0.00000  Uiso   1.00
C678   C     0.81459   0.18455   0.93862   0.00000  Uiso   1.00
C679   C     0.84922   0.18241   0.51915   0.00000  Uiso   1.00
C680   C     0.90315   0.22232   0.50085   0.00000  Uiso   1.00
C681   C     0.90853   0.24635   0.95461   0.00000  Uiso   1.00
C682   C     0.86395   0.22905   0.92439   0.00000  Uiso   1.00
C683   C     0.84608   0.15925   0.56578   0.00000  Uiso   1.00
C684   C     0.94146   0.21906   0.57889   0.00000  Uiso   1.00
Cu685  Cu    0.77377   0.16105   0.74436   0.00000  Uiso   1.00
Cu686  Cu    0.89290   0.17228   0.75565   0.00000  Uiso   1.00
F687   F     0.99280   0.12236   0.69968   0.00000  Uiso   1.00
F688   F     0.66833   0.27704   0.51303   0.00000  Uiso   1.00
H689   H     0.97469   0.23569   0.60302   0.00000  Uiso   1.00
H690   H     0.71115   0.04844   0.54915   0.00000  Uiso   1.00
H691   H     0.97062   0.07001   0.57402   0.00000  Uiso   1.00
H692   H     0.69159   0.07092   0.61451   0.00000  Uiso   1.00
H693   H     0.77502   0.26946   0.91615   0.00000  Uiso   1.00
H694   H     0.81805   0.30957   0.86354   0.00000  Uiso   1.00
H695   H     0.84038   0.32331   0.92483   0.00000  Uiso   1.00
H696   H     0.94596   0.32216   0.80611   0.00000  Uiso   1.00
H697   H     0.90238   0.04094   0.82318   0.00000  Uiso   1.00
H698   H     0.98281   0.05501   0.78970   0.00000  Uiso   1.00
H699   H     0.76345   0.32056   0.75057   0.00000  Uiso   1.00
H700   H     0.66942   0.20464   0.79111   0.00000  Uiso   1.00
H701   H     0.94695   0.27935   0.94193   0.00000  Uiso   1.00
H702   H     0.81075   0.12505   0.57928   0.00000  Uiso   1.00
H703   H     0.98490   0.09522   0.99068   0.00000  Uiso   1.00
H704   H     0.98098   0.17642   0.89249   0.00000  Uiso   1.00
H705   H     0.92857   0.12631   0.93568   0.00000  Uiso   1.00
H706   H     0.93388   0.11993   0.86757   0.00000  Uiso   1.00
N707   N     0.98241   0.18074   0.76416   0.00000  Uiso   1.00
N708   N     0.68426   0.15259   0.73584   0.00000  Uiso   1.00
O709   O     0.79464   0.23807   0.74633   0.00000  Uiso   1.00
O710   O     0.71773   0.12999   0.56232   0.00000  Uiso   1.00
O711   O     0.86654   0.25857   0.88281   0.00000  Uiso   1.00
O712   O     0.92068   0.01835   0.74492   0.00000  Uiso   1.00
O713   O     0.89524   0.24755   0.75587   0.00000  Uiso   1.00
O714   O     0.75848   0.15960   0.81839   0.00000  Uiso   1.00
O715   O     0.85908   0.16908   0.82793   0.00000  Uiso   1.00
O716   O     0.77142   0.08578   0.74413   0.00000  Uiso   1.00
O717   O     0.87203   0.09526   0.75367   0.00000  Uiso   1.00
O718   O     0.80758   0.16425   0.67207   0.00000  Uiso   1.00
O719   O     0.90819   0.17373   0.68161   0.00000  Uiso   1.00
O720   O     0.67634   0.10547   0.89156   0.00000  Uiso   1.00
C721   C     0.18199   0.59996   0.75145   0.00000  Uiso   1.00
C722   C     0.10931   0.49332   0.90407   0.00000  Uiso   1.00
C723   C     0.19248   0.65589   0.75077   0.00000  Uiso   1.00
C724   C     0.13240   0.49718   0.84749   0.00000  Uiso   1.00
C725   C     0.14395   0.34422   0.74935   0.00000  Uiso   1.00
C726   C     0.15184   0.39999   0.74838   0.00000  Uiso   1.00
C727   C     0.20072   0.50365   0.65273   0.00000  Uiso   1.00
C728   C     0.28316   0.57244   0.53017   0.00000  Uiso   1.00
C729   C     0.22144   0.51380   0.59752   0.00000  Uiso   1.00
C730   C     0.04983   0.46153   0.92380   0.00000  Uiso   1.00
C731   C     0.03196   0.45099   0.97612   0.00000  Uiso   1.00
C732   C     0.13467   0.49985   0.98975   0.00000  Uiso   1.00
C733   C     0.07363   0.46847   0.50950   0.00000  Uiso   1.00
C734   C     0.29483   0.46695   0.89765   0.00000  Uiso   1.00
C735   C     0.02148   0.41074   0.57471   0.00000  Uiso   1.00
C736   C     0.15638   0.62474   0.89812   0.00000  Uiso   1.00
C737   C     0.27119   0.35886   0.79334   0.00000  Uiso   1.00
C738   C     0.14792   0.51789   0.93862   0.00000  Uiso   1.00
C739   C     0.18256   0.51574   0.51915   0.00000  Uiso   1.00
C740   C     0.23648   0.55566   0.50085   0.00000  Uiso   1.00
C741   C     0.24187   0.57968   0.95461   0.00000  Uiso   1.00
C742   C     0.19728   0.56238   0.92439   0.00000  Uiso   1.00
C743   C     0.17942   0.49259   0.56578   0.00000  Uiso   1.00
C744   C     0.27480   0.55240   0.57889   0.00000  Uiso   1.00
Cu745  Cu    0.10710   0.49439   0.74436   0.00000  Uiso   1.00
Cu746  Cu    0.22623   0.50561   0.75565   0.00000  Uiso   1.00
F747   F     0.32613   0.45570   0.69968   0.00000  Uiso   1.00
F748   F     0.00167   0.61037   0.51303   0.00000  Uiso   1.00
H749   H     0.30803   0.56902   0.60302   0.00000  Uiso   1.00
H750   H     0.04448   0.38178   0.54915   0.00000  Uiso   1.00
H751   H     0.30395   0.40334   0.57402   0.00000  Uiso   1.00
H752   H     0.02493   0.40425   0.61451   0.00000  Uiso   1.00
H753   H     0.10836   0.60279   0.91615   0.00000  Uiso   1.00
H754   H     0.15138   0.64290   0.86354   0.00000  Uiso   1.00
H755   H     0.17371   0.65665   0.92483   0.00000  Uiso   1.00
H756   H     0.27930   0.65549   0.80611   0.00000  Uiso   1.00
H757   H     0.23571   0.37427   0.82318   0.00000  Uiso   1.00
H758   H     0.31614   0.38834   0.78970   0.00000  Uiso   1.00
H759   H     0.09679   0.65389   0.75057   0.00000  Uiso   1.00
H760   H     0.00276   0.53798   0.79111   0.00000  Uiso   1.00
H761   H     0.28028   0.61269   0.94193   0.00000  Uiso   1.00
H762   H     0.14408   0.45838   0.57928   0.00000  Uiso   1.00
H763   H     0.31824   0.42855   0.99068   0.00000  Uiso   1.00
H764   H     0.31431   0.50975   0.89249   0.00000  Uiso   1.00
H765   H     0.26191   0.45965   0.93568   0.00000  Uiso   1.00
H766   H     0.26721   0.45327   0.86757   0.00000  Uiso   1.00
N767   N     0.31574   0.51407   0.76416   0.00000  Uiso   1.00
N768   N     0.01759   0.48593   0.73584   0.00000  Uiso   1.00
O769   O     0.12797   0.57141   0.74633   0.00000  Uiso   1.00
O770   O     0.05106   0.46332   0.56232   0.00000  Uiso   1.00
O771   O     0.19987   0.59190   0.88281   0.00000  Uiso   1.00
O772   O     0.25401   0.35168   0.74492   0.00000  Uiso   1.00
O773   O     0.22858   0.58089   0.75587   0.00000  Uiso   1.00
O774   O     0.09181   0.49293   0.81839   0.00000  Uiso   1.00
O775   O     0.19242   0.50241   0.82793   0.00000  Uiso   1.00
O776   O     0.10476   0.41911   0.74413   0.00000  Uiso   1.00
O777   O     0.20536   0.42859   0.75367   0.00000  Uiso   1.00
O778   O     0.14092   0.49759   0.67207   0.00000  Uiso   1.00
O779   O     0.24152   0.50707   0.68161   0.00000  Uiso   1.00
O780   O     0.00968   0.43880   0.89156   0.00000  Uiso   1.00
C781   C     0.51532   0.59996   0.75145   0.00000  Uiso   1.00
C782   C     0.44264   0.49332   0.90407   0.00000  Uiso   1.00
C783   C     0.52581   0.65589   0.75077   0.00000  Uiso   1.00
C784   C     0.46573   0.49718   0.84749   0.00000  Uiso   1.00
C785   C     0.47728   0.34422   0.74935   0.00000  Uiso   1.00
C786   C     0.48517   0.39999   0.74838   0.00000  Uiso   1.00
C787   C     0.53406   0.50365   0.65273   0.00000  Uiso   1.00
C788   C     0.61649   0.57244   0.53017   0.00000  Uiso   1.00
C789   C     0.55478   0.51380   0.59752   0.00000  Uiso   1.00
C790   C     0.38316   0.46153   0.92380   0.00000  Uiso   1.00
C791   C     0.36529   0.45099   0.97612   0.00000  Uiso   1.00
C792   C     0.46801   0.49985   0.98975   0.00000  Uiso   1.00
C793   C     0.40696   0.46847   0.50950   0.00000  Uiso   1.00
C794   C     0.62816   0.46695   0.89765   0.00000  Uiso   1.00
C795   C     0.35481   0.41074   0.57471   0.00000  Uiso   1.00
C796   C     0.48972   0.62474   0.89812   0.00000  Uiso   1.00
C797   C     0.60453   0.35886   0.79334   0.00000  Uiso   1.00
C798   C     0.48125   0.51789   0.93862   0.00000  Uiso   1.00
C799   C     0.51589   0.51574   0.51915   0.00000  Uiso   1.00
C800   C     0.56981   0.55566   0.50085   0.00000  Uiso   1.00
C801   C     0.57520   0.57968   0.95461   0.00000  Uiso   1.00
C802   C     0.53061   0.56238   0.92439   0.00000  Uiso   1.00
C803   C     0.51275   0.49259   0.56578   0.00000  Uiso   1.00
C804   C     0.60813   0.55240   0.57889   0.00000  Uiso   1.00
Cu805  Cu    0.44043   0.49439   0.74436   0.00000  Uiso   1.00
Cu806  Cu    0.55957   0.50561   0.75565   0.00000  Uiso   1.00
F807   F     0.65947   0.45570   0.69968   0.00000  Uiso   1.00
F808   F     0.33500   0.61037   0.51303   0.00000  Uiso   1.00
H809   H     0.64136   0.56902   0.60302   0.00000  Uiso   1.00
H810   H     0.37782   0.38178   0.54915   0.00000  Uiso   1.00
H811   H     0.63728   0.40334   0.57402   0.00000  Uiso   1.00
H812   H     0.35826   0.40425   0.61451   0.00000  Uiso   1.00
H813   H     0.44169   0.60279   0.91615   0.00000  Uiso   1.00
H814   H     0.48472   0.64290   0.86354   0.00000  Uiso   1.00
H815   H     0.50705   0.65665   0.92483   0.00000  Uiso   1.00
H816   H     0.61263   0.65549   0.80611   0.00000  Uiso   1.00
H817   H     0.56905   0.37427   0.82318   0.00000  Uiso   1.00
H818   H     0.64948   0.38834   0.78970   0.00000  Uiso   1.00
H819   H     0.43012   0.65389   0.75057   0.00000  Uiso   1.00
H820   H     0.33609   0.53798   0.79111   0.00000  Uiso   1.00
H821   H     0.61361   0.61269   0.94193   0.00000  Uiso   1.00
H822   H     0.47741   0.45838   0.57928   0.00000  Uiso   1.00
H823   H     0.65157   0.42855   0.99068   0.00000  Uiso   1.00
H824   H     0.64764   0.50975   0.89249   0.00000  Uiso   1.00
H825   H     0.59524   0.45965   0.93568   0.00000  Uiso   1.00
H826   H     0.60054   0.45327   0.86757   0.00000  Uiso   1.00
N827   N     0.64908   0.51407   0.76416   0.00000  Uiso   1.00
N828   N     0.35092   0.48593   0.73584   0.00000  Uiso   1.00
O829   O     0.46131   0.57141   0.74633   0.00000  Uiso   1.00
O830   O     0.38439   0.46332   0.56232   0.00000  Uiso   1.00
O831   O     0.53321   0.59190   0.88281   0.00000  Uiso   1.00
O832   O     0.58734   0.35168   0.74492   0.00000  Uiso   1.00
O833   O     0.56191   0.58089   0.75587   0.00000  Uiso   1.00
O834   O     0.42515   0.49293   0.81839   0.00000  Uiso   1.00
O835   O     0.52575   0.50241   0.82793   0.00000  Uiso   1.00
O836   O     0.43809   0.41911   0.74413   0.00000  Uiso   1.00
O837   O     0.53869   0.42859   0.75367   0.00000  Uiso   1.00
O838   O     0.47425   0.49759   0.67207   0.00000  Uiso   1.00
O839   O     0.57485   0.50707   0.68161   0.00000  Uiso   1.00
O840   O     0.34301   0.43880   0.89156   0.00000  Uiso   1.00
C841   C     0.84865   0.59996   0.75145   0.00000  Uiso   1.00
C842   C     0.77597   0.49332   0.90407   0.00000  Uiso   1.00
C843   C     0.85915   0.65589   0.75077   0.00000  Uiso   1.00
C844   C     0.79906   0.49718   0.84749   0.00000  Uiso   1.00
C845   C     0.81062   0.34422   0.74935   0.00000  Uiso   1.00
C846   C     0.81851   0.39999   0.74838   0.00000  Uiso   1.00
C847   C     0.86739   0.50365   0.65273   0.00000  Uiso   1.00
C848   C     0.94983   0.57244   0.53017   0.00000  Uiso   1.00
C849   C     0.88811   0.51380   0.59752   0.00000  Uiso   1.00
C850   C     0.71649   0.46153   0.92380   0.00000  Uiso   1.00
C851   C     0.69862   0.45099   0.97612   0.00000  Uiso   1.00
C852   C     0.80134   0.49985   0.98975   0.00000  Uiso   1.00
C853   C     0.74030   0.46847   0.50950   0.00000  Uiso   1.00
C854   C     0.96149   0.46695   0.89765   0.00000  Uiso   1.00
C855   C     0.68815   0.41074   0.57471   0.00000  Uiso   1.00
C856   C     0.82305   0.62474   0.89812   0.00000  Uiso   1.00
C857   C     0.93786   0.35886   0.79334   0.00000  Uiso   1.00
C858   C     0.81459   0.51789   0.93862   0.00000  Uiso   1.00
C859   C     0.84922   0.51574   0.51915   0.00000  Uiso   1.00
C860   C     0.90315   0.55566   0.50085   0.00000  Uiso   1.00
C861   C     0.90853   0.57968   0.95461   0.00000  Uiso   1.00
C862   C     0.86395   0.56238   0.92439   0.00000  Uiso   1.00
C863   C     0.84608   0.49259   0.56578   0.00000  Uiso   1.00
C864   C     0.94146   0.55240   0.57889   0.00000  Uiso   1.00
Cu865  Cu    0.77377   0.49439   0.74436   0.00000  Uiso   1.00
Cu866  Cu    0.89290   0.50561   0.75565   0.00000  Uiso   1.00
F867   F     0.99280   0.45570   0.69968   0.00000  Uiso   1.00
F868   F     0.66833   0.61037   0.51303   0.00000  Uiso   1.00
H869   H     0.97469   0.56902   0.60302   0.00000  Uiso   1.00
H870   H     0.71115   0.38178   0.54915   0.00000  Uiso   1.00
H871   H     0.97062   0.40334   0.57402   0.00000  Uiso   1.00
H872   H     0.69159   0.40425   0.61451   0.00000  Uiso   1.00
H873   H     0.77502   0.60279   0.91615   0.00000  Uiso   1.00
H874   H     0.81805   0.64290   0.86354   0.00000  Uiso   1.00
H875   H     0.84038   0.65665   0.92483   0.00000  Uiso   1.00
H876   H     0.94596   0.65549   0.80611   0.00000  Uiso   1.00
H877   H     0.90238   0.37427   0.82318   0.00000  Uiso   1.00
H878   H     0.98281   0.38834   0.78970   0.00000  Uiso   1.00
H879   H     0.76345   0.65389   0.75057   0.00000  Uiso   1.00
H880   H     0.66942   0.53798   0.79111   0.00000  Uiso   1.00
H881   H     0.94695   0.61269   0.94193   0.00000  Uiso   1.00
H882   H     0.81075   0.45838   0.57928   0.00000  Uiso   1.00
H883   H     0.98490   0.42855   0.99068   0.00000  Uiso   1.00
H884   H     0.98098   0.50975   0.89249   0.00000  Uiso   1.00
H885   H     0.92857   0.45965   0.93568   0.00000  Uiso   1.00
H886   H     0.93388   0.45327   0.86757   0.00000  Uiso   1.00
N887   N     0.98241   0.51407   0.76416   0.00000  Uiso   1.00
N888   N     0.68426   0.48593   0.73584   0.00000  Uiso   1.00
O889   O     0.79464   0.57141   0.74633   0.00000  Uiso   1.00
O890   O     0.71773   0.46332   0.56232   0.00000  Uiso   1.00
O891   O     0.86654   0.59190   0.88281   0.00000  Uiso   1.00
O892   O     0.92068   0.35168   0.74492   0.00000  Uiso   1.00
O893   O     0.89524   0.58089   0.75587   0.00000  Uiso   1.00
O894   O     0.75848   0.49293   0.81839   0.00000  Uiso   1.00
O895   O     0.85908   0.50241   0.82793   0.00000  Uiso   1.00
O896   O     0.77142   0.41911   0.74413   0.00000  Uiso   1.00
O897   O     0.87203   0.42859   0.75367   0.00000  Uiso   1.00
O898   O     0.80758   0.49759   0.67207   0.00000  Uiso   1.00
O899   O     0.90819   0.50707   0.68161   0.00000  Uiso   1.00
O900   O     0.67634   0.43880   0.89156   0.00000  Uiso   1.00
C901   C     0.18199   0.93329   0.75145   0.00000  Uiso   1.00
C902   C     0.10931   0.82665   0.90407   0.00000  Uiso   1.00
C903   C     0.19248   0.98923   0.75077   0.00000  Uiso   1.00
C904   C     0.13240   0.83052   0.84749   0.00000  Uiso   1.00
C905   C     0.14395   0.67756   0.74935   0.00000  Uiso   1.00
C906   C     0.15184   0.73332   0.74838   0.00000  Uiso   1.00
C907   C     0.20072   0.83698   0.65273   0.00000  Uiso   1.00
C908   C     0.28316   0.90577   0.53017   0.00000  Uiso   1.00
C909   C     0.22144   0.84714   0.59752   0.00000  Uiso   1.00
C910   C     0.04983   0.79487   0.92380   0.00000  Uiso   1.00
C911   C     0.03196   0.78432   0.97612   0.00000  Uiso   1.00
C912   C     0.13467   0.83318   0.98975   0.00000  Uiso   1.00
C913   C     0.07363   0.80180   0.50950   0.00000  Uiso   1.00
C914   C     0.29483   0.80029   0.89765   0.00000  Uiso   1.00
C915   C     0.02148   0.74407   0.57471   0.00000  Uiso   1.00
C916   C     0.15638   0.95807   0.89812   0.00000  Uiso   1.00
C917   C     0.27119   0.69219   0.79334   0.00000  Uiso   1.00
C918   C     0.14792   0.85122   0.93862   0.00000  Uiso   1.00
C919   C     0.18256   0.84908   0.51915   0.00000  Uiso   1.00
C920   C     0.23648   0.88899   0.50085   0.00000  Uiso   1.00
C921   C     0.24187   0.91301   0.95461   0.00000  Uiso   1.00
C922   C     0.19728   0.89571   0.92439   0.00000  Uiso   1.00
C923   C     0.17942   0.82592   0.56578   0.00000  Uiso   1.00
C924   C     0.27480   0.88573   0.57889   0.00000  Uiso   1.00
Cu925  Cu    0.10710   0.82772   0.74436   0.00000  Uiso   1.00
Cu926  Cu    0.22623   0.83895   0.75565   0.00000  Uiso   1.00
F927   F     0.32613   0.78903   0.69968   0.00000  Uiso   1.00
F928   F     0.00167   0.94370   0.51303   0.00000  Uiso   1.00
H929   H     0.30803   0.90236   0.60302   0.00000  Uiso   1.00
H930   H     0.04448   0.71511   0.54915   0.00000  Uiso   1.00
H931   H     0.30395   0.73668   0.57402   0.00000  Uiso   1.00
H932   H     0.02493   0.73759   0.61451   0.00000  Uiso   1.00
H933   H     0.10836   0.93613   0.91615   0.00000  Uiso   1.00
H934   H     0.15138   0.97624   0.86354   0.00000  Uiso   1.00
H935   H     0.17371   0.98998   0.92483   0.00000  Uiso   1.00
H936   H     0.27930   0.98882   0.80611   0.00000  Uiso   1.00
H937   H     0.23571   0.70761   0.82318   0.00000  Uiso   1.00
H938   H     0.31614   0.72167   0.78970   0.00000  Uiso   1.00
H939   H     0.09679   0.98723   0.75057   0.00000  Uiso   1.00
H940   H     0.00276   0.87131   0.79111   0.00000  Uiso   1.00
H941   H     0.28028   0.94602   0.94193   0.00000  Uiso   1.00
H942   H     0.14408   0.79171   0.57928   0.00000  Uiso   1.00
H943   H     0.31824   0.76189   0.99068   0.00000  Uiso   1.00
H944   H     0.31431   0.84308   0.89249   0.00000  Uiso   1.00
H945   H     0.26191   0.79298   0.93568   0.00000  Uiso   1.00
H946   H     0.26721   0.78660   0.86757   0.00000  Uiso   1.00
N947   N     0.31574   0.84741   0.76416   0.00000  Uiso   1.00
N948   N     0.01759   0.81926   0.73584   0.00000  Uiso   1.00
O949   O     0.12797   0.90474   0.74633   0.00000  Uiso   1.00
O950   O     0.05106   0.79665   0.56232   0.00000  Uiso   1.00
O951   O     0.19987   0.92523   0.88281   0.00000  Uiso   1.00
O952   O     0.25401   0.68502   0.74492   0.00000  Uiso   1.00
O953   O     0.22858   0.91422   0.75587   0.00000  Uiso   1.00
O954   O     0.09181   0.82627   0.81839   0.00000  Uiso   1.00
O955   O     0.19242   0.83575   0.82793   0.00000  Uiso   1.00
O956   O     0.10476   0.75245   0.74413   0.00000  Uiso   1.00
O957   O     0.20536   0.76193   0.75367   0.00000  Uiso   1.00
O958   O     0.14092   0.83092   0.67207   0.00000  Uiso   1.00
O959   O     0.24152   0.84040   0.68161   0.00000  Uiso   1.00
O960   O     0.00968   0.77214   0.89156   0.00000  Uiso   1.00
C961   C     0.51532   0.93329   0.75145   0.00000  Uiso   1.00
C962   C     0.44264   0.82665   0.90407   0.00000  Uiso   1.00
C963   C     0.52581   0.98923   0.75077   0.00000  Uiso   1.00
C964   C     0.46573   0.83052   0.84749   0.00000  Uiso   1.00
C965   C     0.47728   0.67756   0.74935   0.00000  Uiso   1.00
C966   C     0.48517   0.73332   0.74838   0.00000  Uiso   1.00
C967   C     0.53406   0.83698   0.65273   0.00000  Uiso   1.00
C968   C     0.61649   0.90577   0.53017   0.00000  Uiso   1.00
C969   C     0.55478   0.84714   0.59752   0.00000  Uiso   1.00
C970   C     0.38316   0.79487   0.92380   0.00000  Uiso   1.00
C971   C     0.36529   0.78432   0.97612   0.00000  Uiso   1.00
C972   C     0.46801   0.83318   0.98975   0.00000  Uiso   1.00
C973   C     0.40696   0.80180   0.50950   0.00000  Uiso   1.00
C974   C     0.62816   0.80029   0.89765   0.00000  Uiso   1.00
C975   C     0.35481   0.74407   0.57471   0.00000  Uiso   1.00
C976   C     0.48972   0.95807   0.89812   0.00000  Uiso   1.00
C977   C     0.60453   0.69219   0.79334   0.00000  Uiso   1.00
C978   C     0.48125   0.85122   0.93862   0.00000  Uiso   1.00
C979   C     0.51589   0.84908   0.51915   0.00000  Uiso   1.00
C980   C     0.56981   0.88899   0.50085   0.00000  Uiso   1.00
C981   C     0.57520   0.91301   0.95461   0.00000  Uiso   1.00
C982   C     0.53061   0.89571   0.92439   0.00000  Uiso   1.00
C983   C     0.51275   0.82592   0.56578   0.00000  Uiso   1.00
C984   C     0.60813   0.88573   0.57889   0.00000  Uiso   1.00
Cu985  Cu    0.44043   0.82772   0.74436   0.00000  Uiso   1.00
Cu986  Cu    0.55957   0.83895   0.75565   0.00000  Uiso   1.00
F987   F     0.65947   0.78903   0.69968   0.00000  Uiso   1.00
F988   F     0.33500   0.94370   0.51303   0.00000  Uiso   1.00
H989   H     0.64136   0.90236   0.60302   0.00000  Uiso   1.00
H990   H     0.37782   0.71511   0.54915   0.00000  Uiso   1.00
H991   H     0.63728   0.73668   0.57402   0.00000  Uiso   1.00
H992   H     0.35826   0.73759   0.61451   0.00000  Uiso   1.00
H993   H     0.44169   0.93613   0.91615   0.00000  Uiso   1.00
H994   H     0.48472   0.97624   0.86354   0.00000  Uiso   1.00
H995   H     0.50705   0.98998   0.92483   0.00000  Uiso   1.00
H996   H     0.61263   0.98882   0.80611   0.00000  Uiso   1.00
H997   H     0.56905   0.70761   0.82318   0.00000  Uiso   1.00
H998   H     0.64948   0.72167   0.78970   0.00000  Uiso   1.00
H999   H     0.43012   0.98723   0.75057   0.00000  Uiso   1.00
H1000  H     0.33609   0.87131   0.79111   0.00000  Uiso   1.00
H1001  H     0.61361   0.94602   0.94193   0.00000  Uiso   1.00
H1002  H     0.47741   0.79171   0.57928   0.00000  Uiso   1.00
H1003  H     0.65157   0.76189   0.99068   0.00000  Uiso   1.00
H1004  H     0.64764   0.84308   0.89249   0.00000  Uiso   1.00
H1005  H     0.59524   0.79298   0.93568   0.00000  Uiso   1.00
H1006  H     0.60054   0.78660   0.86757   0.00000  Uiso   1.00
N1007  N     0.64908   0.84741   0.76416   0.00000  Uiso   1.00
N1008  N     0.35092   0.81926   0.73584   0.00000  Uiso   1.00
O1009  O     0.46131   0.90474   0.74633   0.00000  Uiso   1.00
O1010  O     0.38439   0.79665   0.56232   0.00000  Uiso   1.00
O1011  O     0.53321   0.92523   0.88281   0.00000  Uiso   1.00
O1012  O     0.58734   0.68502   0.74492   0.00000  Uiso   1.00
O1013  O     0.56191   0.91422   0.75587   0.00000  Uiso   1.00
O1014  O     0.42515   0.82627   0.81839   0.00000  Uiso   1.00
O1015  O     0.52575   0.83575   0.82793   0.00000  Uiso   1.00
O1016  O     0.43809   0.75245   0.74413   0.00000  Uiso   1.00
O1017  O     0.53869   0.76193   0.75367   0.00000  Uiso   1.00
O1018  O     0.47425   0.83092   0.67207   0.00000  Uiso   1.00
O1019  O     0.57485   0.84040   0.68161   0.00000  Uiso   1.00
O1020  O     0.34301   0.77214   0.89156   0.00000  Uiso   1.00
C1021  C     0.84865   0.93329   0.75145   0.00000  Uiso   1.00
C1022  C     0.77597   0.82665   0.90407   0.00000  Uiso   1.00
C1023  C     0.85915   0.98923   0.75077   0.00000  Uiso   1.00
C1024  C     0.79906   0.83052   0.84749   0.00000  Uiso   1.00
C1025  C     0.81062   0.67756   0.74935   0.00000  Uiso   1.00
C1026  C     0.81851   0.73332   0.74838   0.00000  Uiso   1.00
C1027  C     0.86739   0.83698   0.65273   0.00000  Uiso   1.00
C1028  C     0.94983   0.90577   0.53017   0.00000  Uiso   1.00
C1029  C     0.88811   0.84714   0.59752   0.00000  Uiso   1.00
C1030  C     0.71649   0.79487   0.92380   0.00000  Uiso   1.00
C1031  C     0.69862   0.78432   0.97612   0.00000  Uiso   1.00
C1032  C     0.80134   0.83318   0.98975   0.00000  Uiso   1.00
C1033  C     0.74030   0.80180   0.50950   0.00000  Uiso   1.00
C1034  C     0.96149   0.80029   0.89765   0.00000  Uiso   1.00
C1035  C     0.68815   0.74407   0.57471   0.00000  Uiso   1.00
C1036  C     0.82305   0.95807   0.89812   0.00000  Uiso   1.00
C1037  C     0.93786   0.69219   0.79334   0.00000  Uiso   1.00
C1038  C     0.81459   0.85122   0.93862   0.00000  Uiso   1.00
C1039  C     0.84922   0.84908   0.51915   0.00000  Uiso   1.00
C1040  C     0.90315   0.88899   0.50085   0.00000  Uiso   1.00
C1041  C     0.90853   0.91301   0.95461   0.00000  Uiso   1.00
C1042  C     0.86395   0.89571   0.92439   0.00000  Uiso   1.00
C1043  C     0.84608   0.82592   0.56578   0.00000  Uiso   1.00
C1044  C     0.94146   0.88573   0.57889   0.00000  Uiso   1.00
Cu1045 Cu    0.77377   0.82772   0.74436   0.00000  Uiso   1.00
Cu1046 Cu    0.89290   0.83895   0.75565   0.00000  Uiso   1.00
F1047  F     0.99280   0.78903   0.69968   0.00000  Uiso   1.00
F1048  F     0.66833   0.94370   0.51303   0.00000  Uiso   1.00
H1049  H     0.97469   0.90236   0.60302   0.00000  Uiso   1.00
H1050  H     0.71115   0.71511   0.54915   0.00000  Uiso   1.00
H1051  H     0.97062   0.73668   0.57402   0.00000  Uiso   1.00
H1052  H     0.69159   0.73759   0.61451   0.00000  Uiso   1.00
H1053  H     0.77502   0.93613   0.91615   0.00000  Uiso   1.00
H1054  H     0.81805   0.97624   0.86354   0.00000  Uiso   1.00
H1055  H     0.84038   0.98998   0.92483   0.00000  Uiso   1.00
H1056  H     0.94596   0.98882   0.80611   0.00000  Uiso   1.00
H1057  H     0.90238   0.70761   0.82318   0.00000  Uiso   1.00
H1058  H     0.98281   0.72167   0.78970   0.00000  Uiso   1.00
H1059  H     0.76345   0.98723   0.75057   0.00000  Uiso   1.00
H1060  H     0.66942   0.87131   0.79111   0.00000  Uiso   1.00
H1061  H     0.94695   0.94602   0.94193   0.00000  Uiso   1.00
H1062  H     0.81075   0.79171   0.57928   0.00000  Uiso   1.00
H1063  H     0.98490   0.76189   0.99068   0.00000  Uiso   1.00
H1064  H     0.98098   0.84308   0.89249   0.00000  Uiso   1.00
H1065  H     0.92857   0.79298   0.93568   0.00000  Uiso   1.00
H1066  H     0.93388   0.78660   0.86757   0.00000  Uiso   1.00
N1067  N     0.98241   0.84741   0.76416   0.00000  Uiso   1.00
N1068  N     0.68426   0.81926   0.73584   0.00000  Uiso   1.00
O1069  O     0.79464   0.90474   0.74633   0.00000  Uiso   1.00
O1070  O     0.71773   0.79665   0.56232   0.00000  Uiso   1.00
O1071  O     0.86654   0.92523   0.88281   0.00000  Uiso   1.00
O1072  O     0.92068   0.68502   0.74492   0.00000  Uiso   1.00
O1073  O     0.89524   0.91422   0.75587   0.00000  Uiso   1.00
O1074  O     0.75848   0.82627   0.81839   0.00000  Uiso   1.00
O1075  O     0.85908   0.83575   0.82793   0.00000  Uiso   1.00
O1076  O     0.77142   0.75245   0.74413   0.00000  Uiso   1.00
O1077  O     0.87203   0.76193   0.75367   0.00000  Uiso   1.00
O1078  O     0.80758   0.83092   0.67207   0.00000  Uiso   1.00
O1079  O     0.90819   0.84040   0.68161   0.00000  Uiso   1.00
O1080  O     0.67634   0.77214   0.89156   0.00000  Uiso   1.00
loop_
_geom_bond_atom_site_label_1
_geom_bond_atom_site_label_2
_geom_bond_distance
_geom_bond_site_symmetry_2
_ccdc_geom_bond_type
C1     O53     1.282   .     A
C1     O49     1.295   .     A
C1     C3      1.432   .     S
C2     C18     1.418   .     A
C2     C4      1.482   .     S
C2     C10     1.408   .     A
C3     C185    1.340   .     S
C3     O232    1.391   .     S
C4     O54     1.298   .     A
C4     O55     1.303   .     A
C5     C6      1.433   .     S
C5     C363    1.340   1_545 S
C5     H399    1.088   1_545 S
C6     O57     1.287   .     A
C6     O56     1.292   .     A
C7     O58     1.296   .     A
C7     O59     1.300   .     A
C7     C9      1.465   .     S
C8     C20     1.410   .     A
C8     C24     1.395   .     A
C8     F88     1.358   .     S
C9     C24     1.397   .     A
C9     C23     1.395   .     A
C10    O60     1.383   .     S
C10    C11     1.392   .     A
C11    C553    1.405   .     S
C11    H163    1.082   1_455 S
C12    C18     1.422   .     A
C12    C553    1.430   .     S
C12    C559    1.430   .     S
C13    O50     1.390   .     S
C13    C552    1.430   1_554 S
C13    C551    1.405   1_554 S
C14    H46     1.106   .     S
C14    H45     1.111   .     S
C14    H44     1.114   .     S
C14    O120    1.411   .     S
C15    H32     1.108   .     S
C15    H30     1.115   .     S
C15    O50     1.415   .     S
C15    H151    1.111   1_455 S
C16    O51     1.413   .     S
C16    H33     1.114   .     S
C16    H35     1.112   .     S
C16    H34     1.107   .     S
C17    H37     1.111   .     S
C17    O52     1.412   .     S
C17    H38     1.108   .     S
C17    H396    1.110   1_545 S
C18    C22     1.419   .     A
C19    C20     1.422   .     A
C19    C23     1.405   .     A
C19    C552    1.430   1_554 S
C20    C561    1.395   1_554 S
C21    C22     1.392   .     A
C21    H41     1.084   .     S
C21    C560    1.395   .     S
C22    O51     1.383   .     S
C23    H42     1.075   .     S
C24    H29     1.083   .     S
Cu25   O56     1.961   .     S
Cu25   N48     2.020   .     S
Cu25   O54     1.926   .     S
Cu25   O49     1.965   .     S
Cu25   O58     1.905   .     S
Cu25   Cu26    2.688   .     S
Cu26   O59     1.926   .     S
Cu26   O55     1.905   .     S
Cu26   N47     2.020   .     S
Cu26   O57     1.965   .     S
Cu26   O53     1.961   .     S
F27    N108    1.334   .     S
F28    C128    1.358   1_455 S
H31    C75     1.111   .     S
H36    C197    1.110   .     S
H39    C185    1.088   .     S
H40    N167    1.029   1_455 S
H43    C71     1.082   .     S
N47    H100    1.029   .     S
N47    N108    1.281   .     S
N48    N167    1.281   1_455 S
N48    F147    1.334   1_455 S
O52    C363    1.391   1_545 S
O60    C134    1.411   1_455 S
C61    O113    1.282   .     A
C61    O109    1.295   .     A
C61    C63     1.432   .     S
C62    C78     1.418   .     A
C62    C64     1.482   .     S
C62    C70     1.408   .     A
C63    C245    1.340   .     S
C63    O292    1.391   .     S
C64    O114    1.298   .     A
C64    O115    1.303   .     A
C65    C66     1.433   .     S
C65    C423    1.340   1_545 S
C65    H459    1.088   1_545 S
C66    O117    1.287   .     A
C66    O116    1.292   .     A
C67    O118    1.296   .     A
C67    O119    1.300   .     A
C67    C69     1.465   .     S
C68    C80     1.410   .     A
C68    C84     1.395   .     A
C68    F148    1.358   .     S
C69    C84     1.397   .     A
C69    C83     1.395   .     A
C70    O120    1.383   .     S
C70    C71     1.392   .     A
C71    C613    1.405   .     S
C72    C78     1.422   .     A
C72    C613    1.430   .     S
C72    C619    1.430   .     S
C73    O110    1.390   .     S
C73    C612    1.430   1_554 S
C73    C611    1.405   1_554 S
C74    H106    1.106   .     S
C74    H105    1.111   .     S
C74    H104    1.114   .     S
C74    O180    1.411   .     S
C75    H92     1.108   .     S
C75    H90     1.115   .     S
C75    O110    1.415   .     S
C76    O111    1.413   .     S
C76    H93     1.114   .     S
C76    H95     1.112   .     S
C76    H94     1.107   .     S
C77    H97     1.111   .     S
C77    O112    1.412   .     S
C77    H98     1.108   .     S
C77    H456    1.110   1_545 S
C78    C82     1.419   .     A
C79    C80     1.422   .     A
C79    C83     1.405   .     A
C79    C612    1.430   1_554 S
C80    C621    1.395   1_554 S
C81    C82     1.392   .     A
C81    H101    1.084   .     S
C81    C620    1.395   .     S
C82    O111    1.383   .     S
C83    H102    1.075   .     S
C84    H89     1.083   .     S
Cu85   O116    1.961   .     S
Cu85   N108    2.020   .     S
Cu85   O114    1.926   .     S
Cu85   O109    1.965   .     S
Cu85   O118    1.905   .     S
Cu85   Cu86    2.688   .     S
Cu86   O119    1.926   .     S
Cu86   O115    1.905   .     S
Cu86   N107    2.020   .     S
Cu86   O117    1.965   .     S
Cu86   O113    1.961   .     S
F87    N168    1.334   .     S
H91    C135    1.111   .     S
H96    C257    1.110   .     S
H99    C245    1.088   .     S
H103   C131    1.082   .     S
N107   H160    1.029   .     S
N107   N168    1.281   .     S
O112   C423    1.391   1_545 S
C121   O173    1.282   .     A
C121   O169    1.295   .     A
C121   C123    1.432   .     S
C122   C138    1.418   .     A
C122   C124    1.482   .     S
C122   C130    1.408   .     A
C123   C305    1.340   .     S
C123   O352    1.391   .     S
C124   O174    1.298   .     A
C124   O175    1.303   .     A
C125   C126    1.433   .     S
C125   C483    1.340   1_545 S
C125   H519    1.088   1_545 S
C126   O177    1.287   .     A
C126   O176    1.292   .     A
C127   O178    1.296   .     A
C127   O179    1.300   .     A
C127   C129    1.465   .     S
C128   C140    1.410   .     A
C128   C144    1.395   .     A
C128   F28     1.358   1_655 S
C129   C144    1.397   .     A
C129   C143    1.395   .     A
C130   O180    1.383   .     S
C130   C131    1.392   .     A
C131   C673    1.405   .     S
C132   C138    1.422   .     A
C132   C673    1.430   .     S
C132   C679    1.430   .     S
C133   O170    1.390   .     S
C133   C672    1.430   1_554 S
C133   C671    1.405   1_554 S
C134   H166    1.106   .     S
C134   H165    1.111   .     S
C134   H164    1.114   .     S
C134   O60     1.411   1_655 S
C135   H152    1.108   .     S
C135   H150    1.115   .     S
C135   O170    1.415   .     S
C136   O171    1.413   .     S
C136   H153    1.114   .     S
C136   H155    1.112   .     S
C136   H154    1.107   .     S
C137   H157    1.111   .     S
C137   O172    1.412   .     S
C137   H158    1.108   .     S
C137   H516    1.110   1_545 S
C138   C142    1.419   .     A
C139   C140    1.422   .     A
C139   C143    1.405   .     A
C139   C672    1.430   1_554 S
C140   C681    1.395   1_554 S
C141   C142    1.392   .     A
C141   H161    1.084   .     S
C141   C680    1.395   .     S
C142   O171    1.383   .     S
C143   H162    1.075   .     S
C144   H149    1.083   .     S
Cu145  O176    1.961   .     S
Cu145  N168    2.020   .     S
Cu145  O174    1.926   .     S
Cu145  O169    1.965   .     S
Cu145  O178    1.905   .     S
Cu145  Cu146   2.688   .     S
Cu146  O179    1.926   .     S
Cu146  O175    1.905   .     S
Cu146  N167    2.020   .     S
Cu146  O177    1.965   .     S
Cu146  O173    1.961   .     S
F147   N48     1.334   1_655 S
H151   C15     1.111   1_655 S
H156   C317    1.110   .     S
H159   C305    1.088   .     S
H163   C11     1.082   1_655 S
N167   H40     1.029   1_655 S
N167   N48     1.281   1_655 S
O172   C483    1.391   1_545 S
C181   O233    1.282   .     A
C181   O229    1.295   .     A
C181   C183    1.432   .     S
C182   C198    1.418   .     A
C182   C184    1.482   .     S
C182   C190    1.408   .     A
C183   C365    1.340   .     S
C183   O412    1.391   .     S
C184   O234    1.298   .     A
C184   O235    1.303   .     A
C185   C186    1.433   .     S
C186   O237    1.287   .     A
C186   O236    1.292   .     A
C187   O238    1.296   .     A
C187   O239    1.300   .     A
C187   C189    1.465   .     S
C188   C200    1.410   .     A
C188   C204    1.395   .     A
C188   F268    1.358   .     S
C189   C204    1.397   .     A
C189   C203    1.395   .     A
C190   O240    1.383   .     S
C190   C191    1.392   .     A
C191   C733    1.405   .     S
C191   H343    1.082   1_455 S
C192   C198    1.422   .     A
C192   C733    1.430   .     S
C192   C739    1.430   .     S
C193   O230    1.390   .     S
C193   C732    1.430   1_554 S
C193   C731    1.405   1_554 S
C194   H226    1.106   .     S
C194   H225    1.111   .     S
C194   H224    1.114   .     S
C194   O300    1.411   .     S
C195   H212    1.108   .     S
C195   H210    1.115   .     S
C195   O230    1.415   .     S
C195   H331    1.111   1_455 S
C196   O231    1.413   .     S
C196   H213    1.114   .     S
C196   H215    1.112   .     S
C196   H214    1.107   .     S
C197   H217    1.111   .     S
C197   O232    1.412   .     S
C197   H218    1.108   .     S
C198   C202    1.419   .     A
C199   C200    1.422   .     A
C199   C203    1.405   .     A
C199   C732    1.430   1_554 S
C200   C741    1.395   1_554 S
C201   C202    1.392   .     A
C201   H221    1.084   .     S
C201   C740    1.395   .     S
C202   O231    1.383   .     S
C203   H222    1.075   .     S
C204   H209    1.083   .     S
Cu205  O236    1.961   .     S
Cu205  N228    2.020   .     S
Cu205  O234    1.926   .     S
Cu205  O229    1.965   .     S
Cu205  O238    1.905   .     S
Cu205  Cu206   2.688   .     S
Cu206  O239    1.926   .     S
Cu206  O235    1.905   .     S
Cu206  N227    2.020   .     S
Cu206  O237    1.965   .     S
Cu206  O233    1.961   .     S
F207   N288    1.334   .     S
F208   C308    1.358   1_455 S
H211   C255    1.111   .     S
H216   C377    1.110   .     S
H219   C365    1.088   .     S
H220   N347    1.029   1_455 S
H223   C251    1.082   .     S
N227   H280    1.029   .     S
N227   N288    1.281   .     S
N228   N347    1.281   1_455 S
N228   F327    1.334   1_455 S
O240   C314    1.411   1_455 S
C241   O293    1.282   .     A
C241   O289    1.295   .     A
C241   C243    1.432   .     S
C242   C258    1.418   .     A
C242   C244    1.482   .     S
C242   C250    1.408   .     A
C243   C425    1.340   .     S
C243   O472    1.391   .     S
C244   O294    1.298   .     A
C244   O295    1.303   .     A
C245   C246    1.433   .     S
C246   O297    1.287   .     A
C246   O296    1.292   .     A
C247   O298    1.296   .     A
C247   O299    1.300   .     A
C247   C249    1.465   .     S
C248   C260    1.410   .     A
C248   C264    1.395   .     A
C248   F328    1.358   .     S
C249   C264    1.397   .     A
C249   C263    1.395   .     A
C250   O300    1.383   .     S
C250   C251    1.392   .     A
C251   C793    1.405   .     S
C252   C258    1.422   .     A
C252   C793    1.430   .     S
C252   C799    1.430   .     S
C253   O290    1.390   .     S
C253   C792    1.430   1_554 S
C253   C791    1.405   1_554 S
C254   H286    1.106   .     S
C254   H285    1.111   .     S
C254   H284    1.114   .     S
C254   O360    1.411   .     S
C255   H272    1.108   .     S
C255   H270    1.115   .     S
C255   O290    1.415   .     S
C256   O291    1.413   .     S
C256   H273    1.114   .     S
C256   H275    1.112   .     S
C256   H274    1.107   .     S
C257   H277    1.111   .     S
C257   O292    1.412   .     S
C257   H278    1.108   .     S
C258   C262    1.419   .     A
C259   C260    1.422   .     A
C259   C263    1.405   .     A
C259   C792    1.430   1_554 S
C260   C801    1.395   1_554 S
C261   C262    1.392   .     A
C261   H281    1.084   .     S
C261   C800    1.395   .     S
C262   O291    1.383   .     S
C263   H282    1.075   .     S
C264   H269    1.083   .     S
Cu265  O296    1.961   .     S
Cu265  N288    2.020   .     S
Cu265  O294    1.926   .     S
Cu265  O289    1.965   .     S
Cu265  O298    1.905   .     S
Cu265  Cu266   2.688   .     S
Cu266  O299    1.926   .     S
Cu266  O295    1.905   .     S
Cu266  N287    2.020   .     S
Cu266  O297    1.965   .     S
Cu266  O293    1.961   .     S
F267   N348    1.334   .     S
H271   C315    1.111   .     S
H276   C437    1.110   .     S
H279   C425    1.088   .     S
H283   C311    1.082   .     S
N287   H340    1.029   .     S
N287   N348    1.281   .     S
C301   O353    1.282   .     A
C301   O349    1.295   .     A
C301   C303    1.432   .     S
C302   C318    1.418   .     A
C302   C304    1.482   .     S
C302   C310    1.408   .     A
C303   C485    1.340   .     S
C303   O532    1.391   .     S
C304   O354    1.298   .     A
C304   O355    1.303   .     A
C305   C306    1.433   .     S
C306   O357    1.287   .     A
C306   O356    1.292   .     A
C307   O358    1.296   .     A
C307   O359    1.300   .     A
C307   C309    1.465   .     S
C308   C320    1.410   .     A
C308   C324    1.395   .     A
C308   F208    1.358   1_655 S
C309   C324    1.397   .     A
C309   C323    1.395   .     A
C310   O360    1.383   .     S
C310   C311    1.392   .     A
C311   C853    1.405   .     S
C312   C318    1.422   .     A
C312   C853    1.430   .     S
C312   C859    1.430   .     S
C313   O350    1.390   .     S
C313   C852    1.430   1_554 S
C313   C851    1.405   1_554 S
C314   H346    1.106   .     S
C314   H345    1.111   .     S
C314   H344    1.114   .     S
C314   O240    1.411   1_655 S
C315   H332    1.108   .     S
C315   H330    1.115   .     S
C315   O350    1.415   .     S
C316   O351    1.413   .     S
C316   H333    1.114   .     S
C316   H335    1.112   .     S
C316   H334    1.107   .     S
C317   H337    1.111   .     S
C317   O352    1.412   .     S
C317   H338    1.108   .     S
C318   C322    1.419   .     A
C319   C320    1.422   .     A
C319   C323    1.405   .     A
C319   C852    1.430   1_554 S
C320   C861    1.395   1_554 S
C321   C322    1.392   .     A
C321   H341    1.084   .     S
C321   C860    1.395   .     S
C322   O351    1.383   .     S
C323   H342    1.075   .     S
C324   H329    1.083   .     S
Cu325  O356    1.961   .     S
Cu325  N348    2.020   .     S
Cu325  O354    1.926   .     S
Cu325  O349    1.965   .     S
Cu325  O358    1.905   .     S
Cu325  Cu326   2.688   .     S
Cu326  O359    1.926   .     S
Cu326  O355    1.905   .     S
Cu326  N347    2.020   .     S
Cu326  O357    1.965   .     S
Cu326  O353    1.961   .     S
F327   N228    1.334   1_655 S
H331   C195    1.111   1_655 S
H336   C497    1.110   .     S
H339   C485    1.088   .     S
H343   C191    1.082   1_655 S
N347   H220    1.029   1_655 S
N347   N228    1.281   1_655 S
C361   O413    1.282   .     A
C361   O409    1.295   .     A
C361   C363    1.432   .     S
C362   C378    1.418   .     A
C362   C364    1.482   .     S
C362   C370    1.408   .     A
C363   C5      1.340   1_565 S
C363   O52     1.391   1_565 S
C364   O414    1.298   .     A
C364   O415    1.303   .     A
C365   C366    1.433   .     S
C366   O417    1.287   .     A
C366   O416    1.292   .     A
C367   O418    1.296   .     A
C367   O419    1.300   .     A
C367   C369    1.465   .     S
C368   C380    1.410   .     A
C368   C384    1.395   .     A
C368   F448    1.358   .     S
C369   C384    1.397   .     A
C369   C383    1.395   .     A
C370   O420    1.383   .     S
C370   C371    1.392   .     A
C371   C913    1.405   .     S
C371   H523    1.082   1_455 S
C372   C378    1.422   .     A
C372   C913    1.430   .     S
C372   C919    1.430   .     S
C373   O410    1.390   .     S
C373   C912    1.430   1_554 S
C373   C911    1.405   1_554 S
C374   H406    1.106   .     S
C374   H405    1.111   .     S
C374   H404    1.114   .     S
C374   O480    1.411   .     S
C375   H392    1.108   .     S
C375   H390    1.115   .     S
C375   O410    1.415   .     S
C375   H511    1.111   1_455 S
C376   O411    1.413   .     S
C376   H393    1.114   .     S
C376   H395    1.112   .     S
C376   H394    1.107   .     S
C377   H397    1.111   .     S
C377   O412    1.412   .     S
C377   H398    1.108   .     S
C378   C382    1.419   .     A
C379   C380    1.422   .     A
C379   C383    1.405   .     A
C379   C912    1.430   1_554 S
C380   C921    1.395   1_554 S
C381   C382    1.392   .     A
C381   H401    1.084   .     S
C381   C920    1.395   .     S
C382   O411    1.383   .     S
C383   H402    1.075   .     S
C384   H389    1.083   .     S
Cu385  O416    1.961   .     S
Cu385  N408    2.020   .     S
Cu385  O414    1.926   .     S
Cu385  O409    1.965   .     S
Cu385  O418    1.905   .     S
Cu385  Cu386   2.688   .     S
Cu386  O419    1.926   .     S
Cu386  O415    1.905   .     S
Cu386  N407    2.020   .     S
Cu386  O417    1.965   .     S
Cu386  O413    1.961   .     S
F387   N468    1.334   .     S
F388   C488    1.358   1_455 S
H391   C435    1.111   .     S
H396   C17     1.110   1_565 S
H399   C5      1.088   1_565 S
H400   N527    1.029   1_455 S
H403   C431    1.082   .     S
N407   H460    1.029   .     S
N407   N468    1.281   .     S
N408   N527    1.281   1_455 S
N408   F507    1.334   1_455 S
O420   C494    1.411   1_455 S
C421   O473    1.282   .     A
C421   O469    1.295   .     A
C421   C423    1.432   .     S
C422   C438    1.418   .     A
C422   C424    1.482   .     S
C422   C430    1.408   .     A
C423   C65     1.340   1_565 S
C423   O112    1.391   1_565 S
C424   O474    1.298   .     A
C424   O475    1.303   .     A
C425   C426    1.433   .     S
C426   O477    1.287   .     A
C426   O476    1.292   .     A
C427   O478    1.296   .     A
C427   O479    1.300   .     A
C427   C429    1.465   .     S
C428   C440    1.410   .     A
C428   C444    1.395   .     A
C428   F508    1.358   .     S
C429   C444    1.397   .     A
C429   C443    1.395   .     A
C430   O480    1.383   .     S
C430   C431    1.392   .     A
C431   C973    1.405   .     S
C432   C438    1.422   .     A
C432   C973    1.430   .     S
C432   C979    1.430   .     S
C433   O470    1.390   .     S
C433   C972    1.430   1_554 S
C433   C971    1.405   1_554 S
C434   H466    1.106   .     S
C434   H465    1.111   .     S
C434   H464    1.114   .     S
C434   O540    1.411   .     S
C435   H452    1.108   .     S
C435   H450    1.115   .     S
C435   O470    1.415   .     S
C436   O471    1.413   .     S
C436   H453    1.114   .     S
C436   H455    1.112   .     S
C436   H454    1.107   .     S
C437   H457    1.111   .     S
C437   O472    1.412   .     S
C437   H458    1.108   .     S
C438   C442    1.419   .     A
C439   C440    1.422   .     A
C439   C443    1.405   .     A
C439   C972    1.430   1_554 S
C440   C981    1.395   1_554 S
C441   C442    1.392   .     A
C441   H461    1.084   .     S
C441   C980    1.395   .     S
C442   O471    1.383   .     S
C443   H462    1.075   .     S
C444   H449    1.083   .     S
Cu445  O476    1.961   .     S
Cu445  N468    2.020   .     S
Cu445  O474    1.926   .     S
Cu445  O469    1.965   .     S
Cu445  O478    1.905   .     S
Cu445  Cu446   2.688   .     S
Cu446  O479    1.926   .     S
Cu446  O475    1.905   .     S
Cu446  N467    2.020   .     S
Cu446  O477    1.965   .     S
Cu446  O473    1.961   .     S
F447   N528    1.334   .     S
H451   C495    1.111   .     S
H456   C77     1.110   1_565 S
H459   C65     1.088   1_565 S
H463   C491    1.082   .     S
N467   H520    1.029   .     S
N467   N528    1.281   .     S
C481   O533    1.282   .     A
C481   O529    1.295   .     A
C481   C483    1.432   .     S
C482   C498    1.418   .     A
C482   C484    1.482   .     S
C482   C490    1.408   .     A
C483   C125    1.340   1_565 S
C483   O172    1.391   1_565 S
C484   O534    1.298   .     A
C484   O535    1.303   .     A
C485   C486    1.433   .     S
C486   O537    1.287   .     A
C486   O536    1.292   .     A
C487   O538    1.296   .     A
C487   O539    1.300   .     A
C487   C489    1.465   .     S
C488   C500    1.410   .     A
C488   C504    1.395   .     A
C488   F388    1.358   1_655 S
C489   C504    1.397   .     A
C489   C503    1.395   .     A
C490   O540    1.383   .     S
C490   C491    1.392   .     A
C491   C1033   1.405   .     S
C492   C498    1.422   .     A
C492   C1033   1.430   .     S
C492   C1039   1.430   .     S
C493   O530    1.390   .     S
C493   C1032   1.430   1_554 S
C493   C1031   1.405   1_554 S
C494   H526    1.106   .     S
C494   H525    1.111   .     S
C494   H524    1.114   .     S
C494   O420    1.411   1_655 S
C495   H512    1.108   .     S
C495   H510    1.115   .     S
C495   O530    1.415   .     S
C496   O531    1.413   .     S
C496   H513    1.114   .     S
C496   H515    1.112   .     S
C496   H514    1.107   .     S
C497   H517    1.111   .     S
C497   O532    1.412   .     S
C497   H518    1.108   .     S
C498   C502    1.419   .     A
C499   C500    1.422   .     A
C499   C503    1.405   .     A
C499   C1032   1.430   1_554 S
C500   C1041   1.395   1_554 S
C501   C502    1.392   .     A
C501   H521    1.084   .     S
C501   C1040   1.395   .     S
C502   O531    1.383   .     S
C503   H522    1.075   .     S
C504   H509    1.083   .     S
Cu505  O536    1.961   .     S
Cu505  N528    2.020   .     S
Cu505  O534    1.926   .     S
Cu505  O529    1.965   .     S
Cu505  O538    1.905   .     S
Cu505  Cu506   2.688   .     S
Cu506  O539    1.926   .     S
Cu506  O535    1.905   .     S
Cu506  N527    2.020   .     S
Cu506  O537    1.965   .     S
Cu506  O533    1.961   .     S
F507   N408    1.334   1_655 S
H511   C375    1.111   1_655 S
H516   C137    1.110   1_565 S
H519   C125    1.088   1_565 S
H523   C371    1.082   1_655 S
N527   H400    1.029   1_655 S
N527   N408    1.281   1_655 S
C541   O593    1.282   .     A
C541   O589    1.295   .     A
C541   C543    1.432   .     S
C542   C558    1.418   .     A
C542   C544    1.482   .     S
C542   C550    1.408   .     A
C543   C725    1.340   .     S
C543   O772    1.391   .     S
C544   O594    1.298   .     A
C544   O595    1.303   .     A
C545   C546    1.433   .     S
C545   C903    1.340   1_545 S
C545   H939    1.088   1_545 S
C546   O597    1.287   .     A
C546   O596    1.292   .     A
C547   O598    1.296   .     A
C547   O599    1.300   .     A
C547   C549    1.465   .     S
C548   C560    1.410   .     A
C548   C564    1.395   .     A
C548   F628    1.358   .     S
C549   C564    1.397   .     A
C549   C563    1.395   .     A
C550   O600    1.383   .     S
C550   C551    1.392   .     A
C551   C13     1.405   1_556 S
C551   H703    1.082   1_455 S
C552   C558    1.422   .     A
C552   C13     1.430   1_556 S
C552   C19     1.430   1_556 S
C553   O590    1.390   .     S
C554   H586    1.106   .     S
C554   H585    1.111   .     S
C554   H584    1.114   .     S
C554   O660    1.411   .     S
C555   H572    1.108   .     S
C555   H570    1.115   .     S
C555   O590    1.415   .     S
C555   H691    1.111   1_455 S
C556   O591    1.413   .     S
C556   H573    1.114   .     S
C556   H575    1.112   .     S
C556   H574    1.107   .     S
C557   H577    1.111   .     S
C557   O592    1.412   .     S
C557   H578    1.108   .     S
C557   H936    1.110   1_545 S
C558   C562    1.419   .     A
C559   C560    1.422   .     A
C559   C563    1.405   .     A
C561   C562    1.392   .     A
C561   H581    1.084   .     S
C561   C20     1.395   1_556 S
C562   O591    1.383   .     S
C563   H582    1.075   .     S
C564   H569    1.083   .     S
Cu565  O596    1.961   .     S
Cu565  N588    2.020   .     S
Cu565  O594    1.926   .     S
Cu565  O589    1.965   .     S
Cu565  O598    1.905   .     S
Cu565  Cu566   2.688   .     S
Cu566  O599    1.926   .     S
Cu566  O595    1.905   .     S
Cu566  N587    2.020   .     S
Cu566  O597    1.965   .     S
Cu566  O593    1.961   .     S
F567   N648    1.334   .     S
F568   C668    1.358   1_455 S
H571   C615    1.111   .     S
H576   C737    1.110   .     S
H579   C725    1.088   .     S
H580   N707    1.029   1_455 S
H583   C611    1.082   .     S
N587   H640    1.029   .     S
N587   N648    1.281   .     S
N588   N707    1.281   1_455 S
N588   F687    1.334   1_455 S
O592   C903    1.391   1_545 S
O600   C674    1.411   1_455 S
C601   O653    1.282   .     A
C601   O649    1.295   .     A
C601   C603    1.432   .     S
C602   C618    1.418   .     A
C602   C604    1.482   .     S
C602   C610    1.408   .     A
C603   C785    1.340   .     S
C603   O832    1.391   .     S
C604   O654    1.298   .     A
C604   O655    1.303   .     A
C605   C606    1.433   .     S
C605   C963    1.340   1_545 S
C605   H999    1.088   1_545 S
C606   O657    1.287   .     A
C606   O656    1.292   .     A
C607   O658    1.296   .     A
C607   O659    1.300   .     A
C607   C609    1.465   .     S
C608   C620    1.410   .     A
C608   C624    1.395   .     A
C608   F688    1.358   .     S
C609   C624    1.397   .     A
C609   C623    1.395   .     A
C610   O660    1.383   .     S
C610   C611    1.392   .     A
C611   C73     1.405   1_556 S
C612   C618    1.422   .     A
C612   C73     1.430   1_556 S
C612   C79     1.430   1_556 S
C613   O650    1.390   .     S
C614   H646    1.106   .     S
C614   H645    1.111   .     S
C614   H644    1.114   .     S
C614   O720    1.411   .     S
C615   H632    1.108   .     S
C615   H630    1.115   .     S
C615   O650    1.415   .     S
C616   O651    1.413   .     S
C616   H633    1.114   .     S
C616   H635    1.112   .     S
C616   H634    1.107   .     S
C617   H637    1.111   .     S
C617   O652    1.412   .     S
C617   H638    1.108   .     S
C617   H996    1.110   1_545 S
C618   C622    1.419   .     A
C619   C620    1.422   .     A
C619   C623    1.405   .     A
C621   C622    1.392   .     A
C621   H641    1.084   .     S
C621   C80     1.395   1_556 S
C622   O651    1.383   .     S
C623   H642    1.075   .     S
C624   H629    1.083   .     S
Cu625  O656    1.961   .     S
Cu625  N648    2.020   .     S
Cu625  O654    1.926   .     S
Cu625  O649    1.965   .     S
Cu625  O658    1.905   .     S
Cu625  Cu626   2.688   .     S
Cu626  O659    1.926   .     S
Cu626  O655    1.905   .     S
Cu626  N647    2.020   .     S
Cu626  O657    1.965   .     S
Cu626  O653    1.961   .     S
F627   N708    1.334   .     S
H631   C675    1.111   .     S
H636   C797    1.110   .     S
H639   C785    1.088   .     S
H643   C671    1.082   .     S
N647   H700    1.029   .     S
N647   N708    1.281   .     S
O652   C963    1.391   1_545 S
C661   O713    1.282   .     A
C661   O709    1.295   .     A
C661   C663    1.432   .     S
C662   C678    1.418   .     A
C662   C664    1.482   .     S
C662   C670    1.408   .     A
C663   C845    1.340   .     S
C663   O892    1.391   .     S
C664   O714    1.298   .     A
C664   O715    1.303   .     A
C665   C666    1.433   .     S
C665   C1023   1.340   1_545 S
C665   H1059   1.088   1_545 S
C666   O717    1.287   .     A
C666   O716    1.292   .     A
C667   O718    1.296   .     A
C667   O719    1.300   .     A
C667   C669    1.465   .     S
C668   C680    1.410   .     A
C668   C684    1.395   .     A
C668   F568    1.358   1_655 S
C669   C684    1.397   .     A
C669   C683    1.395   .     A
C670   O720    1.383   .     S
C670   C671    1.392   .     A
C671   C133    1.405   1_556 S
C672   C678    1.422   .     A
C672   C133    1.430   1_556 S
C672   C139    1.430   1_556 S
C673   O710    1.390   .     S
C674   H706    1.106   .     S
C674   H705    1.111   .     S
C674   H704    1.114   .     S
C674   O600    1.411   1_655 S
C675   H692    1.108   .     S
C675   H690    1.115   .     S
C675   O710    1.415   .     S
C676   O711    1.413   .     S
C676   H693    1.114   .     S
C676   H695    1.112   .     S
C676   H694    1.107   .     S
C677   H697    1.111   .     S
C677   O712    1.412   .     S
C677   H698    1.108   .     S
C677   H1056   1.110   1_545 S
C678   C682    1.419   .     A
C679   C680    1.422   .     A
C679   C683    1.405   .     A
C681   C682    1.392   .     A
C681   H701    1.084   .     S
C681   C140    1.395   1_556 S
C682   O711    1.383   .     S
C683   H702    1.075   .     S
C684   H689    1.083   .     S
Cu685  O716    1.961   .     S
Cu685  N708    2.020   .     S
Cu685  O714    1.926   .     S
Cu685  O709    1.965   .     S
Cu685  O718    1.905   .     S
Cu685  Cu686   2.688   .     S
Cu686  O719    1.926   .     S
Cu686  O715    1.905   .     S
Cu686  N707    2.020   .     S
Cu686  O717    1.965   .     S
Cu686  O713    1.961   .     S
F687   N588    1.334   1_655 S
H691   C555    1.111   1_655 S
H696   C857    1.110   .     S
H699   C845    1.088   .     S
H703   C551    1.082   1_655 S
N707   H580    1.029   1_655 S
N707   N588    1.281   1_655 S
O712   C1023   1.391   1_545 S
C721   O773    1.282   .     A
C721   O769    1.295   .     A
C721   C723    1.432   .     S
C722   C738    1.418   .     A
C722   C724    1.482   .     S
C722   C730    1.408   .     A
C723   C905    1.340   .     S
C723   O952    1.391   .     S
C724   O774    1.298   .     A
C724   O775    1.303   .     A
C725   C726    1.433   .     S
C726   O777    1.287   .     A
C726   O776    1.292   .     A
C727   O778    1.296   .     A
C727   O779    1.300   .     A
C727   C729    1.465   .     S
C728   C740    1.410   .     A
C728   C744    1.395   .     A
C728   F808    1.358   .     S
C729   C744    1.397   .     A
C729   C743    1.395   .     A
C730   O780    1.383   .     S
C730   C731    1.392   .     A
C731   C193    1.405   1_556 S
C731   H883    1.082   1_455 S
C732   C738    1.422   .     A
C732   C193    1.430   1_556 S
C732   C199    1.430   1_556 S
C733   O770    1.390   .     S
C734   H766    1.106   .     S
C734   H765    1.111   .     S
C734   H764    1.114   .     S
C734   O840    1.411   .     S
C735   H752    1.108   .     S
C735   H750    1.115   .     S
C735   O770    1.415   .     S
C735   H871    1.111   1_455 S
C736   O771    1.413   .     S
C736   H753    1.114   .     S
C736   H755    1.112   .     S
C736   H754    1.107   .     S
C737   H757    1.111   .     S
C737   O772    1.412   .     S
C737   H758    1.108   .     S
C738   C742    1.419   .     A
C739   C740    1.422   .     A
C739   C743    1.405   .     A
C741   C742    1.392   .     A
C741   H761    1.084   .     S
C741   C200    1.395   1_556 S
C742   O771    1.383   .     S
C743   H762    1.075   .     S
C744   H749    1.083   .     S
Cu745  O776    1.961   .     S
Cu745  N768    2.020   .     S
Cu745  O774    1.926   .     S
Cu745  O769    1.965   .     S
Cu745  O778    1.905   .     S
Cu745  Cu746   2.688   .     S
Cu746  O779    1.926   .     S
Cu746  O775    1.905   .     S
Cu746  N767    2.020   .     S
Cu746  O777    1.965   .     S
Cu746  O773    1.961   .     S
F747   N828    1.334   .     S
F748   C848    1.358   1_455 S
H751   C795    1.111   .     S
H756   C917    1.110   .     S
H759   C905    1.088   .     S
H760   N887    1.029   1_455 S
H763   C791    1.082   .     S
N767   H820    1.029   .     S
N767   N828    1.281   .     S
N768   N887    1.281   1_455 S
N768   F867    1.334   1_455 S
O780   C854    1.411   1_455 S
C781   O833    1.282   .     A
C781   O829    1.295   .     A
C781   C783    1.432   .     S
C782   C798    1.418   .     A
C782   C784    1.482   .     S
C782   C790    1.408   .     A
C783   C965    1.340   .     S
C783   O1012   1.391   .     S
C784   O834    1.298   .     A
C784   O835    1.303   .     A
C785   C786    1.433   .     S
C786   O837    1.287   .     A
C786   O836    1.292   .     A
C787   O838    1.296   .     A
C787   O839    1.300   .     A
C787   C789    1.465   .     S
C788   C800    1.410   .     A
C788   C804    1.395   .     A
C788   F868    1.358   .     S
C789   C804    1.397   .     A
C789   C803    1.395   .     A
C790   O840    1.383   .     S
C790   C791    1.392   .     A
C791   C253    1.405   1_556 S
C792   C798    1.422   .     A
C792   C253    1.430   1_556 S
C792   C259    1.430   1_556 S
C793   O830    1.390   .     S
C794   H826    1.106   .     S
C794   H825    1.111   .     S
C794   H824    1.114   .     S
C794   O900    1.411   .     S
C795   H812    1.108   .     S
C795   H810    1.115   .     S
C795   O830    1.415   .     S
C796   O831    1.413   .     S
C796   H813    1.114   .     S
C796   H815    1.112   .     S
C796   H814    1.107   .     S
C797   H817    1.111   .     S
C797   O832    1.412   .     S
C797   H818    1.108   .     S
C798   C802    1.419   .     A
C799   C800    1.422   .     A
C799   C803    1.405   .     A
C801   C802    1.392   .     A
C801   H821    1.084   .     S
C801   C260    1.395   1_556 S
C802   O831    1.383   .     S
C803   H822    1.075   .     S
C804   H809    1.083   .     S
Cu805  O836    1.961   .     S
Cu805  N828    2.020   .     S
Cu805  O834    1.926   .     S
Cu805  O829    1.965   .     S
Cu805  O838    1.905   .     S
Cu805  Cu806   2.688   .     S
Cu806  O839    1.926   .     S
Cu806  O835    1.905   .     S
Cu806  N827    2.020   .     S
Cu806  O837    1.965   .     S
Cu806  O833    1.961   .     S
F807   N888    1.334   .     S
H811   C855    1.111   .     S
H816   C977    1.110   .     S
H819   C965    1.088   .     S
H823   C851    1.082   .     S
N827   H880    1.029   .     S
N827   N888    1.281   .     S
C841   O893    1.282   .     A
C841   O889    1.295   .     A
C841   C843    1.432   .     S
C842   C858    1.418   .     A
C842   C844    1.482   .     S
C842   C850    1.408   .     A
C843   C1025   1.340   .     S
C843   O1072   1.391   .     S
C844   O894    1.298   .     A
C844   O895    1.303   .     A
C845   C846    1.433   .     S
C846   O897    1.287   .     A
C846   O896    1.292   .     A
C847   O898    1.296   .     A
C847   O899    1.300   .     A
C847   C849    1.465   .     S
C848   C860    1.410   .     A
C848   C864    1.395   .     A
C848   F748    1.358   1_655 S
C849   C864    1.397   .     A
C849   C863    1.395   .     A
C850   O900    1.383   .     S
C850   C851    1.392   .     A
C851   C313    1.405   1_556 S
C852   C858    1.422   .     A
C852   C313    1.430   1_556 S
C852   C319    1.430   1_556 S
C853   O890    1.390   .     S
C854   H886    1.106   .     S
C854   H885    1.111   .     S
C854   H884    1.114   .     S
C854   O780    1.411   1_655 S
C855   H872    1.108   .     S
C855   H870    1.115   .     S
C855   O890    1.415   .     S
C856   O891    1.413   .     S
C856   H873    1.114   .     S
C856   H875    1.112   .     S
C856   H874    1.107   .     S
C857   H877    1.111   .     S
C857   O892    1.412   .     S
C857   H878    1.108   .     S
C858   C862    1.419   .     A
C859   C860    1.422   .     A
C859   C863    1.405   .     A
C861   C862    1.392   .     A
C861   H881    1.084   .     S
C861   C320    1.395   1_556 S
C862   O891    1.383   .     S
C863   H882    1.075   .     S
C864   H869    1.083   .     S
Cu865  O896    1.961   .     S
Cu865  N888    2.020   .     S
Cu865  O894    1.926   .     S
Cu865  O889    1.965   .     S
Cu865  O898    1.905   .     S
Cu865  Cu866   2.688   .     S
Cu866  O899    1.926   .     S
Cu866  O895    1.905   .     S
Cu866  N887    2.020   .     S
Cu866  O897    1.965   .     S
Cu866  O893    1.961   .     S
F867   N768    1.334   1_655 S
H871   C735    1.111   1_655 S
H876   C1037   1.110   .     S
H879   C1025   1.088   .     S
H883   C731    1.082   1_655 S
N887   H760    1.029   1_655 S
N887   N768    1.281   1_655 S
C901   O953    1.282   .     A
C901   O949    1.295   .     A
C901   C903    1.432   .     S
C902   C918    1.418   .     A
C902   C904    1.482   .     S
C902   C910    1.408   .     A
C903   C545    1.340   1_565 S
C903   O592    1.391   1_565 S
C904   O954    1.298   .     A
C904   O955    1.303   .     A
C905   C906    1.433   .     S
C906   O957    1.287   .     A
C906   O956    1.292   .     A
C907   O958    1.296   .     A
C907   O959    1.300   .     A
C907   C909    1.465   .     S
C908   C920    1.410   .     A
C908   C924    1.395   .     A
C908   F988    1.358   .     S
C909   C924    1.397   .     A
C909   C923    1.395   .     A
C910   O960    1.383   .     S
C910   C911    1.392   .     A
C911   C373    1.405   1_556 S
C911   H1063   1.082   1_455 S
C912   C918    1.422   .     A
C912   C373    1.430   1_556 S
C912   C379    1.430   1_556 S
C913   O950    1.390   .     S
C914   H946    1.106   .     S
C914   H945    1.111   .     S
C914   H944    1.114   .     S
C914   O1020   1.411   .     S
C915   H932    1.108   .     S
C915   H930    1.115   .     S
C915   O950    1.415   .     S
C915   H1051   1.111   1_455 S
C916   O951    1.413   .     S
C916   H933    1.114   .     S
C916   H935    1.112   .     S
C916   H934    1.107   .     S
C917   H937    1.111   .     S
C917   O952    1.412   .     S
C917   H938    1.108   .     S
C918   C922    1.419   .     A
C919   C920    1.422   .     A
C919   C923    1.405   .     A
C921   C922    1.392   .     A
C921   H941    1.084   .     S
C921   C380    1.395   1_556 S
C922   O951    1.383   .     S
C923   H942    1.075   .     S
C924   H929    1.083   .     S
Cu925  O956    1.961   .     S
Cu925  N948    2.020   .     S
Cu925  O954    1.926   .     S
Cu925  O949    1.965   .     S
Cu925  O958    1.905   .     S
Cu925  Cu926   2.688   .     S
Cu926  O959    1.926   .     S
Cu926  O955    1.905   .     S
Cu926  N947    2.020   .     S
Cu926  O957    1.965   .     S
Cu926  O953    1.961   .     S
F927   N1008   1.334   .     S
F928   C1028   1.358   1_455 S
H931   C975    1.111   .     S
H936   C557    1.110   1_565 S
H939   C545    1.088   1_565 S
H940   N1067   1.029   1_455 S
H943   C971    1.082   .     S
N947   H1000   1.029   .     S
N947   N1008   1.281   .     S
N948   N1067   1.281   1_455 S
N948   F1047   1.334   1_455 S
O960   C1034   1.411   1_455 S
C961   O1013   1.282   .     A
C961   O1009   1.295   .     A
C961   C963    1.432   .     S
C962   C978    1.418   .     A
C962   C964    1.482   .     S
C962   C970    1.408   .     A
C963   C605    1.340   1_565 S
C963   O652    1.391   1_565 S
C964   O1014   1.298   .     A
C964   O1015   1.303   .     A
C965   C966    1.433   .     S
C966   O1017   1.287   .     A
C966   O1016   1.292   .     A
C967   O1018   1.296   .     A
C967   O1019   1.300   .     A
C967   C969    1.465   .     S
C968   C980    1.410   .     A
C968   C984    1.395   .     A
C968   F1048   1.358   .     S
C969   C984    1.397   .     A
C969   C983    1.395   .     A
C970   O1020   1.383   .     S
C970   C971    1.392   .     A
C971   C433    1.405   1_556 S
C972   C978    1.422   .     A
C972   C433    1.430   1_556 S
C972   C439    1.430   1_556 S
C973   O1010   1.390   .     S
C974   H1006   1.106   .     S
C974   H1005   1.111   .     S
C974   H1004   1.114   .     S
C974   O1080   1.411   .     S
C975   H992    1.108   .     S
C975   H990    1.115   .     S
C975   O1010   1.415   .     S
C976   O1011   1.413   .     S
C976   H993    1.114   .     S
C976   H995    1.112   .     S
C976   H994    1.107   .     S
C977   H997    1.111   .     S
C977   O1012   1.412   .     S
C977   H998    1.108   .     S
C978   C982    1.419   .     A
C979   C980    1.422   .     A
C979   C983    1.405   .     A
C981   C982    1.392   .     A
C981   H1001   1.084   .     S
C981   C440    1.395   1_556 S
C982   O1011   1.383   .     S
C983   H1002   1.075   .     S
C984   H989    1.083   .     S
Cu985  O1016   1.961   .     S
Cu985  N1008   2.020   .     S
Cu985  O1014   1.926   .     S
Cu985  O1009   1.965   .     S
Cu985  O1018   1.905   .     S
Cu985  Cu986   2.688   .     S
Cu986  O1019   1.926   .     S
Cu986  O1015   1.905   .     S
Cu986  N1007   2.020   .     S
Cu986  O1017   1.965   .     S
Cu986  O1013   1.961   .     S
F987   N1068   1.334   .     S
H991   C1035   1.111   .     S
H996   C617    1.110   1_565 S
H999   C605    1.088   1_565 S
H1003  C1031   1.082   .     S
N1007  H1060   1.029   .     S
N1007  N1068   1.281   .     S
C1021  O1073   1.282   .     A
C1021  O1069   1.295   .     A
C1021  C1023   1.432   .     S
C1022  C1038   1.418   .     A
C1022  C1024   1.482   .     S
C1022  C1030   1.408   .     A
C1023  C665    1.340   1_565 S
C1023  O712    1.391   1_565 S
C1024  O1074   1.298   .     A
C1024  O1075   1.303   .     A
C1025  C1026   1.433   .     S
C1026  O1077   1.287   .     A
C1026  O1076   1.292   .     A
C1027  O1078   1.296   .     A
C1027  O1079   1.300   .     A
C1027  C1029   1.465   .     S
C1028  C1040   1.410   .     A
C1028  C1044   1.395   .     A
C1028  F928    1.358   1_655 S
C1029  C1044   1.397   .     A
C1029  C1043   1.395   .     A
C1030  O1080   1.383   .     S
C1030  C1031   1.392   .     A
C1031  C493    1.405   1_556 S
C1032  C1038   1.422   .     A
C1032  C493    1.430   1_556 S
C1032  C499    1.430   1_556 S
C1033  O1070   1.390   .     S
C1034  H1066   1.106   .     S
C1034  H1065   1.111   .     S
C1034  H1064   1.114   .     S
C1034  O960    1.411   1_655 S
C1035  H1052   1.108   .     S
C1035  H1050   1.115   .     S
C1035  O1070   1.415   .     S
C1036  O1071   1.413   .     S
C1036  H1053   1.114   .     S
C1036  H1055   1.112   .     S
C1036  H1054   1.107   .     S
C1037  H1057   1.111   .     S
C1037  O1072   1.412   .     S
C1037  H1058   1.108   .     S
C1038  C1042   1.419   .     A
C1039  C1040   1.422   .     A
C1039  C1043   1.405   .     A
C1041  C1042   1.392   .     A
C1041  H1061   1.084   .     S
C1041  C500    1.395   1_556 S
C1042  O1071   1.383   .     S
C1043  H1062   1.075   .     S
C1044  H1049   1.083   .     S
Cu1045 O1076   1.961   .     S
Cu1045 N1068   2.020   .     S
Cu1045 O1074   1.926   .     S
Cu1045 O1069   1.965   .     S
Cu1045 O1078   1.905   .     S
Cu1045 Cu1046  2.688   .     S
Cu1046 O1079   1.926   .     S
Cu1046 O1075   1.905   .     S
Cu1046 N1067   2.020   .     S
Cu1046 O1077   1.965   .     S
Cu1046 O1073   1.961   .     S
F1047  N948    1.334   1_655 S
H1051  C915    1.111   1_655 S
H1056  C677    1.110   1_565 S
H1059  C665    1.088   1_565 S
H1063  C911    1.082   1_655 S
N1067  H940    1.029   1_655 S
N1067  N948    1.281   1_655 S
