data_str_m2_o1_o16_pcu_sym.200
_audit_creation_date              2020-01-03
_audit_creation_method            'Materials Studio'
_symmetry_space_group_name_H-M    'P1'
_symmetry_Int_Tables_number       1
_symmetry_cell_setting            triclinic
loop_
_symmetry_equiv_pos_as_xyz
  x,y,z
_cell_length_a                    28.5411
_cell_length_b                    32.4278
_cell_length_c                    26.8581
_cell_angle_alpha                 90.4701
_cell_angle_beta                  71.9290
_cell_angle_gamma                 90.5490
loop_
_atom_site_label
_atom_site_type_symbol
_atom_site_fract_x
_atom_site_fract_y
_atom_site_fract_z
_atom_site_U_iso_or_equiv
_atom_site_adp_type
_atom_site_occupancy
C1     C     0.16743   0.24586   0.24817   0.00000  Uiso   1.00
C2     C     0.14399   0.16067   0.49037   0.00000  Uiso   1.00
C3     C     0.15517   0.15090   0.43648   0.00000  Uiso   1.00
C4     C     0.18069   0.15476   0.01537   0.00000  Uiso   1.00
C5     C     0.22582   0.13543   0.48778   0.00000  Uiso   1.00
C6     C     0.23352   0.12061   0.43671   0.00000  Uiso   1.00
C7     C     0.19776   0.12766   0.41210   0.00000  Uiso   1.00
C8     C     0.17405   0.16814   0.06693   0.00000  Uiso   1.00
C9     C     0.25535   0.14409   0.06323   0.00000  Uiso   1.00
C10    C     0.12303   0.16397   0.40849   0.00000  Uiso   1.00
C11    C     0.19494   0.31228   0.27283   0.00000  Uiso   1.00
C12    C     0.14001   0.16511   0.35040   0.00000  Uiso   1.00
C13    C     0.19409   0.02156   0.27382   0.00000  Uiso   1.00
C14    C     0.16634   0.04268   0.24765   0.00000  Uiso   1.00
C15    C     0.14030   0.02086   0.21879   0.00000  Uiso   1.00
C16    C     0.14330   0.31144   0.21533   0.00000  Uiso   1.00
C17    C     0.16894   0.29038   0.24469   0.00000  Uiso   1.00
C18    C     0.29890   0.19196   0.28356   0.00000  Uiso   1.00
C19    C     0.01553   0.19161   0.28349   0.00000  Uiso   1.00
C20    C     0.03428   0.14183   0.21639   0.00000  Uiso   1.00
C21    C     0.31801   0.14175   0.21650   0.00000  Uiso   1.00
C22    C     0.16659   0.08736   0.24917   0.00000  Uiso   1.00
C23    C     0.19338   0.16608   0.14960   0.00000  Uiso   1.00
C24    C     0.26265   0.13082   0.01192   0.00000  Uiso   1.00
C25    C     0.20931   0.16101   0.09212   0.00000  Uiso   1.00
C26    C     0.07590   0.17946   0.43642   0.00000  Uiso   1.00
C27    C     0.06278   0.18390   0.49085   0.00000  Uiso   1.00
C28    C     0.09637   0.17559   0.01725   0.00000  Uiso   1.00
Cu29   Cu    0.11978   0.16666   0.25000   0.00000  Uiso   1.00
Cu30   Cu    0.21355   0.16667   0.25000   0.00000  Uiso   1.00
H31    H     0.21423   0.03806   0.29604   0.00000  Uiso   1.00
H32    H     0.06060   0.12199   0.18933   0.00000  Uiso   1.00
H33    H     0.30689   0.12176   0.18968   0.00000  Uiso   1.00
H34    H     0.29769   0.11694   0.49098   0.00000  Uiso   1.00
H35    H     0.08318   0.18019   0.05904   0.00000  Uiso   1.00
H36    H     0.02668   0.19522   0.01295   0.00000  Uiso   1.00
H37    H     0.20326   0.11374   0.37406   0.00000  Uiso   1.00
H38    H     0.21508   0.29637   0.29501   0.00000  Uiso   1.00
N39    N     0.04931   0.16666   0.24999   0.00000  Uiso   1.00
N40    N     0.28402   0.16669   0.25000   0.00000  Uiso   1.00
O41    O     0.12708   0.22678   0.25001   0.00000  Uiso   1.00
O42    O     0.20627   0.22679   0.25001   0.00000  Uiso   1.00
O43    O     0.10775   0.16665   0.32549   0.00000  Uiso   1.00
O44    O     0.18694   0.16666   0.32549   0.00000  Uiso   1.00
O45    O     0.12706   0.10654   0.25000   0.00000  Uiso   1.00
O46    O     0.20625   0.10655   0.25000   0.00000  Uiso   1.00
O47    O     0.14640   0.16667   0.17451   0.00000  Uiso   1.00
O48    O     0.22559   0.16668   0.17451   0.00000  Uiso   1.00
O49    O     0.29324   0.13852   0.08399   0.00000  Uiso   1.00
H50    H     0.29680   0.16441   0.10231   0.00000  Uiso   1.00
O51    O     0.11484   0.04082   0.19040   0.00000  Uiso   1.00
H52    H     0.08570   0.05307   0.21652   0.00000  Uiso   1.00
O53    O     0.12099   0.29159   0.18285   0.00000  Uiso   1.00
H54    H     0.13860   0.26554   0.17013   0.00000  Uiso   1.00
O55    O     0.26490   0.21763   0.31687   0.00000  Uiso   1.00
H56    H     0.28127   0.23358   0.33852   0.00000  Uiso   1.00
H57    H     0.02732   0.21145   0.30998   0.00000  Uiso   1.00
O58    O     0.27627   0.09948   0.41140   0.00000  Uiso   1.00
H59    H     0.27641   0.09203   0.37547   0.00000  Uiso   1.00
H60    H     0.14125   0.18417   0.08898   0.00000  Uiso   1.00
O61    O     0.04348   0.19073   0.40998   0.00000  Uiso   1.00
H62    H     0.01227   0.20041   0.43546   0.00000  Uiso   1.00
C63    C     0.50076   0.24586   0.24817   0.00000  Uiso   1.00
C64    C     0.47732   0.16067   0.49037   0.00000  Uiso   1.00
C65    C     0.48850   0.15090   0.43648   0.00000  Uiso   1.00
C66    C     0.51402   0.15476   0.01537   0.00000  Uiso   1.00
C67    C     0.55915   0.13543   0.48778   0.00000  Uiso   1.00
C68    C     0.56685   0.12061   0.43671   0.00000  Uiso   1.00
C69    C     0.53110   0.12766   0.41210   0.00000  Uiso   1.00
C70    C     0.50739   0.16814   0.06693   0.00000  Uiso   1.00
C71    C     0.58868   0.14409   0.06323   0.00000  Uiso   1.00
C72    C     0.45636   0.16397   0.40849   0.00000  Uiso   1.00
C73    C     0.52827   0.31228   0.27283   0.00000  Uiso   1.00
C74    C     0.47334   0.16511   0.35040   0.00000  Uiso   1.00
C75    C     0.52742   0.02156   0.27382   0.00000  Uiso   1.00
C76    C     0.49967   0.04268   0.24765   0.00000  Uiso   1.00
C77    C     0.47363   0.02086   0.21879   0.00000  Uiso   1.00
C78    C     0.47663   0.31144   0.21533   0.00000  Uiso   1.00
C79    C     0.50228   0.29038   0.24469   0.00000  Uiso   1.00
C80    C     0.63223   0.19196   0.28356   0.00000  Uiso   1.00
C81    C     0.34886   0.19161   0.28349   0.00000  Uiso   1.00
C82    C     0.36762   0.14183   0.21639   0.00000  Uiso   1.00
C83    C     0.65134   0.14175   0.21650   0.00000  Uiso   1.00
C84    C     0.49993   0.08736   0.24917   0.00000  Uiso   1.00
C85    C     0.52671   0.16608   0.14960   0.00000  Uiso   1.00
C86    C     0.59598   0.13082   0.01192   0.00000  Uiso   1.00
C87    C     0.54264   0.16101   0.09212   0.00000  Uiso   1.00
C88    C     0.40923   0.17946   0.43642   0.00000  Uiso   1.00
C89    C     0.39612   0.18390   0.49085   0.00000  Uiso   1.00
C90    C     0.42970   0.17559   0.01725   0.00000  Uiso   1.00
Cu91   Cu    0.45311   0.16666   0.25000   0.00000  Uiso   1.00
Cu92   Cu    0.54689   0.16667   0.25000   0.00000  Uiso   1.00
H93    H     0.54757   0.03806   0.29604   0.00000  Uiso   1.00
H94    H     0.39394   0.12199   0.18933   0.00000  Uiso   1.00
H95    H     0.64023   0.12176   0.18968   0.00000  Uiso   1.00
H96    H     0.63102   0.11694   0.49098   0.00000  Uiso   1.00
H97    H     0.41651   0.18019   0.05904   0.00000  Uiso   1.00
H98    H     0.36001   0.19522   0.01295   0.00000  Uiso   1.00
H99    H     0.53659   0.11374   0.37406   0.00000  Uiso   1.00
H100   H     0.54842   0.29637   0.29501   0.00000  Uiso   1.00
N101   N     0.38265   0.16666   0.24999   0.00000  Uiso   1.00
N102   N     0.61735   0.16669   0.25000   0.00000  Uiso   1.00
O103   O     0.46042   0.22678   0.25001   0.00000  Uiso   1.00
O104   O     0.53961   0.22679   0.25001   0.00000  Uiso   1.00
O105   O     0.44108   0.16665   0.32549   0.00000  Uiso   1.00
O106   O     0.52027   0.16666   0.32549   0.00000  Uiso   1.00
O107   O     0.46039   0.10654   0.25000   0.00000  Uiso   1.00
O108   O     0.53958   0.10655   0.25000   0.00000  Uiso   1.00
O109   O     0.47973   0.16667   0.17451   0.00000  Uiso   1.00
O110   O     0.55892   0.16668   0.17451   0.00000  Uiso   1.00
O111   O     0.62658   0.13852   0.08399   0.00000  Uiso   1.00
H112   H     0.63013   0.16441   0.10231   0.00000  Uiso   1.00
O113   O     0.44818   0.04082   0.19040   0.00000  Uiso   1.00
H114   H     0.41903   0.05307   0.21652   0.00000  Uiso   1.00
O115   O     0.45432   0.29159   0.18285   0.00000  Uiso   1.00
H116   H     0.47193   0.26554   0.17013   0.00000  Uiso   1.00
O117   O     0.59823   0.21763   0.31687   0.00000  Uiso   1.00
H118   H     0.61461   0.23358   0.33852   0.00000  Uiso   1.00
H119   H     0.36065   0.21145   0.30998   0.00000  Uiso   1.00
O120   O     0.60961   0.09948   0.41140   0.00000  Uiso   1.00
H121   H     0.60974   0.09203   0.37547   0.00000  Uiso   1.00
H122   H     0.47458   0.18417   0.08898   0.00000  Uiso   1.00
O123   O     0.37681   0.19073   0.40998   0.00000  Uiso   1.00
H124   H     0.34560   0.20041   0.43546   0.00000  Uiso   1.00
C125   C     0.83409   0.24586   0.24817   0.00000  Uiso   1.00
C126   C     0.81066   0.16067   0.49037   0.00000  Uiso   1.00
C127   C     0.82184   0.15090   0.43648   0.00000  Uiso   1.00
C128   C     0.84736   0.15476   0.01537   0.00000  Uiso   1.00
C129   C     0.89249   0.13543   0.48778   0.00000  Uiso   1.00
C130   C     0.90018   0.12061   0.43671   0.00000  Uiso   1.00
C131   C     0.86443   0.12766   0.41210   0.00000  Uiso   1.00
C132   C     0.84072   0.16814   0.06693   0.00000  Uiso   1.00
C133   C     0.92201   0.14409   0.06323   0.00000  Uiso   1.00
C134   C     0.78969   0.16397   0.40849   0.00000  Uiso   1.00
C135   C     0.86161   0.31228   0.27283   0.00000  Uiso   1.00
C136   C     0.80668   0.16511   0.35040   0.00000  Uiso   1.00
C137   C     0.86075   0.02156   0.27382   0.00000  Uiso   1.00
C138   C     0.83301   0.04268   0.24765   0.00000  Uiso   1.00
C139   C     0.80697   0.02086   0.21879   0.00000  Uiso   1.00
C140   C     0.80997   0.31144   0.21533   0.00000  Uiso   1.00
C141   C     0.83561   0.29038   0.24469   0.00000  Uiso   1.00
C142   C     0.96557   0.19196   0.28356   0.00000  Uiso   1.00
C143   C     0.68220   0.19161   0.28349   0.00000  Uiso   1.00
C144   C     0.70095   0.14183   0.21639   0.00000  Uiso   1.00
C145   C     0.98467   0.14175   0.21650   0.00000  Uiso   1.00
C146   C     0.83326   0.08736   0.24917   0.00000  Uiso   1.00
C147   C     0.86004   0.16608   0.14960   0.00000  Uiso   1.00
C148   C     0.92931   0.13082   0.01192   0.00000  Uiso   1.00
C149   C     0.87598   0.16101   0.09212   0.00000  Uiso   1.00
C150   C     0.74257   0.17946   0.43642   0.00000  Uiso   1.00
C151   C     0.72945   0.18390   0.49085   0.00000  Uiso   1.00
C152   C     0.76303   0.17559   0.01725   0.00000  Uiso   1.00
Cu153  Cu    0.78645   0.16666   0.25000   0.00000  Uiso   1.00
Cu154  Cu    0.88022   0.16667   0.25000   0.00000  Uiso   1.00
H155   H     0.88090   0.03806   0.29604   0.00000  Uiso   1.00
H156   H     0.72727   0.12199   0.18933   0.00000  Uiso   1.00
H157   H     0.97356   0.12176   0.18968   0.00000  Uiso   1.00
H158   H     0.96435   0.11694   0.49098   0.00000  Uiso   1.00
H159   H     0.74985   0.18019   0.05904   0.00000  Uiso   1.00
H160   H     0.69335   0.19522   0.01295   0.00000  Uiso   1.00
H161   H     0.86992   0.11374   0.37406   0.00000  Uiso   1.00
H162   H     0.88175   0.29637   0.29501   0.00000  Uiso   1.00
N163   N     0.71598   0.16666   0.24999   0.00000  Uiso   1.00
N164   N     0.95069   0.16669   0.25000   0.00000  Uiso   1.00
O165   O     0.79375   0.22678   0.25001   0.00000  Uiso   1.00
O166   O     0.87294   0.22679   0.25001   0.00000  Uiso   1.00
O167   O     0.77441   0.16665   0.32549   0.00000  Uiso   1.00
O168   O     0.85360   0.16666   0.32549   0.00000  Uiso   1.00
O169   O     0.79373   0.10654   0.25000   0.00000  Uiso   1.00
O170   O     0.87292   0.10655   0.25000   0.00000  Uiso   1.00
O171   O     0.81306   0.16667   0.17451   0.00000  Uiso   1.00
O172   O     0.89225   0.16668   0.17451   0.00000  Uiso   1.00
O173   O     0.95991   0.13852   0.08399   0.00000  Uiso   1.00
H174   H     0.96347   0.16441   0.10231   0.00000  Uiso   1.00
O175   O     0.78151   0.04082   0.19040   0.00000  Uiso   1.00
H176   H     0.75236   0.05307   0.21652   0.00000  Uiso   1.00
O177   O     0.78765   0.29159   0.18285   0.00000  Uiso   1.00
H178   H     0.80526   0.26554   0.17013   0.00000  Uiso   1.00
O179   O     0.93157   0.21763   0.31687   0.00000  Uiso   1.00
H180   H     0.94794   0.23358   0.33852   0.00000  Uiso   1.00
H181   H     0.69399   0.21145   0.30998   0.00000  Uiso   1.00
O182   O     0.94294   0.09948   0.41140   0.00000  Uiso   1.00
H183   H     0.94308   0.09203   0.37547   0.00000  Uiso   1.00
H184   H     0.80792   0.18417   0.08898   0.00000  Uiso   1.00
O185   O     0.71015   0.19073   0.40998   0.00000  Uiso   1.00
H186   H     0.67894   0.20041   0.43546   0.00000  Uiso   1.00
C187   C     0.16743   0.57920   0.24817   0.00000  Uiso   1.00
C188   C     0.14399   0.49401   0.49037   0.00000  Uiso   1.00
C189   C     0.15517   0.48423   0.43648   0.00000  Uiso   1.00
C190   C     0.18069   0.48810   0.01537   0.00000  Uiso   1.00
C191   C     0.22582   0.46876   0.48778   0.00000  Uiso   1.00
C192   C     0.23352   0.45394   0.43671   0.00000  Uiso   1.00
C193   C     0.19776   0.46099   0.41210   0.00000  Uiso   1.00
C194   C     0.17405   0.50148   0.06693   0.00000  Uiso   1.00
C195   C     0.25535   0.47743   0.06323   0.00000  Uiso   1.00
C196   C     0.12303   0.49731   0.40849   0.00000  Uiso   1.00
C197   C     0.19494   0.64562   0.27283   0.00000  Uiso   1.00
C198   C     0.14001   0.49844   0.35040   0.00000  Uiso   1.00
C199   C     0.19409   0.35490   0.27382   0.00000  Uiso   1.00
C200   C     0.16634   0.37601   0.24765   0.00000  Uiso   1.00
C201   C     0.14030   0.35419   0.21879   0.00000  Uiso   1.00
C202   C     0.14330   0.64477   0.21533   0.00000  Uiso   1.00
C203   C     0.16894   0.62371   0.24469   0.00000  Uiso   1.00
C204   C     0.29890   0.52529   0.28356   0.00000  Uiso   1.00
C205   C     0.01553   0.52494   0.28349   0.00000  Uiso   1.00
C206   C     0.03428   0.47516   0.21639   0.00000  Uiso   1.00
C207   C     0.31801   0.47508   0.21650   0.00000  Uiso   1.00
C208   C     0.16659   0.42069   0.24917   0.00000  Uiso   1.00
C209   C     0.19338   0.49942   0.14960   0.00000  Uiso   1.00
C210   C     0.26265   0.46415   0.01192   0.00000  Uiso   1.00
C211   C     0.20931   0.49435   0.09212   0.00000  Uiso   1.00
C212   C     0.07590   0.51279   0.43642   0.00000  Uiso   1.00
C213   C     0.06278   0.51723   0.49085   0.00000  Uiso   1.00
C214   C     0.09637   0.50892   0.01725   0.00000  Uiso   1.00
Cu215  Cu    0.11978   0.49999   0.25000   0.00000  Uiso   1.00
Cu216  Cu    0.21355   0.50001   0.25000   0.00000  Uiso   1.00
H217   H     0.21423   0.37139   0.29604   0.00000  Uiso   1.00
H218   H     0.06060   0.45533   0.18933   0.00000  Uiso   1.00
H219   H     0.30689   0.45510   0.18968   0.00000  Uiso   1.00
H220   H     0.29769   0.45027   0.49098   0.00000  Uiso   1.00
H221   H     0.08318   0.51352   0.05904   0.00000  Uiso   1.00
H222   H     0.02668   0.52856   0.01295   0.00000  Uiso   1.00
H223   H     0.20326   0.44707   0.37406   0.00000  Uiso   1.00
H224   H     0.21508   0.62971   0.29501   0.00000  Uiso   1.00
N225   N     0.04931   0.49999   0.24999   0.00000  Uiso   1.00
N226   N     0.28402   0.50002   0.25000   0.00000  Uiso   1.00
O227   O     0.12708   0.56011   0.25001   0.00000  Uiso   1.00
O228   O     0.20627   0.56012   0.25001   0.00000  Uiso   1.00
O229   O     0.10775   0.49998   0.32549   0.00000  Uiso   1.00
O230   O     0.18694   0.49999   0.32549   0.00000  Uiso   1.00
O231   O     0.12706   0.43988   0.25000   0.00000  Uiso   1.00
O232   O     0.20625   0.43989   0.25000   0.00000  Uiso   1.00
O233   O     0.14640   0.50001   0.17451   0.00000  Uiso   1.00
O234   O     0.22559   0.50002   0.17451   0.00000  Uiso   1.00
O235   O     0.29324   0.47185   0.08399   0.00000  Uiso   1.00
H236   H     0.29680   0.49774   0.10231   0.00000  Uiso   1.00
O237   O     0.11484   0.37416   0.19040   0.00000  Uiso   1.00
H238   H     0.08570   0.38640   0.21652   0.00000  Uiso   1.00
O239   O     0.12099   0.62493   0.18285   0.00000  Uiso   1.00
H240   H     0.13860   0.59887   0.17013   0.00000  Uiso   1.00
O241   O     0.26490   0.55096   0.31687   0.00000  Uiso   1.00
H242   H     0.28127   0.56692   0.33852   0.00000  Uiso   1.00
H243   H     0.02732   0.54478   0.30998   0.00000  Uiso   1.00
O244   O     0.27627   0.43282   0.41140   0.00000  Uiso   1.00
H245   H     0.27641   0.42537   0.37547   0.00000  Uiso   1.00
H246   H     0.14125   0.51751   0.08898   0.00000  Uiso   1.00
O247   O     0.04348   0.52406   0.40998   0.00000  Uiso   1.00
H248   H     0.01227   0.53375   0.43546   0.00000  Uiso   1.00
C249   C     0.50076   0.57920   0.24817   0.00000  Uiso   1.00
C250   C     0.47732   0.49401   0.49037   0.00000  Uiso   1.00
C251   C     0.48850   0.48423   0.43648   0.00000  Uiso   1.00
C252   C     0.51402   0.48810   0.01537   0.00000  Uiso   1.00
C253   C     0.55915   0.46876   0.48778   0.00000  Uiso   1.00
C254   C     0.56685   0.45394   0.43671   0.00000  Uiso   1.00
C255   C     0.53110   0.46099   0.41210   0.00000  Uiso   1.00
C256   C     0.50739   0.50148   0.06693   0.00000  Uiso   1.00
C257   C     0.58868   0.47743   0.06323   0.00000  Uiso   1.00
C258   C     0.45636   0.49731   0.40849   0.00000  Uiso   1.00
C259   C     0.52827   0.64562   0.27283   0.00000  Uiso   1.00
C260   C     0.47334   0.49844   0.35040   0.00000  Uiso   1.00
C261   C     0.52742   0.35490   0.27382   0.00000  Uiso   1.00
C262   C     0.49967   0.37601   0.24765   0.00000  Uiso   1.00
C263   C     0.47363   0.35419   0.21879   0.00000  Uiso   1.00
C264   C     0.47663   0.64477   0.21533   0.00000  Uiso   1.00
C265   C     0.50228   0.62371   0.24469   0.00000  Uiso   1.00
C266   C     0.63223   0.52529   0.28356   0.00000  Uiso   1.00
C267   C     0.34886   0.52494   0.28349   0.00000  Uiso   1.00
C268   C     0.36762   0.47516   0.21639   0.00000  Uiso   1.00
C269   C     0.65134   0.47508   0.21650   0.00000  Uiso   1.00
C270   C     0.49993   0.42069   0.24917   0.00000  Uiso   1.00
C271   C     0.52671   0.49942   0.14960   0.00000  Uiso   1.00
C272   C     0.59598   0.46415   0.01192   0.00000  Uiso   1.00
C273   C     0.54264   0.49435   0.09212   0.00000  Uiso   1.00
C274   C     0.40923   0.51279   0.43642   0.00000  Uiso   1.00
C275   C     0.39612   0.51723   0.49085   0.00000  Uiso   1.00
C276   C     0.42970   0.50892   0.01725   0.00000  Uiso   1.00
Cu277  Cu    0.45311   0.49999   0.25000   0.00000  Uiso   1.00
Cu278  Cu    0.54689   0.50001   0.25000   0.00000  Uiso   1.00
H279   H     0.54757   0.37139   0.29604   0.00000  Uiso   1.00
H280   H     0.39394   0.45533   0.18933   0.00000  Uiso   1.00
H281   H     0.64023   0.45510   0.18968   0.00000  Uiso   1.00
H282   H     0.63102   0.45027   0.49098   0.00000  Uiso   1.00
H283   H     0.41651   0.51352   0.05904   0.00000  Uiso   1.00
H284   H     0.36001   0.52856   0.01295   0.00000  Uiso   1.00
H285   H     0.53659   0.44707   0.37406   0.00000  Uiso   1.00
H286   H     0.54842   0.62971   0.29501   0.00000  Uiso   1.00
N287   N     0.38265   0.49999   0.24999   0.00000  Uiso   1.00
N288   N     0.61735   0.50002   0.25000   0.00000  Uiso   1.00
O289   O     0.46042   0.56011   0.25001   0.00000  Uiso   1.00
O290   O     0.53961   0.56012   0.25001   0.00000  Uiso   1.00
O291   O     0.44108   0.49998   0.32549   0.00000  Uiso   1.00
O292   O     0.52027   0.49999   0.32549   0.00000  Uiso   1.00
O293   O     0.46039   0.43988   0.25000   0.00000  Uiso   1.00
O294   O     0.53958   0.43989   0.25000   0.00000  Uiso   1.00
O295   O     0.47973   0.50001   0.17451   0.00000  Uiso   1.00
O296   O     0.55892   0.50002   0.17451   0.00000  Uiso   1.00
O297   O     0.62658   0.47185   0.08399   0.00000  Uiso   1.00
H298   H     0.63013   0.49774   0.10231   0.00000  Uiso   1.00
O299   O     0.44818   0.37416   0.19040   0.00000  Uiso   1.00
H300   H     0.41903   0.38640   0.21652   0.00000  Uiso   1.00
O301   O     0.45432   0.62493   0.18285   0.00000  Uiso   1.00
H302   H     0.47193   0.59887   0.17013   0.00000  Uiso   1.00
O303   O     0.59823   0.55096   0.31687   0.00000  Uiso   1.00
H304   H     0.61461   0.56692   0.33852   0.00000  Uiso   1.00
H305   H     0.36065   0.54478   0.30998   0.00000  Uiso   1.00
O306   O     0.60961   0.43282   0.41140   0.00000  Uiso   1.00
H307   H     0.60974   0.42537   0.37547   0.00000  Uiso   1.00
H308   H     0.47458   0.51751   0.08898   0.00000  Uiso   1.00
O309   O     0.37681   0.52406   0.40998   0.00000  Uiso   1.00
H310   H     0.34560   0.53375   0.43546   0.00000  Uiso   1.00
C311   C     0.83409   0.57920   0.24817   0.00000  Uiso   1.00
C312   C     0.81066   0.49401   0.49037   0.00000  Uiso   1.00
C313   C     0.82184   0.48423   0.43648   0.00000  Uiso   1.00
C314   C     0.84736   0.48810   0.01537   0.00000  Uiso   1.00
C315   C     0.89249   0.46876   0.48778   0.00000  Uiso   1.00
C316   C     0.90018   0.45394   0.43671   0.00000  Uiso   1.00
C317   C     0.86443   0.46099   0.41210   0.00000  Uiso   1.00
C318   C     0.84072   0.50148   0.06693   0.00000  Uiso   1.00
C319   C     0.92201   0.47743   0.06323   0.00000  Uiso   1.00
C320   C     0.78969   0.49731   0.40849   0.00000  Uiso   1.00
C321   C     0.86161   0.64562   0.27283   0.00000  Uiso   1.00
C322   C     0.80668   0.49844   0.35040   0.00000  Uiso   1.00
C323   C     0.86075   0.35490   0.27382   0.00000  Uiso   1.00
C324   C     0.83301   0.37601   0.24765   0.00000  Uiso   1.00
C325   C     0.80697   0.35419   0.21879   0.00000  Uiso   1.00
C326   C     0.80997   0.64477   0.21533   0.00000  Uiso   1.00
C327   C     0.83561   0.62371   0.24469   0.00000  Uiso   1.00
C328   C     0.96557   0.52529   0.28356   0.00000  Uiso   1.00
C329   C     0.68220   0.52494   0.28349   0.00000  Uiso   1.00
C330   C     0.70095   0.47516   0.21639   0.00000  Uiso   1.00
C331   C     0.98467   0.47508   0.21650   0.00000  Uiso   1.00
C332   C     0.83326   0.42069   0.24917   0.00000  Uiso   1.00
C333   C     0.86004   0.49942   0.14960   0.00000  Uiso   1.00
C334   C     0.92931   0.46415   0.01192   0.00000  Uiso   1.00
C335   C     0.87598   0.49435   0.09212   0.00000  Uiso   1.00
C336   C     0.74257   0.51279   0.43642   0.00000  Uiso   1.00
C337   C     0.72945   0.51723   0.49085   0.00000  Uiso   1.00
C338   C     0.76303   0.50892   0.01725   0.00000  Uiso   1.00
Cu339  Cu    0.78645   0.49999   0.25000   0.00000  Uiso   1.00
Cu340  Cu    0.88022   0.50001   0.25000   0.00000  Uiso   1.00
H341   H     0.88090   0.37139   0.29604   0.00000  Uiso   1.00
H342   H     0.72727   0.45533   0.18933   0.00000  Uiso   1.00
H343   H     0.97356   0.45510   0.18968   0.00000  Uiso   1.00
H344   H     0.96435   0.45027   0.49098   0.00000  Uiso   1.00
H345   H     0.74985   0.51352   0.05904   0.00000  Uiso   1.00
H346   H     0.69335   0.52856   0.01295   0.00000  Uiso   1.00
H347   H     0.86992   0.44707   0.37406   0.00000  Uiso   1.00
H348   H     0.88175   0.62971   0.29501   0.00000  Uiso   1.00
N349   N     0.71598   0.49999   0.24999   0.00000  Uiso   1.00
N350   N     0.95069   0.50002   0.25000   0.00000  Uiso   1.00
O351   O     0.79375   0.56011   0.25001   0.00000  Uiso   1.00
O352   O     0.87294   0.56012   0.25001   0.00000  Uiso   1.00
O353   O     0.77441   0.49998   0.32549   0.00000  Uiso   1.00
O354   O     0.85360   0.49999   0.32549   0.00000  Uiso   1.00
O355   O     0.79373   0.43988   0.25000   0.00000  Uiso   1.00
O356   O     0.87292   0.43989   0.25000   0.00000  Uiso   1.00
O357   O     0.81306   0.50001   0.17451   0.00000  Uiso   1.00
O358   O     0.89225   0.50002   0.17451   0.00000  Uiso   1.00
O359   O     0.95991   0.47185   0.08399   0.00000  Uiso   1.00
H360   H     0.96347   0.49774   0.10231   0.00000  Uiso   1.00
O361   O     0.78151   0.37416   0.19040   0.00000  Uiso   1.00
H362   H     0.75236   0.38640   0.21652   0.00000  Uiso   1.00
O363   O     0.78765   0.62493   0.18285   0.00000  Uiso   1.00
H364   H     0.80526   0.59887   0.17013   0.00000  Uiso   1.00
O365   O     0.93157   0.55096   0.31687   0.00000  Uiso   1.00
H366   H     0.94794   0.56692   0.33852   0.00000  Uiso   1.00
H367   H     0.69399   0.54478   0.30998   0.00000  Uiso   1.00
O368   O     0.94294   0.43282   0.41140   0.00000  Uiso   1.00
H369   H     0.94308   0.42537   0.37547   0.00000  Uiso   1.00
H370   H     0.80792   0.51751   0.08898   0.00000  Uiso   1.00
O371   O     0.71015   0.52406   0.40998   0.00000  Uiso   1.00
H372   H     0.67894   0.53375   0.43546   0.00000  Uiso   1.00
C373   C     0.16743   0.91253   0.24817   0.00000  Uiso   1.00
C374   C     0.14399   0.82734   0.49037   0.00000  Uiso   1.00
C375   C     0.15517   0.81757   0.43648   0.00000  Uiso   1.00
C376   C     0.18069   0.82143   0.01537   0.00000  Uiso   1.00
C377   C     0.22582   0.80210   0.48778   0.00000  Uiso   1.00
C378   C     0.23352   0.78727   0.43671   0.00000  Uiso   1.00
C379   C     0.19776   0.79433   0.41210   0.00000  Uiso   1.00
C380   C     0.17405   0.83481   0.06693   0.00000  Uiso   1.00
C381   C     0.25535   0.81076   0.06323   0.00000  Uiso   1.00
C382   C     0.12303   0.83064   0.40849   0.00000  Uiso   1.00
C383   C     0.19494   0.97895   0.27283   0.00000  Uiso   1.00
C384   C     0.14001   0.83178   0.35040   0.00000  Uiso   1.00
C385   C     0.19409   0.68823   0.27382   0.00000  Uiso   1.00
C386   C     0.16634   0.70935   0.24765   0.00000  Uiso   1.00
C387   C     0.14030   0.68752   0.21879   0.00000  Uiso   1.00
C388   C     0.14330   0.97810   0.21533   0.00000  Uiso   1.00
C389   C     0.16894   0.95704   0.24469   0.00000  Uiso   1.00
C390   C     0.29890   0.85862   0.28356   0.00000  Uiso   1.00
C391   C     0.01553   0.85828   0.28349   0.00000  Uiso   1.00
C392   C     0.03428   0.80850   0.21639   0.00000  Uiso   1.00
C393   C     0.31801   0.80842   0.21650   0.00000  Uiso   1.00
C394   C     0.16659   0.75402   0.24917   0.00000  Uiso   1.00
C395   C     0.19338   0.83275   0.14960   0.00000  Uiso   1.00
C396   C     0.26265   0.79749   0.01192   0.00000  Uiso   1.00
C397   C     0.20931   0.82768   0.09212   0.00000  Uiso   1.00
C398   C     0.07590   0.84613   0.43642   0.00000  Uiso   1.00
C399   C     0.06278   0.85056   0.49085   0.00000  Uiso   1.00
C400   C     0.09637   0.84226   0.01725   0.00000  Uiso   1.00
Cu401  Cu    0.11978   0.83333   0.25000   0.00000  Uiso   1.00
Cu402  Cu    0.21355   0.83334   0.25000   0.00000  Uiso   1.00
H403   H     0.21423   0.70473   0.29604   0.00000  Uiso   1.00
H404   H     0.06060   0.78866   0.18933   0.00000  Uiso   1.00
H405   H     0.30689   0.78843   0.18968   0.00000  Uiso   1.00
H406   H     0.29769   0.78360   0.49098   0.00000  Uiso   1.00
H407   H     0.08318   0.84685   0.05904   0.00000  Uiso   1.00
H408   H     0.02668   0.86189   0.01295   0.00000  Uiso   1.00
H409   H     0.20326   0.78040   0.37406   0.00000  Uiso   1.00
H410   H     0.21508   0.96304   0.29501   0.00000  Uiso   1.00
N411   N     0.04931   0.83332   0.24999   0.00000  Uiso   1.00
N412   N     0.28402   0.83335   0.25000   0.00000  Uiso   1.00
O413   O     0.12708   0.89345   0.25001   0.00000  Uiso   1.00
O414   O     0.20627   0.89346   0.25001   0.00000  Uiso   1.00
O415   O     0.10775   0.83332   0.32549   0.00000  Uiso   1.00
O416   O     0.18694   0.83333   0.32549   0.00000  Uiso   1.00
O417   O     0.12706   0.77321   0.25000   0.00000  Uiso   1.00
O418   O     0.20625   0.77322   0.25000   0.00000  Uiso   1.00
O419   O     0.14640   0.83334   0.17451   0.00000  Uiso   1.00
O420   O     0.22559   0.83335   0.17451   0.00000  Uiso   1.00
O421   O     0.29324   0.80518   0.08399   0.00000  Uiso   1.00
H422   H     0.29680   0.83108   0.10231   0.00000  Uiso   1.00
O423   O     0.11484   0.70749   0.19040   0.00000  Uiso   1.00
H424   H     0.08570   0.71974   0.21652   0.00000  Uiso   1.00
O425   O     0.12099   0.95826   0.18285   0.00000  Uiso   1.00
H426   H     0.13860   0.93220   0.17013   0.00000  Uiso   1.00
O427   O     0.26490   0.88429   0.31687   0.00000  Uiso   1.00
H428   H     0.28127   0.90025   0.33852   0.00000  Uiso   1.00
H429   H     0.02732   0.87812   0.30998   0.00000  Uiso   1.00
O430   O     0.27627   0.76615   0.41140   0.00000  Uiso   1.00
H431   H     0.27641   0.75870   0.37547   0.00000  Uiso   1.00
H432   H     0.14125   0.85084   0.08898   0.00000  Uiso   1.00
O433   O     0.04348   0.85739   0.40998   0.00000  Uiso   1.00
H434   H     0.01227   0.86708   0.43546   0.00000  Uiso   1.00
C435   C     0.50076   0.91253   0.24817   0.00000  Uiso   1.00
C436   C     0.47732   0.82734   0.49037   0.00000  Uiso   1.00
C437   C     0.48850   0.81757   0.43648   0.00000  Uiso   1.00
C438   C     0.51402   0.82143   0.01537   0.00000  Uiso   1.00
C439   C     0.55915   0.80210   0.48778   0.00000  Uiso   1.00
C440   C     0.56685   0.78727   0.43671   0.00000  Uiso   1.00
C441   C     0.53110   0.79433   0.41210   0.00000  Uiso   1.00
C442   C     0.50739   0.83481   0.06693   0.00000  Uiso   1.00
C443   C     0.58868   0.81076   0.06323   0.00000  Uiso   1.00
C444   C     0.45636   0.83064   0.40849   0.00000  Uiso   1.00
C445   C     0.52827   0.97895   0.27283   0.00000  Uiso   1.00
C446   C     0.47334   0.83178   0.35040   0.00000  Uiso   1.00
C447   C     0.52742   0.68823   0.27382   0.00000  Uiso   1.00
C448   C     0.49967   0.70935   0.24765   0.00000  Uiso   1.00
C449   C     0.47363   0.68752   0.21879   0.00000  Uiso   1.00
C450   C     0.47663   0.97810   0.21533   0.00000  Uiso   1.00
C451   C     0.50228   0.95704   0.24469   0.00000  Uiso   1.00
C452   C     0.63223   0.85862   0.28356   0.00000  Uiso   1.00
C453   C     0.34886   0.85828   0.28349   0.00000  Uiso   1.00
C454   C     0.36762   0.80850   0.21639   0.00000  Uiso   1.00
C455   C     0.65134   0.80842   0.21650   0.00000  Uiso   1.00
C456   C     0.49993   0.75402   0.24917   0.00000  Uiso   1.00
C457   C     0.52671   0.83275   0.14960   0.00000  Uiso   1.00
C458   C     0.59598   0.79749   0.01192   0.00000  Uiso   1.00
C459   C     0.54264   0.82768   0.09212   0.00000  Uiso   1.00
C460   C     0.40923   0.84613   0.43642   0.00000  Uiso   1.00
C461   C     0.39612   0.85056   0.49085   0.00000  Uiso   1.00
C462   C     0.42970   0.84226   0.01725   0.00000  Uiso   1.00
Cu463  Cu    0.45311   0.83333   0.25000   0.00000  Uiso   1.00
Cu464  Cu    0.54689   0.83334   0.25000   0.00000  Uiso   1.00
H465   H     0.54757   0.70473   0.29604   0.00000  Uiso   1.00
H466   H     0.39394   0.78866   0.18933   0.00000  Uiso   1.00
H467   H     0.64023   0.78843   0.18968   0.00000  Uiso   1.00
H468   H     0.63102   0.78360   0.49098   0.00000  Uiso   1.00
H469   H     0.41651   0.84685   0.05904   0.00000  Uiso   1.00
H470   H     0.36001   0.86189   0.01295   0.00000  Uiso   1.00
H471   H     0.53659   0.78040   0.37406   0.00000  Uiso   1.00
H472   H     0.54842   0.96304   0.29501   0.00000  Uiso   1.00
N473   N     0.38265   0.83332   0.24999   0.00000  Uiso   1.00
N474   N     0.61735   0.83335   0.25000   0.00000  Uiso   1.00
O475   O     0.46042   0.89345   0.25001   0.00000  Uiso   1.00
O476   O     0.53961   0.89346   0.25001   0.00000  Uiso   1.00
O477   O     0.44108   0.83332   0.32549   0.00000  Uiso   1.00
O478   O     0.52027   0.83333   0.32549   0.00000  Uiso   1.00
O479   O     0.46039   0.77321   0.25000   0.00000  Uiso   1.00
O480   O     0.53958   0.77322   0.25000   0.00000  Uiso   1.00
O481   O     0.47973   0.83334   0.17451   0.00000  Uiso   1.00
O482   O     0.55892   0.83335   0.17451   0.00000  Uiso   1.00
O483   O     0.62658   0.80518   0.08399   0.00000  Uiso   1.00
H484   H     0.63013   0.83108   0.10231   0.00000  Uiso   1.00
O485   O     0.44818   0.70749   0.19040   0.00000  Uiso   1.00
H486   H     0.41903   0.71974   0.21652   0.00000  Uiso   1.00
O487   O     0.45432   0.95826   0.18285   0.00000  Uiso   1.00
H488   H     0.47193   0.93220   0.17013   0.00000  Uiso   1.00
O489   O     0.59823   0.88429   0.31687   0.00000  Uiso   1.00
H490   H     0.61461   0.90025   0.33852   0.00000  Uiso   1.00
H491   H     0.36065   0.87812   0.30998   0.00000  Uiso   1.00
O492   O     0.60961   0.76615   0.41140   0.00000  Uiso   1.00
H493   H     0.60974   0.75870   0.37547   0.00000  Uiso   1.00
H494   H     0.47458   0.85084   0.08898   0.00000  Uiso   1.00
O495   O     0.37681   0.85739   0.40998   0.00000  Uiso   1.00
H496   H     0.34560   0.86708   0.43546   0.00000  Uiso   1.00
C497   C     0.83409   0.91253   0.24817   0.00000  Uiso   1.00
C498   C     0.81066   0.82734   0.49037   0.00000  Uiso   1.00
C499   C     0.82184   0.81757   0.43648   0.00000  Uiso   1.00
C500   C     0.84736   0.82143   0.01537   0.00000  Uiso   1.00
C501   C     0.89249   0.80210   0.48778   0.00000  Uiso   1.00
C502   C     0.90018   0.78727   0.43671   0.00000  Uiso   1.00
C503   C     0.86443   0.79433   0.41210   0.00000  Uiso   1.00
C504   C     0.84072   0.83481   0.06693   0.00000  Uiso   1.00
C505   C     0.92201   0.81076   0.06323   0.00000  Uiso   1.00
C506   C     0.78969   0.83064   0.40849   0.00000  Uiso   1.00
C507   C     0.86161   0.97895   0.27283   0.00000  Uiso   1.00
C508   C     0.80668   0.83178   0.35040   0.00000  Uiso   1.00
C509   C     0.86075   0.68823   0.27382   0.00000  Uiso   1.00
C510   C     0.83301   0.70935   0.24765   0.00000  Uiso   1.00
C511   C     0.80697   0.68752   0.21879   0.00000  Uiso   1.00
C512   C     0.80997   0.97810   0.21533   0.00000  Uiso   1.00
C513   C     0.83561   0.95704   0.24469   0.00000  Uiso   1.00
C514   C     0.96557   0.85862   0.28356   0.00000  Uiso   1.00
C515   C     0.68220   0.85828   0.28349   0.00000  Uiso   1.00
C516   C     0.70095   0.80850   0.21639   0.00000  Uiso   1.00
C517   C     0.98467   0.80842   0.21650   0.00000  Uiso   1.00
C518   C     0.83326   0.75402   0.24917   0.00000  Uiso   1.00
C519   C     0.86004   0.83275   0.14960   0.00000  Uiso   1.00
C520   C     0.92931   0.79749   0.01192   0.00000  Uiso   1.00
C521   C     0.87598   0.82768   0.09212   0.00000  Uiso   1.00
C522   C     0.74257   0.84613   0.43642   0.00000  Uiso   1.00
C523   C     0.72945   0.85056   0.49085   0.00000  Uiso   1.00
C524   C     0.76303   0.84226   0.01725   0.00000  Uiso   1.00
Cu525  Cu    0.78645   0.83333   0.25000   0.00000  Uiso   1.00
Cu526  Cu    0.88022   0.83334   0.25000   0.00000  Uiso   1.00
H527   H     0.88090   0.70473   0.29604   0.00000  Uiso   1.00
H528   H     0.72727   0.78866   0.18933   0.00000  Uiso   1.00
H529   H     0.97356   0.78843   0.18968   0.00000  Uiso   1.00
H530   H     0.96435   0.78360   0.49098   0.00000  Uiso   1.00
H531   H     0.74985   0.84685   0.05904   0.00000  Uiso   1.00
H532   H     0.69335   0.86189   0.01295   0.00000  Uiso   1.00
H533   H     0.86992   0.78040   0.37406   0.00000  Uiso   1.00
H534   H     0.88175   0.96304   0.29501   0.00000  Uiso   1.00
N535   N     0.71598   0.83332   0.24999   0.00000  Uiso   1.00
N536   N     0.95069   0.83335   0.25000   0.00000  Uiso   1.00
O537   O     0.79375   0.89345   0.25001   0.00000  Uiso   1.00
O538   O     0.87294   0.89346   0.25001   0.00000  Uiso   1.00
O539   O     0.77441   0.83332   0.32549   0.00000  Uiso   1.00
O540   O     0.85360   0.83333   0.32549   0.00000  Uiso   1.00
O541   O     0.79373   0.77321   0.25000   0.00000  Uiso   1.00
O542   O     0.87292   0.77322   0.25000   0.00000  Uiso   1.00
O543   O     0.81306   0.83334   0.17451   0.00000  Uiso   1.00
O544   O     0.89225   0.83335   0.17451   0.00000  Uiso   1.00
O545   O     0.95991   0.80518   0.08399   0.00000  Uiso   1.00
H546   H     0.96347   0.83108   0.10231   0.00000  Uiso   1.00
O547   O     0.78151   0.70749   0.19040   0.00000  Uiso   1.00
H548   H     0.75236   0.71974   0.21652   0.00000  Uiso   1.00
O549   O     0.78765   0.95826   0.18285   0.00000  Uiso   1.00
H550   H     0.80526   0.93220   0.17013   0.00000  Uiso   1.00
O551   O     0.93157   0.88429   0.31687   0.00000  Uiso   1.00
H552   H     0.94794   0.90025   0.33852   0.00000  Uiso   1.00
H553   H     0.69399   0.87812   0.30998   0.00000  Uiso   1.00
O554   O     0.94294   0.76615   0.41140   0.00000  Uiso   1.00
H555   H     0.94308   0.75870   0.37547   0.00000  Uiso   1.00
H556   H     0.80792   0.85084   0.08898   0.00000  Uiso   1.00
O557   O     0.71015   0.85739   0.40998   0.00000  Uiso   1.00
H558   H     0.67894   0.86708   0.43546   0.00000  Uiso   1.00
C559   C     0.16743   0.24586   0.74817   0.00000  Uiso   1.00
C560   C     0.14399   0.16067   0.99037   0.00000  Uiso   1.00
C561   C     0.15517   0.15090   0.93648   0.00000  Uiso   1.00
C562   C     0.18069   0.15476   0.51537   0.00000  Uiso   1.00
C563   C     0.22582   0.13543   0.98778   0.00000  Uiso   1.00
C564   C     0.23352   0.12061   0.93671   0.00000  Uiso   1.00
C565   C     0.19776   0.12766   0.91210   0.00000  Uiso   1.00
C566   C     0.17405   0.16814   0.56693   0.00000  Uiso   1.00
C567   C     0.25535   0.14409   0.56323   0.00000  Uiso   1.00
C568   C     0.12303   0.16397   0.90849   0.00000  Uiso   1.00
C569   C     0.19494   0.31228   0.77283   0.00000  Uiso   1.00
C570   C     0.14001   0.16511   0.85040   0.00000  Uiso   1.00
C571   C     0.19409   0.02156   0.77382   0.00000  Uiso   1.00
C572   C     0.16634   0.04268   0.74765   0.00000  Uiso   1.00
C573   C     0.14030   0.02086   0.71879   0.00000  Uiso   1.00
C574   C     0.14330   0.31144   0.71533   0.00000  Uiso   1.00
C575   C     0.16894   0.29038   0.74469   0.00000  Uiso   1.00
C576   C     0.29890   0.19196   0.78356   0.00000  Uiso   1.00
C577   C     0.01553   0.19161   0.78349   0.00000  Uiso   1.00
C578   C     0.03428   0.14183   0.71639   0.00000  Uiso   1.00
C579   C     0.31801   0.14175   0.71650   0.00000  Uiso   1.00
C580   C     0.16659   0.08736   0.74917   0.00000  Uiso   1.00
C581   C     0.19338   0.16608   0.64960   0.00000  Uiso   1.00
C582   C     0.26265   0.13082   0.51192   0.00000  Uiso   1.00
C583   C     0.20931   0.16101   0.59212   0.00000  Uiso   1.00
C584   C     0.07590   0.17946   0.93642   0.00000  Uiso   1.00
C585   C     0.06278   0.18390   0.99085   0.00000  Uiso   1.00
C586   C     0.09637   0.17559   0.51725   0.00000  Uiso   1.00
Cu587  Cu    0.11978   0.16666   0.75000   0.00000  Uiso   1.00
Cu588  Cu    0.21355   0.16667   0.75000   0.00000  Uiso   1.00
H589   H     0.21423   0.03806   0.79604   0.00000  Uiso   1.00
H590   H     0.06060   0.12199   0.68933   0.00000  Uiso   1.00
H591   H     0.30689   0.12176   0.68968   0.00000  Uiso   1.00
H592   H     0.29769   0.11694   0.99098   0.00000  Uiso   1.00
H593   H     0.08318   0.18019   0.55904   0.00000  Uiso   1.00
H594   H     0.02668   0.19522   0.51295   0.00000  Uiso   1.00
H595   H     0.20326   0.11374   0.87406   0.00000  Uiso   1.00
H596   H     0.21508   0.29637   0.79501   0.00000  Uiso   1.00
N597   N     0.04931   0.16666   0.74999   0.00000  Uiso   1.00
N598   N     0.28402   0.16669   0.75000   0.00000  Uiso   1.00
O599   O     0.12708   0.22678   0.75001   0.00000  Uiso   1.00
O600   O     0.20627   0.22679   0.75001   0.00000  Uiso   1.00
O601   O     0.10775   0.16665   0.82549   0.00000  Uiso   1.00
O602   O     0.18694   0.16666   0.82549   0.00000  Uiso   1.00
O603   O     0.12706   0.10654   0.75000   0.00000  Uiso   1.00
O604   O     0.20625   0.10655   0.75000   0.00000  Uiso   1.00
O605   O     0.14640   0.16667   0.67451   0.00000  Uiso   1.00
O606   O     0.22559   0.16668   0.67451   0.00000  Uiso   1.00
O607   O     0.29324   0.13852   0.58399   0.00000  Uiso   1.00
H608   H     0.29680   0.16441   0.60231   0.00000  Uiso   1.00
O609   O     0.11484   0.04082   0.69040   0.00000  Uiso   1.00
H610   H     0.08570   0.05307   0.71652   0.00000  Uiso   1.00
O611   O     0.12099   0.29159   0.68285   0.00000  Uiso   1.00
H612   H     0.13860   0.26554   0.67013   0.00000  Uiso   1.00
O613   O     0.26490   0.21763   0.81687   0.00000  Uiso   1.00
H614   H     0.28127   0.23358   0.83852   0.00000  Uiso   1.00
H615   H     0.02732   0.21145   0.80998   0.00000  Uiso   1.00
O616   O     0.27627   0.09948   0.91140   0.00000  Uiso   1.00
H617   H     0.27641   0.09203   0.87547   0.00000  Uiso   1.00
H618   H     0.14125   0.18417   0.58898   0.00000  Uiso   1.00
O619   O     0.04348   0.19073   0.90998   0.00000  Uiso   1.00
H620   H     0.01227   0.20041   0.93546   0.00000  Uiso   1.00
C621   C     0.50076   0.24586   0.74817   0.00000  Uiso   1.00
C622   C     0.47732   0.16067   0.99037   0.00000  Uiso   1.00
C623   C     0.48850   0.15090   0.93648   0.00000  Uiso   1.00
C624   C     0.51402   0.15476   0.51537   0.00000  Uiso   1.00
C625   C     0.55915   0.13543   0.98778   0.00000  Uiso   1.00
C626   C     0.56685   0.12061   0.93671   0.00000  Uiso   1.00
C627   C     0.53110   0.12766   0.91210   0.00000  Uiso   1.00
C628   C     0.50739   0.16814   0.56693   0.00000  Uiso   1.00
C629   C     0.58868   0.14409   0.56323   0.00000  Uiso   1.00
C630   C     0.45636   0.16397   0.90849   0.00000  Uiso   1.00
C631   C     0.52827   0.31228   0.77283   0.00000  Uiso   1.00
C632   C     0.47334   0.16511   0.85040   0.00000  Uiso   1.00
C633   C     0.52742   0.02156   0.77382   0.00000  Uiso   1.00
C634   C     0.49967   0.04268   0.74765   0.00000  Uiso   1.00
C635   C     0.47363   0.02086   0.71879   0.00000  Uiso   1.00
C636   C     0.47663   0.31144   0.71533   0.00000  Uiso   1.00
C637   C     0.50228   0.29038   0.74469   0.00000  Uiso   1.00
C638   C     0.63223   0.19196   0.78356   0.00000  Uiso   1.00
C639   C     0.34886   0.19161   0.78349   0.00000  Uiso   1.00
C640   C     0.36762   0.14183   0.71639   0.00000  Uiso   1.00
C641   C     0.65134   0.14175   0.71650   0.00000  Uiso   1.00
C642   C     0.49993   0.08736   0.74917   0.00000  Uiso   1.00
C643   C     0.52671   0.16608   0.64960   0.00000  Uiso   1.00
C644   C     0.59598   0.13082   0.51192   0.00000  Uiso   1.00
C645   C     0.54264   0.16101   0.59212   0.00000  Uiso   1.00
C646   C     0.40923   0.17946   0.93642   0.00000  Uiso   1.00
C647   C     0.39612   0.18390   0.99085   0.00000  Uiso   1.00
C648   C     0.42970   0.17559   0.51725   0.00000  Uiso   1.00
Cu649  Cu    0.45311   0.16666   0.75000   0.00000  Uiso   1.00
Cu650  Cu    0.54689   0.16667   0.75000   0.00000  Uiso   1.00
H651   H     0.54757   0.03806   0.79604   0.00000  Uiso   1.00
H652   H     0.39394   0.12199   0.68933   0.00000  Uiso   1.00
H653   H     0.64023   0.12176   0.68968   0.00000  Uiso   1.00
H654   H     0.63102   0.11694   0.99098   0.00000  Uiso   1.00
H655   H     0.41651   0.18019   0.55904   0.00000  Uiso   1.00
H656   H     0.36001   0.19522   0.51295   0.00000  Uiso   1.00
H657   H     0.53659   0.11374   0.87406   0.00000  Uiso   1.00
H658   H     0.54842   0.29637   0.79501   0.00000  Uiso   1.00
N659   N     0.38265   0.16666   0.74999   0.00000  Uiso   1.00
N660   N     0.61735   0.16669   0.75000   0.00000  Uiso   1.00
O661   O     0.46042   0.22678   0.75001   0.00000  Uiso   1.00
O662   O     0.53961   0.22679   0.75001   0.00000  Uiso   1.00
O663   O     0.44108   0.16665   0.82549   0.00000  Uiso   1.00
O664   O     0.52027   0.16666   0.82549   0.00000  Uiso   1.00
O665   O     0.46039   0.10654   0.75000   0.00000  Uiso   1.00
O666   O     0.53958   0.10655   0.75000   0.00000  Uiso   1.00
O667   O     0.47973   0.16667   0.67451   0.00000  Uiso   1.00
O668   O     0.55892   0.16668   0.67451   0.00000  Uiso   1.00
O669   O     0.62658   0.13852   0.58399   0.00000  Uiso   1.00
H670   H     0.63013   0.16441   0.60231   0.00000  Uiso   1.00
O671   O     0.44818   0.04082   0.69040   0.00000  Uiso   1.00
H672   H     0.41903   0.05307   0.71652   0.00000  Uiso   1.00
O673   O     0.45432   0.29159   0.68285   0.00000  Uiso   1.00
H674   H     0.47193   0.26554   0.67013   0.00000  Uiso   1.00
O675   O     0.59823   0.21763   0.81687   0.00000  Uiso   1.00
H676   H     0.61461   0.23358   0.83852   0.00000  Uiso   1.00
H677   H     0.36065   0.21145   0.80998   0.00000  Uiso   1.00
O678   O     0.60961   0.09948   0.91140   0.00000  Uiso   1.00
H679   H     0.60974   0.09203   0.87547   0.00000  Uiso   1.00
H680   H     0.47458   0.18417   0.58898   0.00000  Uiso   1.00
O681   O     0.37681   0.19073   0.90998   0.00000  Uiso   1.00
H682   H     0.34560   0.20041   0.93546   0.00000  Uiso   1.00
C683   C     0.83409   0.24586   0.74817   0.00000  Uiso   1.00
C684   C     0.81066   0.16067   0.99037   0.00000  Uiso   1.00
C685   C     0.82184   0.15090   0.93648   0.00000  Uiso   1.00
C686   C     0.84736   0.15476   0.51537   0.00000  Uiso   1.00
C687   C     0.89249   0.13543   0.98778   0.00000  Uiso   1.00
C688   C     0.90018   0.12061   0.93671   0.00000  Uiso   1.00
C689   C     0.86443   0.12766   0.91210   0.00000  Uiso   1.00
C690   C     0.84072   0.16814   0.56693   0.00000  Uiso   1.00
C691   C     0.92201   0.14409   0.56323   0.00000  Uiso   1.00
C692   C     0.78969   0.16397   0.90849   0.00000  Uiso   1.00
C693   C     0.86161   0.31228   0.77283   0.00000  Uiso   1.00
C694   C     0.80668   0.16511   0.85040   0.00000  Uiso   1.00
C695   C     0.86075   0.02156   0.77382   0.00000  Uiso   1.00
C696   C     0.83301   0.04268   0.74765   0.00000  Uiso   1.00
C697   C     0.80697   0.02086   0.71879   0.00000  Uiso   1.00
C698   C     0.80997   0.31144   0.71533   0.00000  Uiso   1.00
C699   C     0.83561   0.29038   0.74469   0.00000  Uiso   1.00
C700   C     0.96557   0.19196   0.78356   0.00000  Uiso   1.00
C701   C     0.68220   0.19161   0.78349   0.00000  Uiso   1.00
C702   C     0.70095   0.14183   0.71639   0.00000  Uiso   1.00
C703   C     0.98467   0.14175   0.71650   0.00000  Uiso   1.00
C704   C     0.83326   0.08736   0.74917   0.00000  Uiso   1.00
C705   C     0.86004   0.16608   0.64960   0.00000  Uiso   1.00
C706   C     0.92931   0.13082   0.51192   0.00000  Uiso   1.00
C707   C     0.87598   0.16101   0.59212   0.00000  Uiso   1.00
C708   C     0.74257   0.17946   0.93642   0.00000  Uiso   1.00
C709   C     0.72945   0.18390   0.99085   0.00000  Uiso   1.00
C710   C     0.76303   0.17559   0.51725   0.00000  Uiso   1.00
Cu711  Cu    0.78645   0.16666   0.75000   0.00000  Uiso   1.00
Cu712  Cu    0.88022   0.16667   0.75000   0.00000  Uiso   1.00
H713   H     0.88090   0.03806   0.79604   0.00000  Uiso   1.00
H714   H     0.72727   0.12199   0.68933   0.00000  Uiso   1.00
H715   H     0.97356   0.12176   0.68968   0.00000  Uiso   1.00
H716   H     0.96435   0.11694   0.99098   0.00000  Uiso   1.00
H717   H     0.74985   0.18019   0.55904   0.00000  Uiso   1.00
H718   H     0.69335   0.19522   0.51295   0.00000  Uiso   1.00
H719   H     0.86992   0.11374   0.87406   0.00000  Uiso   1.00
H720   H     0.88175   0.29637   0.79501   0.00000  Uiso   1.00
N721   N     0.71598   0.16666   0.74999   0.00000  Uiso   1.00
N722   N     0.95069   0.16669   0.75000   0.00000  Uiso   1.00
O723   O     0.79375   0.22678   0.75001   0.00000  Uiso   1.00
O724   O     0.87294   0.22679   0.75001   0.00000  Uiso   1.00
O725   O     0.77441   0.16665   0.82549   0.00000  Uiso   1.00
O726   O     0.85360   0.16666   0.82549   0.00000  Uiso   1.00
O727   O     0.79373   0.10654   0.75000   0.00000  Uiso   1.00
O728   O     0.87292   0.10655   0.75000   0.00000  Uiso   1.00
O729   O     0.81306   0.16667   0.67451   0.00000  Uiso   1.00
O730   O     0.89225   0.16668   0.67451   0.00000  Uiso   1.00
O731   O     0.95991   0.13852   0.58399   0.00000  Uiso   1.00
H732   H     0.96347   0.16441   0.60231   0.00000  Uiso   1.00
O733   O     0.78151   0.04082   0.69040   0.00000  Uiso   1.00
H734   H     0.75236   0.05307   0.71652   0.00000  Uiso   1.00
O735   O     0.78765   0.29159   0.68285   0.00000  Uiso   1.00
H736   H     0.80526   0.26554   0.67013   0.00000  Uiso   1.00
O737   O     0.93157   0.21763   0.81687   0.00000  Uiso   1.00
H738   H     0.94794   0.23358   0.83852   0.00000  Uiso   1.00
H739   H     0.69399   0.21145   0.80998   0.00000  Uiso   1.00
O740   O     0.94294   0.09948   0.91140   0.00000  Uiso   1.00
H741   H     0.94308   0.09203   0.87547   0.00000  Uiso   1.00
H742   H     0.80792   0.18417   0.58898   0.00000  Uiso   1.00
O743   O     0.71015   0.19073   0.90998   0.00000  Uiso   1.00
H744   H     0.67894   0.20041   0.93546   0.00000  Uiso   1.00
C745   C     0.16743   0.57920   0.74817   0.00000  Uiso   1.00
C746   C     0.14399   0.49401   0.99037   0.00000  Uiso   1.00
C747   C     0.15517   0.48423   0.93648   0.00000  Uiso   1.00
C748   C     0.18069   0.48810   0.51537   0.00000  Uiso   1.00
C749   C     0.22582   0.46876   0.98778   0.00000  Uiso   1.00
C750   C     0.23352   0.45394   0.93671   0.00000  Uiso   1.00
C751   C     0.19776   0.46099   0.91210   0.00000  Uiso   1.00
C752   C     0.17405   0.50148   0.56693   0.00000  Uiso   1.00
C753   C     0.25535   0.47743   0.56323   0.00000  Uiso   1.00
C754   C     0.12303   0.49731   0.90849   0.00000  Uiso   1.00
C755   C     0.19494   0.64562   0.77283   0.00000  Uiso   1.00
C756   C     0.14001   0.49844   0.85040   0.00000  Uiso   1.00
C757   C     0.19409   0.35490   0.77382   0.00000  Uiso   1.00
C758   C     0.16634   0.37601   0.74765   0.00000  Uiso   1.00
C759   C     0.14030   0.35419   0.71879   0.00000  Uiso   1.00
C760   C     0.14330   0.64477   0.71533   0.00000  Uiso   1.00
C761   C     0.16894   0.62371   0.74469   0.00000  Uiso   1.00
C762   C     0.29890   0.52529   0.78356   0.00000  Uiso   1.00
C763   C     0.01553   0.52494   0.78349   0.00000  Uiso   1.00
C764   C     0.03428   0.47516   0.71639   0.00000  Uiso   1.00
C765   C     0.31801   0.47508   0.71650   0.00000  Uiso   1.00
C766   C     0.16659   0.42069   0.74917   0.00000  Uiso   1.00
C767   C     0.19338   0.49942   0.64960   0.00000  Uiso   1.00
C768   C     0.26265   0.46415   0.51192   0.00000  Uiso   1.00
C769   C     0.20931   0.49435   0.59212   0.00000  Uiso   1.00
C770   C     0.07590   0.51279   0.93642   0.00000  Uiso   1.00
C771   C     0.06278   0.51723   0.99085   0.00000  Uiso   1.00
C772   C     0.09637   0.50892   0.51725   0.00000  Uiso   1.00
Cu773  Cu    0.11978   0.49999   0.75000   0.00000  Uiso   1.00
Cu774  Cu    0.21355   0.50001   0.75000   0.00000  Uiso   1.00
H775   H     0.21423   0.37139   0.79604   0.00000  Uiso   1.00
H776   H     0.06060   0.45533   0.68933   0.00000  Uiso   1.00
H777   H     0.30689   0.45510   0.68968   0.00000  Uiso   1.00
H778   H     0.29769   0.45027   0.99098   0.00000  Uiso   1.00
H779   H     0.08318   0.51352   0.55904   0.00000  Uiso   1.00
H780   H     0.02668   0.52856   0.51295   0.00000  Uiso   1.00
H781   H     0.20326   0.44707   0.87406   0.00000  Uiso   1.00
H782   H     0.21508   0.62971   0.79501   0.00000  Uiso   1.00
N783   N     0.04931   0.49999   0.74999   0.00000  Uiso   1.00
N784   N     0.28402   0.50002   0.75000   0.00000  Uiso   1.00
O785   O     0.12708   0.56011   0.75001   0.00000  Uiso   1.00
O786   O     0.20627   0.56012   0.75001   0.00000  Uiso   1.00
O787   O     0.10775   0.49998   0.82549   0.00000  Uiso   1.00
O788   O     0.18694   0.49999   0.82549   0.00000  Uiso   1.00
O789   O     0.12706   0.43988   0.75000   0.00000  Uiso   1.00
O790   O     0.20625   0.43989   0.75000   0.00000  Uiso   1.00
O791   O     0.14640   0.50001   0.67451   0.00000  Uiso   1.00
O792   O     0.22559   0.50002   0.67451   0.00000  Uiso   1.00
O793   O     0.29324   0.47185   0.58399   0.00000  Uiso   1.00
H794   H     0.29680   0.49774   0.60231   0.00000  Uiso   1.00
O795   O     0.11484   0.37416   0.69040   0.00000  Uiso   1.00
H796   H     0.08570   0.38640   0.71652   0.00000  Uiso   1.00
O797   O     0.12099   0.62493   0.68285   0.00000  Uiso   1.00
H798   H     0.13860   0.59887   0.67013   0.00000  Uiso   1.00
O799   O     0.26490   0.55096   0.81687   0.00000  Uiso   1.00
H800   H     0.28127   0.56692   0.83852   0.00000  Uiso   1.00
H801   H     0.02732   0.54478   0.80998   0.00000  Uiso   1.00
O802   O     0.27627   0.43282   0.91140   0.00000  Uiso   1.00
H803   H     0.27641   0.42537   0.87547   0.00000  Uiso   1.00
H804   H     0.14125   0.51751   0.58898   0.00000  Uiso   1.00
O805   O     0.04348   0.52406   0.90998   0.00000  Uiso   1.00
H806   H     0.01227   0.53375   0.93546   0.00000  Uiso   1.00
C807   C     0.50076   0.57920   0.74817   0.00000  Uiso   1.00
C808   C     0.47732   0.49401   0.99037   0.00000  Uiso   1.00
C809   C     0.48850   0.48423   0.93648   0.00000  Uiso   1.00
C810   C     0.51402   0.48810   0.51537   0.00000  Uiso   1.00
C811   C     0.55915   0.46876   0.98778   0.00000  Uiso   1.00
C812   C     0.56685   0.45394   0.93671   0.00000  Uiso   1.00
C813   C     0.53110   0.46099   0.91210   0.00000  Uiso   1.00
C814   C     0.50739   0.50148   0.56693   0.00000  Uiso   1.00
C815   C     0.58868   0.47743   0.56323   0.00000  Uiso   1.00
C816   C     0.45636   0.49731   0.90849   0.00000  Uiso   1.00
C817   C     0.52827   0.64562   0.77283   0.00000  Uiso   1.00
C818   C     0.47334   0.49844   0.85040   0.00000  Uiso   1.00
C819   C     0.52742   0.35490   0.77382   0.00000  Uiso   1.00
C820   C     0.49967   0.37601   0.74765   0.00000  Uiso   1.00
C821   C     0.47363   0.35419   0.71879   0.00000  Uiso   1.00
C822   C     0.47663   0.64477   0.71533   0.00000  Uiso   1.00
C823   C     0.50228   0.62371   0.74469   0.00000  Uiso   1.00
C824   C     0.63223   0.52529   0.78356   0.00000  Uiso   1.00
C825   C     0.34886   0.52494   0.78349   0.00000  Uiso   1.00
C826   C     0.36762   0.47516   0.71639   0.00000  Uiso   1.00
C827   C     0.65134   0.47508   0.71650   0.00000  Uiso   1.00
C828   C     0.49993   0.42069   0.74917   0.00000  Uiso   1.00
C829   C     0.52671   0.49942   0.64960   0.00000  Uiso   1.00
C830   C     0.59598   0.46415   0.51192   0.00000  Uiso   1.00
C831   C     0.54264   0.49435   0.59212   0.00000  Uiso   1.00
C832   C     0.40923   0.51279   0.93642   0.00000  Uiso   1.00
C833   C     0.39612   0.51723   0.99085   0.00000  Uiso   1.00
C834   C     0.42970   0.50892   0.51725   0.00000  Uiso   1.00
Cu835  Cu    0.45311   0.49999   0.75000   0.00000  Uiso   1.00
Cu836  Cu    0.54689   0.50001   0.75000   0.00000  Uiso   1.00
H837   H     0.54757   0.37139   0.79604   0.00000  Uiso   1.00
H838   H     0.39394   0.45533   0.68933   0.00000  Uiso   1.00
H839   H     0.64023   0.45510   0.68968   0.00000  Uiso   1.00
H840   H     0.63102   0.45027   0.99098   0.00000  Uiso   1.00
H841   H     0.41651   0.51352   0.55904   0.00000  Uiso   1.00
H842   H     0.36001   0.52856   0.51295   0.00000  Uiso   1.00
H843   H     0.53659   0.44707   0.87406   0.00000  Uiso   1.00
H844   H     0.54842   0.62971   0.79501   0.00000  Uiso   1.00
N845   N     0.38265   0.49999   0.74999   0.00000  Uiso   1.00
N846   N     0.61735   0.50002   0.75000   0.00000  Uiso   1.00
O847   O     0.46042   0.56011   0.75001   0.00000  Uiso   1.00
O848   O     0.53961   0.56012   0.75001   0.00000  Uiso   1.00
O849   O     0.44108   0.49998   0.82549   0.00000  Uiso   1.00
O850   O     0.52027   0.49999   0.82549   0.00000  Uiso   1.00
O851   O     0.46039   0.43988   0.75000   0.00000  Uiso   1.00
O852   O     0.53958   0.43989   0.75000   0.00000  Uiso   1.00
O853   O     0.47973   0.50001   0.67451   0.00000  Uiso   1.00
O854   O     0.55892   0.50002   0.67451   0.00000  Uiso   1.00
O855   O     0.62658   0.47185   0.58399   0.00000  Uiso   1.00
H856   H     0.63013   0.49774   0.60231   0.00000  Uiso   1.00
O857   O     0.44818   0.37416   0.69040   0.00000  Uiso   1.00
H858   H     0.41903   0.38640   0.71652   0.00000  Uiso   1.00
O859   O     0.45432   0.62493   0.68285   0.00000  Uiso   1.00
H860   H     0.47193   0.59887   0.67013   0.00000  Uiso   1.00
O861   O     0.59823   0.55096   0.81687   0.00000  Uiso   1.00
H862   H     0.61461   0.56692   0.83852   0.00000  Uiso   1.00
H863   H     0.36065   0.54478   0.80998   0.00000  Uiso   1.00
O864   O     0.60961   0.43282   0.91140   0.00000  Uiso   1.00
H865   H     0.60974   0.42537   0.87547   0.00000  Uiso   1.00
H866   H     0.47458   0.51751   0.58898   0.00000  Uiso   1.00
O867   O     0.37681   0.52406   0.90998   0.00000  Uiso   1.00
H868   H     0.34560   0.53375   0.93546   0.00000  Uiso   1.00
C869   C     0.83409   0.57920   0.74817   0.00000  Uiso   1.00
C870   C     0.81066   0.49401   0.99037   0.00000  Uiso   1.00
C871   C     0.82184   0.48423   0.93648   0.00000  Uiso   1.00
C872   C     0.84736   0.48810   0.51537   0.00000  Uiso   1.00
C873   C     0.89249   0.46876   0.98778   0.00000  Uiso   1.00
C874   C     0.90018   0.45394   0.93671   0.00000  Uiso   1.00
C875   C     0.86443   0.46099   0.91210   0.00000  Uiso   1.00
C876   C     0.84072   0.50148   0.56693   0.00000  Uiso   1.00
C877   C     0.92201   0.47743   0.56323   0.00000  Uiso   1.00
C878   C     0.78969   0.49731   0.90849   0.00000  Uiso   1.00
C879   C     0.86161   0.64562   0.77283   0.00000  Uiso   1.00
C880   C     0.80668   0.49844   0.85040   0.00000  Uiso   1.00
C881   C     0.86075   0.35490   0.77382   0.00000  Uiso   1.00
C882   C     0.83301   0.37601   0.74765   0.00000  Uiso   1.00
C883   C     0.80697   0.35419   0.71879   0.00000  Uiso   1.00
C884   C     0.80997   0.64477   0.71533   0.00000  Uiso   1.00
C885   C     0.83561   0.62371   0.74469   0.00000  Uiso   1.00
C886   C     0.96557   0.52529   0.78356   0.00000  Uiso   1.00
C887   C     0.68220   0.52494   0.78349   0.00000  Uiso   1.00
C888   C     0.70095   0.47516   0.71639   0.00000  Uiso   1.00
C889   C     0.98467   0.47508   0.71650   0.00000  Uiso   1.00
C890   C     0.83326   0.42069   0.74917   0.00000  Uiso   1.00
C891   C     0.86004   0.49942   0.64960   0.00000  Uiso   1.00
C892   C     0.92931   0.46415   0.51192   0.00000  Uiso   1.00
C893   C     0.87598   0.49435   0.59212   0.00000  Uiso   1.00
C894   C     0.74257   0.51279   0.93642   0.00000  Uiso   1.00
C895   C     0.72945   0.51723   0.99085   0.00000  Uiso   1.00
C896   C     0.76303   0.50892   0.51725   0.00000  Uiso   1.00
Cu897  Cu    0.78645   0.49999   0.75000   0.00000  Uiso   1.00
Cu898  Cu    0.88022   0.50001   0.75000   0.00000  Uiso   1.00
H899   H     0.88090   0.37139   0.79604   0.00000  Uiso   1.00
H900   H     0.72727   0.45533   0.68933   0.00000  Uiso   1.00
H901   H     0.97356   0.45510   0.68968   0.00000  Uiso   1.00
H902   H     0.96435   0.45027   0.99098   0.00000  Uiso   1.00
H903   H     0.74985   0.51352   0.55904   0.00000  Uiso   1.00
H904   H     0.69335   0.52856   0.51295   0.00000  Uiso   1.00
H905   H     0.86992   0.44707   0.87406   0.00000  Uiso   1.00
H906   H     0.88175   0.62971   0.79501   0.00000  Uiso   1.00
N907   N     0.71598   0.49999   0.74999   0.00000  Uiso   1.00
N908   N     0.95069   0.50002   0.75000   0.00000  Uiso   1.00
O909   O     0.79375   0.56011   0.75001   0.00000  Uiso   1.00
O910   O     0.87294   0.56012   0.75001   0.00000  Uiso   1.00
O911   O     0.77441   0.49998   0.82549   0.00000  Uiso   1.00
O912   O     0.85360   0.49999   0.82549   0.00000  Uiso   1.00
O913   O     0.79373   0.43988   0.75000   0.00000  Uiso   1.00
O914   O     0.87292   0.43989   0.75000   0.00000  Uiso   1.00
O915   O     0.81306   0.50001   0.67451   0.00000  Uiso   1.00
O916   O     0.89225   0.50002   0.67451   0.00000  Uiso   1.00
O917   O     0.95991   0.47185   0.58399   0.00000  Uiso   1.00
H918   H     0.96347   0.49774   0.60231   0.00000  Uiso   1.00
O919   O     0.78151   0.37416   0.69040   0.00000  Uiso   1.00
H920   H     0.75236   0.38640   0.71652   0.00000  Uiso   1.00
O921   O     0.78765   0.62493   0.68285   0.00000  Uiso   1.00
H922   H     0.80526   0.59887   0.67013   0.00000  Uiso   1.00
O923   O     0.93157   0.55096   0.81687   0.00000  Uiso   1.00
H924   H     0.94794   0.56692   0.83852   0.00000  Uiso   1.00
H925   H     0.69399   0.54478   0.80998   0.00000  Uiso   1.00
O926   O     0.94294   0.43282   0.91140   0.00000  Uiso   1.00
H927   H     0.94308   0.42537   0.87547   0.00000  Uiso   1.00
H928   H     0.80792   0.51751   0.58898   0.00000  Uiso   1.00
O929   O     0.71015   0.52406   0.90998   0.00000  Uiso   1.00
H930   H     0.67894   0.53375   0.93546   0.00000  Uiso   1.00
C931   C     0.16743   0.91253   0.74817   0.00000  Uiso   1.00
C932   C     0.14399   0.82734   0.99037   0.00000  Uiso   1.00
C933   C     0.15517   0.81757   0.93648   0.00000  Uiso   1.00
C934   C     0.18069   0.82143   0.51537   0.00000  Uiso   1.00
C935   C     0.22582   0.80210   0.98778   0.00000  Uiso   1.00
C936   C     0.23352   0.78727   0.93671   0.00000  Uiso   1.00
C937   C     0.19776   0.79433   0.91210   0.00000  Uiso   1.00
C938   C     0.17405   0.83481   0.56693   0.00000  Uiso   1.00
C939   C     0.25535   0.81076   0.56323   0.00000  Uiso   1.00
C940   C     0.12303   0.83064   0.90849   0.00000  Uiso   1.00
C941   C     0.19494   0.97895   0.77283   0.00000  Uiso   1.00
C942   C     0.14001   0.83178   0.85040   0.00000  Uiso   1.00
C943   C     0.19409   0.68823   0.77382   0.00000  Uiso   1.00
C944   C     0.16634   0.70935   0.74765   0.00000  Uiso   1.00
C945   C     0.14030   0.68752   0.71879   0.00000  Uiso   1.00
C946   C     0.14330   0.97810   0.71533   0.00000  Uiso   1.00
C947   C     0.16894   0.95704   0.74469   0.00000  Uiso   1.00
C948   C     0.29890   0.85862   0.78356   0.00000  Uiso   1.00
C949   C     0.01553   0.85828   0.78349   0.00000  Uiso   1.00
C950   C     0.03428   0.80850   0.71639   0.00000  Uiso   1.00
C951   C     0.31801   0.80842   0.71650   0.00000  Uiso   1.00
C952   C     0.16659   0.75402   0.74917   0.00000  Uiso   1.00
C953   C     0.19338   0.83275   0.64960   0.00000  Uiso   1.00
C954   C     0.26265   0.79749   0.51192   0.00000  Uiso   1.00
C955   C     0.20931   0.82768   0.59212   0.00000  Uiso   1.00
C956   C     0.07590   0.84613   0.93642   0.00000  Uiso   1.00
C957   C     0.06278   0.85056   0.99085   0.00000  Uiso   1.00
C958   C     0.09637   0.84226   0.51725   0.00000  Uiso   1.00
Cu959  Cu    0.11978   0.83333   0.75000   0.00000  Uiso   1.00
Cu960  Cu    0.21355   0.83334   0.75000   0.00000  Uiso   1.00
H961   H     0.21423   0.70473   0.79604   0.00000  Uiso   1.00
H962   H     0.06060   0.78866   0.68933   0.00000  Uiso   1.00
H963   H     0.30689   0.78843   0.68968   0.00000  Uiso   1.00
H964   H     0.29769   0.78360   0.99098   0.00000  Uiso   1.00
H965   H     0.08318   0.84685   0.55904   0.00000  Uiso   1.00
H966   H     0.02668   0.86189   0.51295   0.00000  Uiso   1.00
H967   H     0.20326   0.78040   0.87406   0.00000  Uiso   1.00
H968   H     0.21508   0.96304   0.79501   0.00000  Uiso   1.00
N969   N     0.04931   0.83332   0.74999   0.00000  Uiso   1.00
N970   N     0.28402   0.83335   0.75000   0.00000  Uiso   1.00
O971   O     0.12708   0.89345   0.75001   0.00000  Uiso   1.00
O972   O     0.20627   0.89346   0.75001   0.00000  Uiso   1.00
O973   O     0.10775   0.83332   0.82549   0.00000  Uiso   1.00
O974   O     0.18694   0.83333   0.82549   0.00000  Uiso   1.00
O975   O     0.12706   0.77321   0.75000   0.00000  Uiso   1.00
O976   O     0.20625   0.77322   0.75000   0.00000  Uiso   1.00
O977   O     0.14640   0.83334   0.67451   0.00000  Uiso   1.00
O978   O     0.22559   0.83335   0.67451   0.00000  Uiso   1.00
O979   O     0.29324   0.80518   0.58399   0.00000  Uiso   1.00
H980   H     0.29680   0.83108   0.60231   0.00000  Uiso   1.00
O981   O     0.11484   0.70749   0.69040   0.00000  Uiso   1.00
H982   H     0.08570   0.71974   0.71652   0.00000  Uiso   1.00
O983   O     0.12099   0.95826   0.68285   0.00000  Uiso   1.00
H984   H     0.13860   0.93220   0.67013   0.00000  Uiso   1.00
O985   O     0.26490   0.88429   0.81687   0.00000  Uiso   1.00
H986   H     0.28127   0.90025   0.83852   0.00000  Uiso   1.00
H987   H     0.02732   0.87812   0.80998   0.00000  Uiso   1.00
O988   O     0.27627   0.76615   0.91140   0.00000  Uiso   1.00
H989   H     0.27641   0.75870   0.87547   0.00000  Uiso   1.00
H990   H     0.14125   0.85084   0.58898   0.00000  Uiso   1.00
O991   O     0.04348   0.85739   0.90998   0.00000  Uiso   1.00
H992   H     0.01227   0.86708   0.93546   0.00000  Uiso   1.00
C993   C     0.50076   0.91253   0.74817   0.00000  Uiso   1.00
C994   C     0.47732   0.82734   0.99037   0.00000  Uiso   1.00
C995   C     0.48850   0.81757   0.93648   0.00000  Uiso   1.00
C996   C     0.51402   0.82143   0.51537   0.00000  Uiso   1.00
C997   C     0.55915   0.80210   0.98778   0.00000  Uiso   1.00
C998   C     0.56685   0.78727   0.93671   0.00000  Uiso   1.00
C999   C     0.53110   0.79433   0.91210   0.00000  Uiso   1.00
C1000  C     0.50739   0.83481   0.56693   0.00000  Uiso   1.00
C1001  C     0.58868   0.81076   0.56323   0.00000  Uiso   1.00
C1002  C     0.45636   0.83064   0.90849   0.00000  Uiso   1.00
C1003  C     0.52827   0.97895   0.77283   0.00000  Uiso   1.00
C1004  C     0.47334   0.83178   0.85040   0.00000  Uiso   1.00
C1005  C     0.52742   0.68823   0.77382   0.00000  Uiso   1.00
C1006  C     0.49967   0.70935   0.74765   0.00000  Uiso   1.00
C1007  C     0.47363   0.68752   0.71879   0.00000  Uiso   1.00
C1008  C     0.47663   0.97810   0.71533   0.00000  Uiso   1.00
C1009  C     0.50228   0.95704   0.74469   0.00000  Uiso   1.00
C1010  C     0.63223   0.85862   0.78356   0.00000  Uiso   1.00
C1011  C     0.34886   0.85828   0.78349   0.00000  Uiso   1.00
C1012  C     0.36762   0.80850   0.71639   0.00000  Uiso   1.00
C1013  C     0.65134   0.80842   0.71650   0.00000  Uiso   1.00
C1014  C     0.49993   0.75402   0.74917   0.00000  Uiso   1.00
C1015  C     0.52671   0.83275   0.64960   0.00000  Uiso   1.00
C1016  C     0.59598   0.79749   0.51192   0.00000  Uiso   1.00
C1017  C     0.54264   0.82768   0.59212   0.00000  Uiso   1.00
C1018  C     0.40923   0.84613   0.93642   0.00000  Uiso   1.00
C1019  C     0.39612   0.85056   0.99085   0.00000  Uiso   1.00
C1020  C     0.42970   0.84226   0.51725   0.00000  Uiso   1.00
Cu1021 Cu    0.45311   0.83333   0.75000   0.00000  Uiso   1.00
Cu1022 Cu    0.54689   0.83334   0.75000   0.00000  Uiso   1.00
H1023  H     0.54757   0.70473   0.79604   0.00000  Uiso   1.00
H1024  H     0.39394   0.78866   0.68933   0.00000  Uiso   1.00
H1025  H     0.64023   0.78843   0.68968   0.00000  Uiso   1.00
H1026  H     0.63102   0.78360   0.99098   0.00000  Uiso   1.00
H1027  H     0.41651   0.84685   0.55904   0.00000  Uiso   1.00
H1028  H     0.36001   0.86189   0.51295   0.00000  Uiso   1.00
H1029  H     0.53659   0.78040   0.87406   0.00000  Uiso   1.00
H1030  H     0.54842   0.96304   0.79501   0.00000  Uiso   1.00
N1031  N     0.38265   0.83332   0.74999   0.00000  Uiso   1.00
N1032  N     0.61735   0.83335   0.75000   0.00000  Uiso   1.00
O1033  O     0.46042   0.89345   0.75001   0.00000  Uiso   1.00
O1034  O     0.53961   0.89346   0.75001   0.00000  Uiso   1.00
O1035  O     0.44108   0.83332   0.82549   0.00000  Uiso   1.00
O1036  O     0.52027   0.83333   0.82549   0.00000  Uiso   1.00
O1037  O     0.46039   0.77321   0.75000   0.00000  Uiso   1.00
O1038  O     0.53958   0.77322   0.75000   0.00000  Uiso   1.00
O1039  O     0.47973   0.83334   0.67451   0.00000  Uiso   1.00
O1040  O     0.55892   0.83335   0.67451   0.00000  Uiso   1.00
O1041  O     0.62658   0.80518   0.58399   0.00000  Uiso   1.00
H1042  H     0.63013   0.83108   0.60231   0.00000  Uiso   1.00
O1043  O     0.44818   0.70749   0.69040   0.00000  Uiso   1.00
H1044  H     0.41903   0.71974   0.71652   0.00000  Uiso   1.00
O1045  O     0.45432   0.95826   0.68285   0.00000  Uiso   1.00
H1046  H     0.47193   0.93220   0.67013   0.00000  Uiso   1.00
O1047  O     0.59823   0.88429   0.81687   0.00000  Uiso   1.00
H1048  H     0.61461   0.90025   0.83852   0.00000  Uiso   1.00
H1049  H     0.36065   0.87812   0.80998   0.00000  Uiso   1.00
O1050  O     0.60961   0.76615   0.91140   0.00000  Uiso   1.00
H1051  H     0.60974   0.75870   0.87547   0.00000  Uiso   1.00
H1052  H     0.47458   0.85084   0.58898   0.00000  Uiso   1.00
O1053  O     0.37681   0.85739   0.90998   0.00000  Uiso   1.00
H1054  H     0.34560   0.86708   0.93546   0.00000  Uiso   1.00
C1055  C     0.83409   0.91253   0.74817   0.00000  Uiso   1.00
C1056  C     0.81066   0.82734   0.99037   0.00000  Uiso   1.00
C1057  C     0.82184   0.81757   0.93648   0.00000  Uiso   1.00
C1058  C     0.84736   0.82143   0.51537   0.00000  Uiso   1.00
C1059  C     0.89249   0.80210   0.98778   0.00000  Uiso   1.00
C1060  C     0.90018   0.78727   0.93671   0.00000  Uiso   1.00
C1061  C     0.86443   0.79433   0.91210   0.00000  Uiso   1.00
C1062  C     0.84072   0.83481   0.56693   0.00000  Uiso   1.00
C1063  C     0.92201   0.81076   0.56323   0.00000  Uiso   1.00
C1064  C     0.78969   0.83064   0.90849   0.00000  Uiso   1.00
C1065  C     0.86161   0.97895   0.77283   0.00000  Uiso   1.00
C1066  C     0.80668   0.83178   0.85040   0.00000  Uiso   1.00
C1067  C     0.86075   0.68823   0.77382   0.00000  Uiso   1.00
C1068  C     0.83301   0.70935   0.74765   0.00000  Uiso   1.00
C1069  C     0.80697   0.68752   0.71879   0.00000  Uiso   1.00
C1070  C     0.80997   0.97810   0.71533   0.00000  Uiso   1.00
C1071  C     0.83561   0.95704   0.74469   0.00000  Uiso   1.00
C1072  C     0.96557   0.85862   0.78356   0.00000  Uiso   1.00
C1073  C     0.68220   0.85828   0.78349   0.00000  Uiso   1.00
C1074  C     0.70095   0.80850   0.71639   0.00000  Uiso   1.00
C1075  C     0.98467   0.80842   0.71650   0.00000  Uiso   1.00
C1076  C     0.83326   0.75402   0.74917   0.00000  Uiso   1.00
C1077  C     0.86004   0.83275   0.64960   0.00000  Uiso   1.00
C1078  C     0.92931   0.79749   0.51192   0.00000  Uiso   1.00
C1079  C     0.87598   0.82768   0.59212   0.00000  Uiso   1.00
C1080  C     0.74257   0.84613   0.93642   0.00000  Uiso   1.00
C1081  C     0.72945   0.85056   0.99085   0.00000  Uiso   1.00
C1082  C     0.76303   0.84226   0.51725   0.00000  Uiso   1.00
Cu1083 Cu    0.78645   0.83333   0.75000   0.00000  Uiso   1.00
Cu1084 Cu    0.88022   0.83334   0.75000   0.00000  Uiso   1.00
H1085  H     0.88090   0.70473   0.79604   0.00000  Uiso   1.00
H1086  H     0.72727   0.78866   0.68933   0.00000  Uiso   1.00
H1087  H     0.97356   0.78843   0.68968   0.00000  Uiso   1.00
H1088  H     0.96435   0.78360   0.99098   0.00000  Uiso   1.00
H1089  H     0.74985   0.84685   0.55904   0.00000  Uiso   1.00
H1090  H     0.69335   0.86189   0.51295   0.00000  Uiso   1.00
H1091  H     0.86992   0.78040   0.87406   0.00000  Uiso   1.00
H1092  H     0.88175   0.96304   0.79501   0.00000  Uiso   1.00
N1093  N     0.71598   0.83332   0.74999   0.00000  Uiso   1.00
N1094  N     0.95069   0.83335   0.75000   0.00000  Uiso   1.00
O1095  O     0.79375   0.89345   0.75001   0.00000  Uiso   1.00
O1096  O     0.87294   0.89346   0.75001   0.00000  Uiso   1.00
O1097  O     0.77441   0.83332   0.82549   0.00000  Uiso   1.00
O1098  O     0.85360   0.83333   0.82549   0.00000  Uiso   1.00
O1099  O     0.79373   0.77321   0.75000   0.00000  Uiso   1.00
O1100  O     0.87292   0.77322   0.75000   0.00000  Uiso   1.00
O1101  O     0.81306   0.83334   0.67451   0.00000  Uiso   1.00
O1102  O     0.89225   0.83335   0.67451   0.00000  Uiso   1.00
O1103  O     0.95991   0.80518   0.58399   0.00000  Uiso   1.00
H1104  H     0.96347   0.83108   0.60231   0.00000  Uiso   1.00
O1105  O     0.78151   0.70749   0.69040   0.00000  Uiso   1.00
H1106  H     0.75236   0.71974   0.71652   0.00000  Uiso   1.00
O1107  O     0.78765   0.95826   0.68285   0.00000  Uiso   1.00
H1108  H     0.80526   0.93220   0.67013   0.00000  Uiso   1.00
O1109  O     0.93157   0.88429   0.81687   0.00000  Uiso   1.00
H1110  H     0.94794   0.90025   0.83852   0.00000  Uiso   1.00
H1111  H     0.69399   0.87812   0.80998   0.00000  Uiso   1.00
O1112  O     0.94294   0.76615   0.91140   0.00000  Uiso   1.00
H1113  H     0.94308   0.75870   0.87547   0.00000  Uiso   1.00
H1114  H     0.80792   0.85084   0.58898   0.00000  Uiso   1.00
O1115  O     0.71015   0.85739   0.90998   0.00000  Uiso   1.00
H1116  H     0.67894   0.86708   0.93546   0.00000  Uiso   1.00
loop_
_geom_bond_atom_site_label_1
_geom_bond_atom_site_label_2
_geom_bond_distance
_geom_bond_site_symmetry_2
_ccdc_geom_bond_type
C1     C17     1.447   .     S
C1     O41     1.289   .     A
C1     O42     1.289   .     A
C2     C3      1.416   .     A
C2     C562    1.424   .     S
C2     C586    1.415   .     S
C3     C10     1.424   .     A
C3     C7      1.411   .     A
C4     C8      1.404   .     A
C4     C560    1.424   1_554 S
C4     C563    1.420   1_554 S
C5     C6      1.402   .     A
C5     C562    1.420   .     S
C5     C582    1.405   .     S
C6     O58     1.384   .     S
C6     C7      1.399   .     A
C7     H37     1.080   .     S
C8     C25     1.398   .     A
C8     H60     1.076   .     S
C9     C24     1.393   .     A
C9     O49     1.376   .     S
C9     C25     1.416   .     A
C10    C12     1.484   .     S
C10    C26     1.416   .     A
C11    H38     1.084   .     S
C11    C17     1.398   .     A
C11    C199    1.382   .     S
C12    O44     1.299   .     A
C12    O43     1.297   .     A
C13    C14     1.398   .     A
C13    H31     1.084   .     S
C13    C383    1.382   1_545 S
C14    C15     1.411   .     A
C14    C22     1.449   .     S
C15    O51     1.375   .     S
C15    C388    1.390   1_545 S
C16    O53     1.382   .     S
C16    C17     1.414   .     A
C16    C201    1.390   .     S
C18    O55     1.378   .     S
C18    N40     1.372   .     A
C18    C81     1.426   .     S
C19    N39     1.363   .     A
C19    H57     1.082   .     S
C19    C142    1.426   1_455 S
C20    H32     1.081   .     S
C20    N39     1.367   .     A
C20    C145    1.415   1_455 S
C21    H33     1.082   .     S
C21    N40     1.366   .     A
C21    C82     1.415   .     S
C22    O46     1.293   .     A
C22    O45     1.288   .     A
C23    C25     1.476   .     S
C23    O47     1.300   .     A
C23    O48     1.294   .     A
C24    C563    1.405   1_554 S
C24    H592    1.084   1_554 S
C26    C27     1.399   .     A
C26    O61     1.383   .     S
C27    C586    1.387   .     S
C27    H594    1.083   .     S
C28    H35     1.077   .     S
C28    C585    1.387   1_554 S
C28    C560    1.415   1_554 S
Cu29   Cu30    2.676   .     S
Cu29   N39     2.011   .     S
Cu29   O43     1.949   .     S
Cu29   O47     1.932   .     S
Cu29   O41     1.959   .     S
Cu29   O45     1.962   .     S
Cu30   N40     2.011   .     S
Cu30   O44     1.932   .     S
Cu30   O46     1.959   .     S
Cu30   O48     1.949   .     S
Cu30   O42     1.962   .     S
H34    C582    1.084   .     S
H36    C585    1.083   1_554 S
O49    H50     0.990   .     S
O51    H52     0.991   .     S
O53    H54     0.990   .     S
O55    H56     0.992   .     S
O58    H59     0.992   .     S
O61    H62     0.992   .     S
C63    C79     1.447   .     S
C63    O103    1.289   .     A
C63    O104    1.289   .     A
C64    C65     1.416   .     A
C64    C624    1.424   .     S
C64    C648    1.415   .     S
C65    C72     1.424   .     A
C65    C69     1.411   .     A
C66    C70     1.404   .     A
C66    C622    1.424   1_554 S
C66    C625    1.420   1_554 S
C67    C68     1.402   .     A
C67    C624    1.420   .     S
C67    C644    1.405   .     S
C68    O120    1.384   .     S
C68    C69     1.399   .     A
C69    H99     1.080   .     S
C70    C87     1.398   .     A
C70    H122    1.076   .     S
C71    C86     1.393   .     A
C71    O111    1.376   .     S
C71    C87     1.416   .     A
C72    C74     1.484   .     S
C72    C88     1.416   .     A
C73    H100    1.084   .     S
C73    C79     1.398   .     A
C73    C261    1.382   .     S
C74    O106    1.299   .     A
C74    O105    1.297   .     A
C75    C76     1.398   .     A
C75    H93     1.084   .     S
C75    C445    1.382   1_545 S
C76    C77     1.411   .     A
C76    C84     1.449   .     S
C77    O113    1.375   .     S
C77    C450    1.390   1_545 S
C78    O115    1.382   .     S
C78    C79     1.414   .     A
C78    C263    1.390   .     S
C80    O117    1.378   .     S
C80    N102    1.372   .     A
C80    C143    1.426   .     S
C81    N101    1.363   .     A
C81    H119    1.082   .     S
C82    H94     1.081   .     S
C82    N101    1.367   .     A
C83    H95     1.082   .     S
C83    N102    1.366   .     A
C83    C144    1.415   .     S
C84    O108    1.293   .     A
C84    O107    1.288   .     A
C85    C87     1.476   .     S
C85    O109    1.300   .     A
C85    O110    1.294   .     A
C86    C625    1.405   1_554 S
C86    H654    1.084   1_554 S
C88    C89     1.399   .     A
C88    O123    1.383   .     S
C89    C648    1.387   .     S
C89    H656    1.083   .     S
C90    H97     1.077   .     S
C90    C647    1.387   1_554 S
C90    C622    1.415   1_554 S
Cu91   Cu92    2.676   .     S
Cu91   N101    2.011   .     S
Cu91   O105    1.949   .     S
Cu91   O109    1.932   .     S
Cu91   O103    1.959   .     S
Cu91   O107    1.962   .     S
Cu92   N102    2.011   .     S
Cu92   O106    1.932   .     S
Cu92   O108    1.959   .     S
Cu92   O110    1.949   .     S
Cu92   O104    1.962   .     S
H96    C644    1.084   .     S
H98    C647    1.083   1_554 S
O111   H112    0.990   .     S
O113   H114    0.991   .     S
O115   H116    0.990   .     S
O117   H118    0.992   .     S
O120   H121    0.992   .     S
O123   H124    0.992   .     S
C125   C141    1.447   .     S
C125   O165    1.289   .     A
C125   O166    1.289   .     A
C126   C127    1.416   .     A
C126   C686    1.424   .     S
C126   C710    1.415   .     S
C127   C134    1.424   .     A
C127   C131    1.411   .     A
C128   C132    1.404   .     A
C128   C684    1.424   1_554 S
C128   C687    1.420   1_554 S
C129   C130    1.402   .     A
C129   C686    1.420   .     S
C129   C706    1.405   .     S
C130   O182    1.384   .     S
C130   C131    1.399   .     A
C131   H161    1.080   .     S
C132   C149    1.398   .     A
C132   H184    1.076   .     S
C133   C148    1.393   .     A
C133   O173    1.376   .     S
C133   C149    1.416   .     A
C134   C136    1.484   .     S
C134   C150    1.416   .     A
C135   H162    1.084   .     S
C135   C141    1.398   .     A
C135   C323    1.382   .     S
C136   O168    1.299   .     A
C136   O167    1.297   .     A
C137   C138    1.398   .     A
C137   H155    1.084   .     S
C137   C507    1.382   1_545 S
C138   C139    1.411   .     A
C138   C146    1.449   .     S
C139   O175    1.375   .     S
C139   C512    1.390   1_545 S
C140   O177    1.382   .     S
C140   C141    1.414   .     A
C140   C325    1.390   .     S
C142   O179    1.378   .     S
C142   N164    1.372   .     A
C142   C19     1.426   1_655 S
C143   N163    1.363   .     A
C143   H181    1.082   .     S
C144   H156    1.081   .     S
C144   N163    1.367   .     A
C145   H157    1.082   .     S
C145   N164    1.366   .     A
C145   C20     1.415   1_655 S
C146   O170    1.293   .     A
C146   O169    1.288   .     A
C147   C149    1.476   .     S
C147   O171    1.300   .     A
C147   O172    1.294   .     A
C148   C687    1.405   1_554 S
C148   H716    1.084   1_554 S
C150   C151    1.399   .     A
C150   O185    1.383   .     S
C151   C710    1.387   .     S
C151   H718    1.083   .     S
C152   H159    1.077   .     S
C152   C709    1.387   1_554 S
C152   C684    1.415   1_554 S
Cu153  Cu154   2.676   .     S
Cu153  N163    2.011   .     S
Cu153  O167    1.949   .     S
Cu153  O171    1.932   .     S
Cu153  O165    1.959   .     S
Cu153  O169    1.962   .     S
Cu154  N164    2.011   .     S
Cu154  O168    1.932   .     S
Cu154  O170    1.959   .     S
Cu154  O172    1.949   .     S
Cu154  O166    1.962   .     S
H158   C706    1.084   .     S
H160   C709    1.083   1_554 S
O173   H174    0.990   .     S
O175   H176    0.991   .     S
O177   H178    0.990   .     S
O179   H180    0.992   .     S
O182   H183    0.992   .     S
O185   H186    0.992   .     S
C187   C203    1.447   .     S
C187   O227    1.289   .     A
C187   O228    1.289   .     A
C188   C189    1.416   .     A
C188   C748    1.424   .     S
C188   C772    1.415   .     S
C189   C196    1.424   .     A
C189   C193    1.411   .     A
C190   C194    1.404   .     A
C190   C746    1.424   1_554 S
C190   C749    1.420   1_554 S
C191   C192    1.402   .     A
C191   C748    1.420   .     S
C191   C768    1.405   .     S
C192   O244    1.384   .     S
C192   C193    1.399   .     A
C193   H223    1.080   .     S
C194   C211    1.398   .     A
C194   H246    1.076   .     S
C195   C210    1.393   .     A
C195   O235    1.376   .     S
C195   C211    1.416   .     A
C196   C198    1.484   .     S
C196   C212    1.416   .     A
C197   H224    1.084   .     S
C197   C203    1.398   .     A
C197   C385    1.382   .     S
C198   O230    1.299   .     A
C198   O229    1.297   .     A
C199   C200    1.398   .     A
C199   H217    1.084   .     S
C200   C201    1.411   .     A
C200   C208    1.449   .     S
C201   O237    1.375   .     S
C202   O239    1.382   .     S
C202   C203    1.414   .     A
C202   C387    1.390   .     S
C204   O241    1.378   .     S
C204   N226    1.372   .     A
C204   C267    1.426   .     S
C205   N225    1.363   .     A
C205   H243    1.082   .     S
C205   C328    1.426   1_455 S
C206   H218    1.081   .     S
C206   N225    1.367   .     A
C206   C331    1.415   1_455 S
C207   H219    1.082   .     S
C207   N226    1.366   .     A
C207   C268    1.415   .     S
C208   O232    1.293   .     A
C208   O231    1.288   .     A
C209   C211    1.476   .     S
C209   O233    1.300   .     A
C209   O234    1.294   .     A
C210   C749    1.405   1_554 S
C210   H778    1.084   1_554 S
C212   C213    1.399   .     A
C212   O247    1.383   .     S
C213   C772    1.387   .     S
C213   H780    1.083   .     S
C214   H221    1.077   .     S
C214   C771    1.387   1_554 S
C214   C746    1.415   1_554 S
Cu215  Cu216   2.676   .     S
Cu215  N225    2.011   .     S
Cu215  O229    1.949   .     S
Cu215  O233    1.932   .     S
Cu215  O227    1.959   .     S
Cu215  O231    1.962   .     S
Cu216  N226    2.011   .     S
Cu216  O230    1.932   .     S
Cu216  O232    1.959   .     S
Cu216  O234    1.949   .     S
Cu216  O228    1.962   .     S
H220   C768    1.084   .     S
H222   C771    1.083   1_554 S
O235   H236    0.990   .     S
O237   H238    0.991   .     S
O239   H240    0.990   .     S
O241   H242    0.992   .     S
O244   H245    0.992   .     S
O247   H248    0.992   .     S
C249   C265    1.447   .     S
C249   O289    1.289   .     A
C249   O290    1.289   .     A
C250   C251    1.416   .     A
C250   C810    1.424   .     S
C250   C834    1.415   .     S
C251   C258    1.424   .     A
C251   C255    1.411   .     A
C252   C256    1.404   .     A
C252   C808    1.424   1_554 S
C252   C811    1.420   1_554 S
C253   C254    1.402   .     A
C253   C810    1.420   .     S
C253   C830    1.405   .     S
C254   O306    1.384   .     S
C254   C255    1.399   .     A
C255   H285    1.080   .     S
C256   C273    1.398   .     A
C256   H308    1.076   .     S
C257   C272    1.393   .     A
C257   O297    1.376   .     S
C257   C273    1.416   .     A
C258   C260    1.484   .     S
C258   C274    1.416   .     A
C259   H286    1.084   .     S
C259   C265    1.398   .     A
C259   C447    1.382   .     S
C260   O292    1.299   .     A
C260   O291    1.297   .     A
C261   C262    1.398   .     A
C261   H279    1.084   .     S
C262   C263    1.411   .     A
C262   C270    1.449   .     S
C263   O299    1.375   .     S
C264   O301    1.382   .     S
C264   C265    1.414   .     A
C264   C449    1.390   .     S
C266   O303    1.378   .     S
C266   N288    1.372   .     A
C266   C329    1.426   .     S
C267   N287    1.363   .     A
C267   H305    1.082   .     S
C268   H280    1.081   .     S
C268   N287    1.367   .     A
C269   H281    1.082   .     S
C269   N288    1.366   .     A
C269   C330    1.415   .     S
C270   O294    1.293   .     A
C270   O293    1.288   .     A
C271   C273    1.476   .     S
C271   O295    1.300   .     A
C271   O296    1.294   .     A
C272   C811    1.405   1_554 S
C272   H840    1.084   1_554 S
C274   C275    1.399   .     A
C274   O309    1.383   .     S
C275   C834    1.387   .     S
C275   H842    1.083   .     S
C276   H283    1.077   .     S
C276   C833    1.387   1_554 S
C276   C808    1.415   1_554 S
Cu277  Cu278   2.676   .     S
Cu277  N287    2.011   .     S
Cu277  O291    1.949   .     S
Cu277  O295    1.932   .     S
Cu277  O289    1.959   .     S
Cu277  O293    1.962   .     S
Cu278  N288    2.011   .     S
Cu278  O292    1.932   .     S
Cu278  O294    1.959   .     S
Cu278  O296    1.949   .     S
Cu278  O290    1.962   .     S
H282   C830    1.084   .     S
H284   C833    1.083   1_554 S
O297   H298    0.990   .     S
O299   H300    0.991   .     S
O301   H302    0.990   .     S
O303   H304    0.992   .     S
O306   H307    0.992   .     S
O309   H310    0.992   .     S
C311   C327    1.447   .     S
C311   O351    1.289   .     A
C311   O352    1.289   .     A
C312   C313    1.416   .     A
C312   C872    1.424   .     S
C312   C896    1.415   .     S
C313   C320    1.424   .     A
C313   C317    1.411   .     A
C314   C318    1.404   .     A
C314   C870    1.424   1_554 S
C314   C873    1.420   1_554 S
C315   C316    1.402   .     A
C315   C872    1.420   .     S
C315   C892    1.405   .     S
C316   O368    1.384   .     S
C316   C317    1.399   .     A
C317   H347    1.080   .     S
C318   C335    1.398   .     A
C318   H370    1.076   .     S
C319   C334    1.393   .     A
C319   O359    1.376   .     S
C319   C335    1.416   .     A
C320   C322    1.484   .     S
C320   C336    1.416   .     A
C321   H348    1.084   .     S
C321   C327    1.398   .     A
C321   C509    1.382   .     S
C322   O354    1.299   .     A
C322   O353    1.297   .     A
C323   C324    1.398   .     A
C323   H341    1.084   .     S
C324   C325    1.411   .     A
C324   C332    1.449   .     S
C325   O361    1.375   .     S
C326   O363    1.382   .     S
C326   C327    1.414   .     A
C326   C511    1.390   .     S
C328   O365    1.378   .     S
C328   N350    1.372   .     A
C328   C205    1.426   1_655 S
C329   N349    1.363   .     A
C329   H367    1.082   .     S
C330   H342    1.081   .     S
C330   N349    1.367   .     A
C331   H343    1.082   .     S
C331   N350    1.366   .     A
C331   C206    1.415   1_655 S
C332   O356    1.293   .     A
C332   O355    1.288   .     A
C333   C335    1.476   .     S
C333   O357    1.300   .     A
C333   O358    1.294   .     A
C334   C873    1.405   1_554 S
C334   H902    1.084   1_554 S
C336   C337    1.399   .     A
C336   O371    1.383   .     S
C337   C896    1.387   .     S
C337   H904    1.083   .     S
C338   H345    1.077   .     S
C338   C895    1.387   1_554 S
C338   C870    1.415   1_554 S
Cu339  Cu340   2.676   .     S
Cu339  N349    2.011   .     S
Cu339  O353    1.949   .     S
Cu339  O357    1.932   .     S
Cu339  O351    1.959   .     S
Cu339  O355    1.962   .     S
Cu340  N350    2.011   .     S
Cu340  O354    1.932   .     S
Cu340  O356    1.959   .     S
Cu340  O358    1.949   .     S
Cu340  O352    1.962   .     S
H344   C892    1.084   .     S
H346   C895    1.083   1_554 S
O359   H360    0.990   .     S
O361   H362    0.991   .     S
O363   H364    0.990   .     S
O365   H366    0.992   .     S
O368   H369    0.992   .     S
O371   H372    0.992   .     S
C373   C389    1.447   .     S
C373   O413    1.289   .     A
C373   O414    1.289   .     A
C374   C375    1.416   .     A
C374   C934    1.424   .     S
C374   C958    1.415   .     S
C375   C382    1.424   .     A
C375   C379    1.411   .     A
C376   C380    1.404   .     A
C376   C932    1.424   1_554 S
C376   C935    1.420   1_554 S
C377   C378    1.402   .     A
C377   C934    1.420   .     S
C377   C954    1.405   .     S
C378   O430    1.384   .     S
C378   C379    1.399   .     A
C379   H409    1.080   .     S
C380   C397    1.398   .     A
C380   H432    1.076   .     S
C381   C396    1.393   .     A
C381   O421    1.376   .     S
C381   C397    1.416   .     A
C382   C384    1.484   .     S
C382   C398    1.416   .     A
C383   H410    1.084   .     S
C383   C389    1.398   .     A
C383   C13     1.382   1_565 S
C384   O416    1.299   .     A
C384   O415    1.297   .     A
C385   C386    1.398   .     A
C385   H403    1.084   .     S
C386   C387    1.411   .     A
C386   C394    1.449   .     S
C387   O423    1.375   .     S
C388   O425    1.382   .     S
C388   C389    1.414   .     A
C388   C15     1.390   1_565 S
C390   O427    1.378   .     S
C390   N412    1.372   .     A
C390   C453    1.426   .     S
C391   N411    1.363   .     A
C391   H429    1.082   .     S
C391   C514    1.426   1_455 S
C392   H404    1.081   .     S
C392   N411    1.367   .     A
C392   C517    1.415   1_455 S
C393   H405    1.082   .     S
C393   N412    1.366   .     A
C393   C454    1.415   .     S
C394   O418    1.293   .     A
C394   O417    1.288   .     A
C395   C397    1.476   .     S
C395   O419    1.300   .     A
C395   O420    1.294   .     A
C396   C935    1.405   1_554 S
C396   H964    1.084   1_554 S
C398   C399    1.399   .     A
C398   O433    1.383   .     S
C399   C958    1.387   .     S
C399   H966    1.083   .     S
C400   H407    1.077   .     S
C400   C957    1.387   1_554 S
C400   C932    1.415   1_554 S
Cu401  Cu402   2.676   .     S
Cu401  N411    2.011   .     S
Cu401  O415    1.949   .     S
Cu401  O419    1.932   .     S
Cu401  O413    1.959   .     S
Cu401  O417    1.962   .     S
Cu402  N412    2.011   .     S
Cu402  O416    1.932   .     S
Cu402  O418    1.959   .     S
Cu402  O420    1.949   .     S
Cu402  O414    1.962   .     S
H406   C954    1.084   .     S
H408   C957    1.083   1_554 S
O421   H422    0.990   .     S
O423   H424    0.991   .     S
O425   H426    0.990   .     S
O427   H428    0.992   .     S
O430   H431    0.992   .     S
O433   H434    0.992   .     S
C435   C451    1.447   .     S
C435   O475    1.289   .     A
C435   O476    1.289   .     A
C436   C437    1.416   .     A
C436   C996    1.424   .     S
C436   C1020   1.415   .     S
C437   C444    1.424   .     A
C437   C441    1.411   .     A
C438   C442    1.404   .     A
C438   C994    1.424   1_554 S
C438   C997    1.420   1_554 S
C439   C440    1.402   .     A
C439   C996    1.420   .     S
C439   C1016   1.405   .     S
C440   O492    1.384   .     S
C440   C441    1.399   .     A
C441   H471    1.080   .     S
C442   C459    1.398   .     A
C442   H494    1.076   .     S
C443   C458    1.393   .     A
C443   O483    1.376   .     S
C443   C459    1.416   .     A
C444   C446    1.484   .     S
C444   C460    1.416   .     A
C445   H472    1.084   .     S
C445   C451    1.398   .     A
C445   C75     1.382   1_565 S
C446   O478    1.299   .     A
C446   O477    1.297   .     A
C447   C448    1.398   .     A
C447   H465    1.084   .     S
C448   C449    1.411   .     A
C448   C456    1.449   .     S
C449   O485    1.375   .     S
C450   O487    1.382   .     S
C450   C451    1.414   .     A
C450   C77     1.390   1_565 S
C452   O489    1.378   .     S
C452   N474    1.372   .     A
C452   C515    1.426   .     S
C453   N473    1.363   .     A
C453   H491    1.082   .     S
C454   H466    1.081   .     S
C454   N473    1.367   .     A
C455   H467    1.082   .     S
C455   N474    1.366   .     A
C455   C516    1.415   .     S
C456   O480    1.293   .     A
C456   O479    1.288   .     A
C457   C459    1.476   .     S
C457   O481    1.300   .     A
C457   O482    1.294   .     A
C458   C997    1.405   1_554 S
C458   H1026   1.084   1_554 S
C460   C461    1.399   .     A
C460   O495    1.383   .     S
C461   C1020   1.387   .     S
C461   H1028   1.083   .     S
C462   H469    1.077   .     S
C462   C1019   1.387   1_554 S
C462   C994    1.415   1_554 S
Cu463  Cu464   2.676   .     S
Cu463  N473    2.011   .     S
Cu463  O477    1.949   .     S
Cu463  O481    1.932   .     S
Cu463  O475    1.959   .     S
Cu463  O479    1.962   .     S
Cu464  N474    2.011   .     S
Cu464  O478    1.932   .     S
Cu464  O480    1.959   .     S
Cu464  O482    1.949   .     S
Cu464  O476    1.962   .     S
H468   C1016   1.084   .     S
H470   C1019   1.083   1_554 S
O483   H484    0.990   .     S
O485   H486    0.991   .     S
O487   H488    0.990   .     S
O489   H490    0.992   .     S
O492   H493    0.992   .     S
O495   H496    0.992   .     S
C497   C513    1.447   .     S
C497   O537    1.289   .     A
C497   O538    1.289   .     A
C498   C499    1.416   .     A
C498   C1058   1.424   .     S
C498   C1082   1.415   .     S
C499   C506    1.424   .     A
C499   C503    1.411   .     A
C500   C504    1.404   .     A
C500   C1056   1.424   1_554 S
C500   C1059   1.420   1_554 S
C501   C502    1.402   .     A
C501   C1058   1.420   .     S
C501   C1078   1.405   .     S
C502   O554    1.384   .     S
C502   C503    1.399   .     A
C503   H533    1.080   .     S
C504   C521    1.398   .     A
C504   H556    1.076   .     S
C505   C520    1.393   .     A
C505   O545    1.376   .     S
C505   C521    1.416   .     A
C506   C508    1.484   .     S
C506   C522    1.416   .     A
C507   H534    1.084   .     S
C507   C513    1.398   .     A
C507   C137    1.382   1_565 S
C508   O540    1.299   .     A
C508   O539    1.297   .     A
C509   C510    1.398   .     A
C509   H527    1.084   .     S
C510   C511    1.411   .     A
C510   C518    1.449   .     S
C511   O547    1.375   .     S
C512   O549    1.382   .     S
C512   C513    1.414   .     A
C512   C139    1.390   1_565 S
C514   O551    1.378   .     S
C514   N536    1.372   .     A
C514   C391    1.426   1_655 S
C515   N535    1.363   .     A
C515   H553    1.082   .     S
C516   H528    1.081   .     S
C516   N535    1.367   .     A
C517   H529    1.082   .     S
C517   N536    1.366   .     A
C517   C392    1.415   1_655 S
C518   O542    1.293   .     A
C518   O541    1.288   .     A
C519   C521    1.476   .     S
C519   O543    1.300   .     A
C519   O544    1.294   .     A
C520   C1059   1.405   1_554 S
C520   H1088   1.084   1_554 S
C522   C523    1.399   .     A
C522   O557    1.383   .     S
C523   C1082   1.387   .     S
C523   H1090   1.083   .     S
C524   H531    1.077   .     S
C524   C1081   1.387   1_554 S
C524   C1056   1.415   1_554 S
Cu525  Cu526   2.676   .     S
Cu525  N535    2.011   .     S
Cu525  O539    1.949   .     S
Cu525  O543    1.932   .     S
Cu525  O537    1.959   .     S
Cu525  O541    1.962   .     S
Cu526  N536    2.011   .     S
Cu526  O540    1.932   .     S
Cu526  O542    1.959   .     S
Cu526  O544    1.949   .     S
Cu526  O538    1.962   .     S
H530   C1078   1.084   .     S
H532   C1081   1.083   1_554 S
O545   H546    0.990   .     S
O547   H548    0.991   .     S
O549   H550    0.990   .     S
O551   H552    0.992   .     S
O554   H555    0.992   .     S
O557   H558    0.992   .     S
C559   C575    1.447   .     S
C559   O599    1.289   .     A
C559   O600    1.289   .     A
C560   C561    1.416   .     A
C560   C4      1.424   1_556 S
C560   C28     1.415   1_556 S
C561   C568    1.424   .     A
C561   C565    1.411   .     A
C562   C566    1.404   .     A
C563   C564    1.402   .     A
C563   C4      1.420   1_556 S
C563   C24     1.405   1_556 S
C564   O616    1.384   .     S
C564   C565    1.399   .     A
C565   H595    1.080   .     S
C566   C583    1.398   .     A
C566   H618    1.076   .     S
C567   C582    1.393   .     A
C567   O607    1.376   .     S
C567   C583    1.416   .     A
C568   C570    1.484   .     S
C568   C584    1.416   .     A
C569   H596    1.084   .     S
C569   C575    1.398   .     A
C569   C757    1.382   .     S
C570   O602    1.299   .     A
C570   O601    1.297   .     A
C571   C572    1.398   .     A
C571   H589    1.084   .     S
C571   C941    1.382   1_545 S
C572   C573    1.411   .     A
C572   C580    1.449   .     S
C573   O609    1.375   .     S
C573   C946    1.390   1_545 S
C574   O611    1.382   .     S
C574   C575    1.414   .     A
C574   C759    1.390   .     S
C576   O613    1.378   .     S
C576   N598    1.372   .     A
C576   C639    1.426   .     S
C577   N597    1.363   .     A
C577   H615    1.082   .     S
C577   C700    1.426   1_455 S
C578   H590    1.081   .     S
C578   N597    1.367   .     A
C578   C703    1.415   1_455 S
C579   H591    1.082   .     S
C579   N598    1.366   .     A
C579   C640    1.415   .     S
C580   O604    1.293   .     A
C580   O603    1.288   .     A
C581   C583    1.476   .     S
C581   O605    1.300   .     A
C581   O606    1.294   .     A
C584   C585    1.399   .     A
C584   O619    1.383   .     S
C585   C28     1.387   1_556 S
C585   H36     1.083   1_556 S
C586   H593    1.077   .     S
Cu587  Cu588   2.676   .     S
Cu587  N597    2.011   .     S
Cu587  O601    1.949   .     S
Cu587  O605    1.932   .     S
Cu587  O599    1.959   .     S
Cu587  O603    1.962   .     S
Cu588  N598    2.011   .     S
Cu588  O602    1.932   .     S
Cu588  O604    1.959   .     S
Cu588  O606    1.949   .     S
Cu588  O600    1.962   .     S
H592   C24     1.084   1_556 S
O607   H608    0.990   .     S
O609   H610    0.991   .     S
O611   H612    0.990   .     S
O613   H614    0.992   .     S
O616   H617    0.992   .     S
O619   H620    0.992   .     S
C621   C637    1.447   .     S
C621   O661    1.289   .     A
C621   O662    1.289   .     A
C622   C623    1.416   .     A
C622   C66     1.424   1_556 S
C622   C90     1.415   1_556 S
C623   C630    1.424   .     A
C623   C627    1.411   .     A
C624   C628    1.404   .     A
C625   C626    1.402   .     A
C625   C66     1.420   1_556 S
C625   C86     1.405   1_556 S
C626   O678    1.384   .     S
C626   C627    1.399   .     A
C627   H657    1.080   .     S
C628   C645    1.398   .     A
C628   H680    1.076   .     S
C629   C644    1.393   .     A
C629   O669    1.376   .     S
C629   C645    1.416   .     A
C630   C632    1.484   .     S
C630   C646    1.416   .     A
C631   H658    1.084   .     S
C631   C637    1.398   .     A
C631   C819    1.382   .     S
C632   O664    1.299   .     A
C632   O663    1.297   .     A
C633   C634    1.398   .     A
C633   H651    1.084   .     S
C633   C1003   1.382   1_545 S
C634   C635    1.411   .     A
C634   C642    1.449   .     S
C635   O671    1.375   .     S
C635   C1008   1.390   1_545 S
C636   O673    1.382   .     S
C636   C637    1.414   .     A
C636   C821    1.390   .     S
C638   O675    1.378   .     S
C638   N660    1.372   .     A
C638   C701    1.426   .     S
C639   N659    1.363   .     A
C639   H677    1.082   .     S
C640   H652    1.081   .     S
C640   N659    1.367   .     A
C641   H653    1.082   .     S
C641   N660    1.366   .     A
C641   C702    1.415   .     S
C642   O666    1.293   .     A
C642   O665    1.288   .     A
C643   C645    1.476   .     S
C643   O667    1.300   .     A
C643   O668    1.294   .     A
C646   C647    1.399   .     A
C646   O681    1.383   .     S
C647   C90     1.387   1_556 S
C647   H98     1.083   1_556 S
C648   H655    1.077   .     S
Cu649  Cu650   2.676   .     S
Cu649  N659    2.011   .     S
Cu649  O663    1.949   .     S
Cu649  O667    1.932   .     S
Cu649  O661    1.959   .     S
Cu649  O665    1.962   .     S
Cu650  N660    2.011   .     S
Cu650  O664    1.932   .     S
Cu650  O666    1.959   .     S
Cu650  O668    1.949   .     S
Cu650  O662    1.962   .     S
H654   C86     1.084   1_556 S
O669   H670    0.990   .     S
O671   H672    0.991   .     S
O673   H674    0.990   .     S
O675   H676    0.992   .     S
O678   H679    0.992   .     S
O681   H682    0.992   .     S
C683   C699    1.447   .     S
C683   O723    1.289   .     A
C683   O724    1.289   .     A
C684   C685    1.416   .     A
C684   C128    1.424   1_556 S
C684   C152    1.415   1_556 S
C685   C692    1.424   .     A
C685   C689    1.411   .     A
C686   C690    1.404   .     A
C687   C688    1.402   .     A
C687   C128    1.420   1_556 S
C687   C148    1.405   1_556 S
C688   O740    1.384   .     S
C688   C689    1.399   .     A
C689   H719    1.080   .     S
C690   C707    1.398   .     A
C690   H742    1.076   .     S
C691   C706    1.393   .     A
C691   O731    1.376   .     S
C691   C707    1.416   .     A
C692   C694    1.484   .     S
C692   C708    1.416   .     A
C693   H720    1.084   .     S
C693   C699    1.398   .     A
C693   C881    1.382   .     S
C694   O726    1.299   .     A
C694   O725    1.297   .     A
C695   C696    1.398   .     A
C695   H713    1.084   .     S
C695   C1065   1.382   1_545 S
C696   C697    1.411   .     A
C696   C704    1.449   .     S
C697   O733    1.375   .     S
C697   C1070   1.390   1_545 S
C698   O735    1.382   .     S
C698   C699    1.414   .     A
C698   C883    1.390   .     S
C700   O737    1.378   .     S
C700   N722    1.372   .     A
C700   C577    1.426   1_655 S
C701   N721    1.363   .     A
C701   H739    1.082   .     S
C702   H714    1.081   .     S
C702   N721    1.367   .     A
C703   H715    1.082   .     S
C703   N722    1.366   .     A
C703   C578    1.415   1_655 S
C704   O728    1.293   .     A
C704   O727    1.288   .     A
C705   C707    1.476   .     S
C705   O729    1.300   .     A
C705   O730    1.294   .     A
C708   C709    1.399   .     A
C708   O743    1.383   .     S
C709   C152    1.387   1_556 S
C709   H160    1.083   1_556 S
C710   H717    1.077   .     S
Cu711  Cu712   2.676   .     S
Cu711  N721    2.011   .     S
Cu711  O725    1.949   .     S
Cu711  O729    1.932   .     S
Cu711  O723    1.959   .     S
Cu711  O727    1.962   .     S
Cu712  N722    2.011   .     S
Cu712  O726    1.932   .     S
Cu712  O728    1.959   .     S
Cu712  O730    1.949   .     S
Cu712  O724    1.962   .     S
H716   C148    1.084   1_556 S
O731   H732    0.990   .     S
O733   H734    0.991   .     S
O735   H736    0.990   .     S
O737   H738    0.992   .     S
O740   H741    0.992   .     S
O743   H744    0.992   .     S
C745   C761    1.447   .     S
C745   O785    1.289   .     A
C745   O786    1.289   .     A
C746   C747    1.416   .     A
C746   C190    1.424   1_556 S
C746   C214    1.415   1_556 S
C747   C754    1.424   .     A
C747   C751    1.411   .     A
C748   C752    1.404   .     A
C749   C750    1.402   .     A
C749   C190    1.420   1_556 S
C749   C210    1.405   1_556 S
C750   O802    1.384   .     S
C750   C751    1.399   .     A
C751   H781    1.080   .     S
C752   C769    1.398   .     A
C752   H804    1.076   .     S
C753   C768    1.393   .     A
C753   O793    1.376   .     S
C753   C769    1.416   .     A
C754   C756    1.484   .     S
C754   C770    1.416   .     A
C755   H782    1.084   .     S
C755   C761    1.398   .     A
C755   C943    1.382   .     S
C756   O788    1.299   .     A
C756   O787    1.297   .     A
C757   C758    1.398   .     A
C757   H775    1.084   .     S
C758   C759    1.411   .     A
C758   C766    1.449   .     S
C759   O795    1.375   .     S
C760   O797    1.382   .     S
C760   C761    1.414   .     A
C760   C945    1.390   .     S
C762   O799    1.378   .     S
C762   N784    1.372   .     A
C762   C825    1.426   .     S
C763   N783    1.363   .     A
C763   H801    1.082   .     S
C763   C886    1.426   1_455 S
C764   H776    1.081   .     S
C764   N783    1.367   .     A
C764   C889    1.415   1_455 S
C765   H777    1.082   .     S
C765   N784    1.366   .     A
C765   C826    1.415   .     S
C766   O790    1.293   .     A
C766   O789    1.288   .     A
C767   C769    1.476   .     S
C767   O791    1.300   .     A
C767   O792    1.294   .     A
C770   C771    1.399   .     A
C770   O805    1.383   .     S
C771   C214    1.387   1_556 S
C771   H222    1.083   1_556 S
C772   H779    1.077   .     S
Cu773  Cu774   2.676   .     S
Cu773  N783    2.011   .     S
Cu773  O787    1.949   .     S
Cu773  O791    1.932   .     S
Cu773  O785    1.959   .     S
Cu773  O789    1.962   .     S
Cu774  N784    2.011   .     S
Cu774  O788    1.932   .     S
Cu774  O790    1.959   .     S
Cu774  O792    1.949   .     S
Cu774  O786    1.962   .     S
H778   C210    1.084   1_556 S
O793   H794    0.990   .     S
O795   H796    0.991   .     S
O797   H798    0.990   .     S
O799   H800    0.992   .     S
O802   H803    0.992   .     S
O805   H806    0.992   .     S
C807   C823    1.447   .     S
C807   O847    1.289   .     A
C807   O848    1.289   .     A
C808   C809    1.416   .     A
C808   C252    1.424   1_556 S
C808   C276    1.415   1_556 S
C809   C816    1.424   .     A
C809   C813    1.411   .     A
C810   C814    1.404   .     A
C811   C812    1.402   .     A
C811   C252    1.420   1_556 S
C811   C272    1.405   1_556 S
C812   O864    1.384   .     S
C812   C813    1.399   .     A
C813   H843    1.080   .     S
C814   C831    1.398   .     A
C814   H866    1.076   .     S
C815   C830    1.393   .     A
C815   O855    1.376   .     S
C815   C831    1.416   .     A
C816   C818    1.484   .     S
C816   C832    1.416   .     A
C817   H844    1.084   .     S
C817   C823    1.398   .     A
C817   C1005   1.382   .     S
C818   O850    1.299   .     A
C818   O849    1.297   .     A
C819   C820    1.398   .     A
C819   H837    1.084   .     S
C820   C821    1.411   .     A
C820   C828    1.449   .     S
C821   O857    1.375   .     S
C822   O859    1.382   .     S
C822   C823    1.414   .     A
C822   C1007   1.390   .     S
C824   O861    1.378   .     S
C824   N846    1.372   .     A
C824   C887    1.426   .     S
C825   N845    1.363   .     A
C825   H863    1.082   .     S
C826   H838    1.081   .     S
C826   N845    1.367   .     A
C827   H839    1.082   .     S
C827   N846    1.366   .     A
C827   C888    1.415   .     S
C828   O852    1.293   .     A
C828   O851    1.288   .     A
C829   C831    1.476   .     S
C829   O853    1.300   .     A
C829   O854    1.294   .     A
C832   C833    1.399   .     A
C832   O867    1.383   .     S
C833   C276    1.387   1_556 S
C833   H284    1.083   1_556 S
C834   H841    1.077   .     S
Cu835  Cu836   2.676   .     S
Cu835  N845    2.011   .     S
Cu835  O849    1.949   .     S
Cu835  O853    1.932   .     S
Cu835  O847    1.959   .     S
Cu835  O851    1.962   .     S
Cu836  N846    2.011   .     S
Cu836  O850    1.932   .     S
Cu836  O852    1.959   .     S
Cu836  O854    1.949   .     S
Cu836  O848    1.962   .     S
H840   C272    1.084   1_556 S
O855   H856    0.990   .     S
O857   H858    0.991   .     S
O859   H860    0.990   .     S
O861   H862    0.992   .     S
O864   H865    0.992   .     S
O867   H868    0.992   .     S
C869   C885    1.447   .     S
C869   O909    1.289   .     A
C869   O910    1.289   .     A
C870   C871    1.416   .     A
C870   C314    1.424   1_556 S
C870   C338    1.415   1_556 S
C871   C878    1.424   .     A
C871   C875    1.411   .     A
C872   C876    1.404   .     A
C873   C874    1.402   .     A
C873   C314    1.420   1_556 S
C873   C334    1.405   1_556 S
C874   O926    1.384   .     S
C874   C875    1.399   .     A
C875   H905    1.080   .     S
C876   C893    1.398   .     A
C876   H928    1.076   .     S
C877   C892    1.393   .     A
C877   O917    1.376   .     S
C877   C893    1.416   .     A
C878   C880    1.484   .     S
C878   C894    1.416   .     A
C879   H906    1.084   .     S
C879   C885    1.398   .     A
C879   C1067   1.382   .     S
C880   O912    1.299   .     A
C880   O911    1.297   .     A
C881   C882    1.398   .     A
C881   H899    1.084   .     S
C882   C883    1.411   .     A
C882   C890    1.449   .     S
C883   O919    1.375   .     S
C884   O921    1.382   .     S
C884   C885    1.414   .     A
C884   C1069   1.390   .     S
C886   O923    1.378   .     S
C886   N908    1.372   .     A
C886   C763    1.426   1_655 S
C887   N907    1.363   .     A
C887   H925    1.082   .     S
C888   H900    1.081   .     S
C888   N907    1.367   .     A
C889   H901    1.082   .     S
C889   N908    1.366   .     A
C889   C764    1.415   1_655 S
C890   O914    1.293   .     A
C890   O913    1.288   .     A
C891   C893    1.476   .     S
C891   O915    1.300   .     A
C891   O916    1.294   .     A
C894   C895    1.399   .     A
C894   O929    1.383   .     S
C895   C338    1.387   1_556 S
C895   H346    1.083   1_556 S
C896   H903    1.077   .     S
Cu897  Cu898   2.676   .     S
Cu897  N907    2.011   .     S
Cu897  O911    1.949   .     S
Cu897  O915    1.932   .     S
Cu897  O909    1.959   .     S
Cu897  O913    1.962   .     S
Cu898  N908    2.011   .     S
Cu898  O912    1.932   .     S
Cu898  O914    1.959   .     S
Cu898  O916    1.949   .     S
Cu898  O910    1.962   .     S
H902   C334    1.084   1_556 S
O917   H918    0.990   .     S
O919   H920    0.991   .     S
O921   H922    0.990   .     S
O923   H924    0.992   .     S
O926   H927    0.992   .     S
O929   H930    0.992   .     S
C931   C947    1.447   .     S
C931   O971    1.289   .     A
C931   O972    1.289   .     A
C932   C933    1.416   .     A
C932   C376    1.424   1_556 S
C932   C400    1.415   1_556 S
C933   C940    1.424   .     A
C933   C937    1.411   .     A
C934   C938    1.404   .     A
C935   C936    1.402   .     A
C935   C376    1.420   1_556 S
C935   C396    1.405   1_556 S
C936   O988    1.384   .     S
C936   C937    1.399   .     A
C937   H967    1.080   .     S
C938   C955    1.398   .     A
C938   H990    1.076   .     S
C939   C954    1.393   .     A
C939   O979    1.376   .     S
C939   C955    1.416   .     A
C940   C942    1.484   .     S
C940   C956    1.416   .     A
C941   H968    1.084   .     S
C941   C947    1.398   .     A
C941   C571    1.382   1_565 S
C942   O974    1.299   .     A
C942   O973    1.297   .     A
C943   C944    1.398   .     A
C943   H961    1.084   .     S
C944   C945    1.411   .     A
C944   C952    1.449   .     S
C945   O981    1.375   .     S
C946   O983    1.382   .     S
C946   C947    1.414   .     A
C946   C573    1.390   1_565 S
C948   O985    1.378   .     S
C948   N970    1.372   .     A
C948   C1011   1.426   .     S
C949   N969    1.363   .     A
C949   H987    1.082   .     S
C949   C1072   1.426   1_455 S
C950   H962    1.081   .     S
C950   N969    1.367   .     A
C950   C1075   1.415   1_455 S
C951   H963    1.082   .     S
C951   N970    1.366   .     A
C951   C1012   1.415   .     S
C952   O976    1.293   .     A
C952   O975    1.288   .     A
C953   C955    1.476   .     S
C953   O977    1.300   .     A
C953   O978    1.294   .     A
C956   C957    1.399   .     A
C956   O991    1.383   .     S
C957   C400    1.387   1_556 S
C957   H408    1.083   1_556 S
C958   H965    1.077   .     S
Cu959  Cu960   2.676   .     S
Cu959  N969    2.011   .     S
Cu959  O973    1.949   .     S
Cu959  O977    1.932   .     S
Cu959  O971    1.959   .     S
Cu959  O975    1.962   .     S
Cu960  N970    2.011   .     S
Cu960  O974    1.932   .     S
Cu960  O976    1.959   .     S
Cu960  O978    1.949   .     S
Cu960  O972    1.962   .     S
H964   C396    1.084   1_556 S
O979   H980    0.990   .     S
O981   H982    0.991   .     S
O983   H984    0.990   .     S
O985   H986    0.992   .     S
O988   H989    0.992   .     S
O991   H992    0.992   .     S
C993   C1009   1.447   .     S
C993   O1033   1.289   .     A
C993   O1034   1.289   .     A
C994   C995    1.416   .     A
C994   C438    1.424   1_556 S
C994   C462    1.415   1_556 S
C995   C1002   1.424   .     A
C995   C999    1.411   .     A
C996   C1000   1.404   .     A
C997   C998    1.402   .     A
C997   C438    1.420   1_556 S
C997   C458    1.405   1_556 S
C998   O1050   1.384   .     S
C998   C999    1.399   .     A
C999   H1029   1.080   .     S
C1000  C1017   1.398   .     A
C1000  H1052   1.076   .     S
C1001  C1016   1.393   .     A
C1001  O1041   1.376   .     S
C1001  C1017   1.416   .     A
C1002  C1004   1.484   .     S
C1002  C1018   1.416   .     A
C1003  H1030   1.084   .     S
C1003  C1009   1.398   .     A
C1003  C633    1.382   1_565 S
C1004  O1036   1.299   .     A
C1004  O1035   1.297   .     A
C1005  C1006   1.398   .     A
C1005  H1023   1.084   .     S
C1006  C1007   1.411   .     A
C1006  C1014   1.449   .     S
C1007  O1043   1.375   .     S
C1008  O1045   1.382   .     S
C1008  C1009   1.414   .     A
C1008  C635    1.390   1_565 S
C1010  O1047   1.378   .     S
C1010  N1032   1.372   .     A
C1010  C1073   1.426   .     S
C1011  N1031   1.363   .     A
C1011  H1049   1.082   .     S
C1012  H1024   1.081   .     S
C1012  N1031   1.367   .     A
C1013  H1025   1.082   .     S
C1013  N1032   1.366   .     A
C1013  C1074   1.415   .     S
C1014  O1038   1.293   .     A
C1014  O1037   1.288   .     A
C1015  C1017   1.476   .     S
C1015  O1039   1.300   .     A
C1015  O1040   1.294   .     A
C1018  C1019   1.399   .     A
C1018  O1053   1.383   .     S
C1019  C462    1.387   1_556 S
C1019  H470    1.083   1_556 S
C1020  H1027   1.077   .     S
Cu1021 Cu1022  2.676   .     S
Cu1021 N1031   2.011   .     S
Cu1021 O1035   1.949   .     S
Cu1021 O1039   1.932   .     S
Cu1021 O1033   1.959   .     S
Cu1021 O1037   1.962   .     S
Cu1022 N1032   2.011   .     S
Cu1022 O1036   1.932   .     S
Cu1022 O1038   1.959   .     S
Cu1022 O1040   1.949   .     S
Cu1022 O1034   1.962   .     S
H1026  C458    1.084   1_556 S
O1041  H1042   0.990   .     S
O1043  H1044   0.991   .     S
O1045  H1046   0.990   .     S
O1047  H1048   0.992   .     S
O1050  H1051   0.992   .     S
O1053  H1054   0.992   .     S
C1055  C1071   1.447   .     S
C1055  O1095   1.289   .     A
C1055  O1096   1.289   .     A
C1056  C1057   1.416   .     A
C1056  C500    1.424   1_556 S
C1056  C524    1.415   1_556 S
C1057  C1064   1.424   .     A
C1057  C1061   1.411   .     A
C1058  C1062   1.404   .     A
C1059  C1060   1.402   .     A
C1059  C500    1.420   1_556 S
C1059  C520    1.405   1_556 S
C1060  O1112   1.384   .     S
C1060  C1061   1.399   .     A
C1061  H1091   1.080   .     S
C1062  C1079   1.398   .     A
C1062  H1114   1.076   .     S
C1063  C1078   1.393   .     A
C1063  O1103   1.376   .     S
C1063  C1079   1.416   .     A
C1064  C1066   1.484   .     S
C1064  C1080   1.416   .     A
C1065  H1092   1.084   .     S
C1065  C1071   1.398   .     A
C1065  C695    1.382   1_565 S
C1066  O1098   1.299   .     A
C1066  O1097   1.297   .     A
C1067  C1068   1.398   .     A
C1067  H1085   1.084   .     S
C1068  C1069   1.411   .     A
C1068  C1076   1.449   .     S
C1069  O1105   1.375   .     S
C1070  O1107   1.382   .     S
C1070  C1071   1.414   .     A
C1070  C697    1.390   1_565 S
C1072  O1109   1.378   .     S
C1072  N1094   1.372   .     A
C1072  C949    1.426   1_655 S
C1073  N1093   1.363   .     A
C1073  H1111   1.082   .     S
C1074  H1086   1.081   .     S
C1074  N1093   1.367   .     A
C1075  H1087   1.082   .     S
C1075  N1094   1.366   .     A
C1075  C950    1.415   1_655 S
C1076  O1100   1.293   .     A
C1076  O1099   1.288   .     A
C1077  C1079   1.476   .     S
C1077  O1101   1.300   .     A
C1077  O1102   1.294   .     A
C1080  C1081   1.399   .     A
C1080  O1115   1.383   .     S
C1081  C524    1.387   1_556 S
C1081  H532    1.083   1_556 S
C1082  H1089   1.077   .     S
Cu1083 Cu1084  2.676   .     S
Cu1083 N1093   2.011   .     S
Cu1083 O1097   1.949   .     S
Cu1083 O1101   1.932   .     S
Cu1083 O1095   1.959   .     S
Cu1083 O1099   1.962   .     S
Cu1084 N1094   2.011   .     S
Cu1084 O1098   1.932   .     S
Cu1084 O1100   1.959   .     S
Cu1084 O1102   1.949   .     S
Cu1084 O1096   1.962   .     S
H1088  C520    1.084   1_556 S
O1103  H1104   0.990   .     S
O1105  H1106   0.991   .     S
O1107  H1108   0.990   .     S
O1109  H1110   0.992   .     S
O1112  H1113   0.992   .     S
O1115  H1116   0.992   .     S
