data_str_m2_o2_o5_pcu_sym.43
_audit_creation_date              2020-01-03
_audit_creation_method            'Materials Studio'
_symmetry_space_group_name_H-M    'P1'
_symmetry_Int_Tables_number       1
_symmetry_cell_setting            triclinic
loop_
_symmetry_equiv_pos_as_xyz
  x,y,z
_cell_length_a                    30.3806
_cell_length_b                    27.7220
_cell_length_c                    27.3307
_cell_angle_alpha                 89.9133
_cell_angle_beta                  91.6703
_cell_angle_gamma                 90.2958
loop_
_atom_site_label
_atom_site_type_symbol
_atom_site_fract_x
_atom_site_fract_y
_atom_site_fract_z
_atom_site_U_iso_or_equiv
_atom_site_adp_type
_atom_site_occupancy
Br1    Br    0.12257   0.29380   0.07255   0.00000  Uiso   1.00
Br2    Br    0.38083   0.14162   0.17353   0.00000  Uiso   1.00
Br3    Br    0.38313   0.35480   0.19353   0.00000  Uiso   1.00
Br4    Br    0.13072   0.18414   0.25036   0.00000  Uiso   1.00
C5     C     0.16519   0.24983   0.16673   0.00000  Uiso   1.00
C6     C     0.27647   0.44603   0.20014   0.00000  Uiso   1.00
C7     C     0.24986   0.25002   0.07349   0.00000  Uiso   1.00
C8     C     0.25001   0.24998   0.25984   0.00000  Uiso   1.00
C9     C     0.24967   0.02725   0.16686   0.00000  Uiso   1.00
C10    C     0.24958   0.47254   0.16693   0.00000  Uiso   1.00
C11    C     0.24984   0.25002   0.02181   0.00000  Uiso   1.00
C12    C     0.24989   0.24996   0.31151   0.00000  Uiso   1.00
C13    C     0.04635   0.27277   0.13192   0.00000  Uiso   1.00
C14    C     0.45397   0.20541   0.16794   0.00000  Uiso   1.00
C15    C     0.45501   0.29191   0.18286   0.00000  Uiso   1.00
C16    C     0.33544   0.24996   0.16910   0.00000  Uiso   1.00
C17    C     0.05045   0.22566   0.20833   0.00000  Uiso   1.00
C18    C     0.09266   0.27216   0.13024   0.00000  Uiso   1.00
C19    C     0.40795   0.20505   0.17052   0.00000  Uiso   1.00
C20    C     0.40899   0.29269   0.18143   0.00000  Uiso   1.00
C21    C     0.09648   0.22406   0.20542   0.00000  Uiso   1.00
C22    C     0.11733   0.24939   0.16792   0.00000  Uiso   1.00
C23    C     0.38446   0.24937   0.17343   0.00000  Uiso   1.00
C24    C     0.02571   0.24934   0.17118   0.00000  Uiso   1.00
C25    C     0.47735   0.24892   0.17321   0.00000  Uiso   1.00
C26    C     0.02049   0.33637   0.08407   0.00000  Uiso   1.00
C27    C     0.26295   0.10464   0.20779   0.00000  Uiso   1.00
C28    C     0.48372   0.34949   0.04705   0.00000  Uiso   1.00
C29    C     0.43806   0.33899   0.06625   0.00000  Uiso   1.00
C30    C     0.47839   0.14540   0.11823   0.00000  Uiso   1.00
C31    C     0.48961   0.09167   0.11980   0.00000  Uiso   1.00
C32    C     0.49048   0.06949   0.06879   0.00000  Uiso   1.00
C33    C     0.49615   0.33838   0.23733   0.00000  Uiso   1.00
C34    C     0.04164   0.36208   0.23509   0.00000  Uiso   1.00
C35    C     0.06332   0.36761   0.28581   0.00000  Uiso   1.00
C36    C     0.03642   0.21411   0.29082   0.00000  Uiso   1.00
C37    C     0.04225   0.16980   0.32408   0.00000  Uiso   1.00
C38    C     0.22346   0.39504   0.13421   0.00000  Uiso   1.00
C39    C     0.07249   0.18012   0.03500   0.00000  Uiso   1.00
C40    C     0.23683   0.10454   0.12566   0.00000  Uiso   1.00
C41    C     0.27556   0.39536   0.19992   0.00000  Uiso   1.00
C42    C     0.26253   0.05395   0.20884   0.00000  Uiso   1.00
C43    C     0.22246   0.44574   0.13397   0.00000  Uiso   1.00
C44    C     0.23695   0.05385   0.12479   0.00000  Uiso   1.00
Cu45   Cu    0.25000   0.29822   0.16667   0.00000  Uiso   1.00
Cu46   Cu    0.25000   0.20179   0.16667   0.00000  Uiso   1.00
H47    H     0.27362   0.12400   0.24032   0.00000  Uiso   1.00
H48    H     0.01618   0.35673   0.11843   0.00000  Uiso   1.00
H49    H     0.48604   0.38854   0.03813   0.00000  Uiso   1.00
H50    H     0.48805   0.32863   0.01288   0.00000  Uiso   1.00
H51    H     0.43450   0.30011   0.07525   0.00000  Uiso   1.00
H52    H     0.41273   0.34844   0.03778   0.00000  Uiso   1.00
H53    H     0.43241   0.36111   0.09922   0.00000  Uiso   1.00
H54    H     0.00442   0.16539   0.09905   0.00000  Uiso   1.00
H55    H     0.44656   0.15002   0.09740   0.00000  Uiso   1.00
H56    H     0.02227   0.08666   0.13846   0.00000  Uiso   1.00
H57    H     0.46451   0.07230   0.14130   0.00000  Uiso   1.00
H58    H     0.20253   0.37514   0.10859   0.00000  Uiso   1.00
H59    H     0.45908   0.07650   0.04822   0.00000  Uiso   1.00
H60    H     0.49495   0.02988   0.07203   0.00000  Uiso   1.00
H61    H     0.01837   0.08440   0.04825   0.00000  Uiso   1.00
H62    H     0.49963   0.30308   0.25638   0.00000  Uiso   1.00
H63    H     0.47433   0.36143   0.25924   0.00000  Uiso   1.00
H64    H     0.06324   0.33973   0.21227   0.00000  Uiso   1.00
H65    H     0.03849   0.39823   0.21772   0.00000  Uiso   1.00
H66    H     0.04387   0.39246   0.30838   0.00000  Uiso   1.00
H67    H     0.09691   0.38296   0.28235   0.00000  Uiso   1.00
H68    H     0.06607   0.33201   0.30431   0.00000  Uiso   1.00
H69    H     0.22622   0.12383   0.09307   0.00000  Uiso   1.00
H70    H     0.00716   0.23425   0.30286   0.00000  Uiso   1.00
H71    H     0.06508   0.23922   0.29513   0.00000  Uiso   1.00
H72    H     0.00943   0.15799   0.00327   0.00000  Uiso   1.00
H73    H     0.05644   0.13939   0.30341   0.00000  Uiso   1.00
H74    H     0.05858   0.20960   0.05668   0.00000  Uiso   1.00
H75    H     0.10587   0.19066   0.02332   0.00000  Uiso   1.00
H76    H     0.07554   0.14746   0.05835   0.00000  Uiso   1.00
H77    H     0.29549   0.37573   0.22651   0.00000  Uiso   1.00
H78    H     0.27178   0.03622   0.24282   0.00000  Uiso   1.00
H79    H     0.19999   0.46343   0.10843   0.00000  Uiso   1.00
H80    H     0.22756   0.03600   0.09091   0.00000  Uiso   1.00
H81    H     0.29860   0.46388   0.22604   0.00000  Uiso   1.00
H82    H     0.05160   0.34903   0.06836   0.00000  Uiso   1.00
N83    N     0.25000   0.12935   0.16667   0.00000  Uiso   1.00
N84    N     0.25000   0.37065   0.16667   0.00000  Uiso   1.00
O85    O     0.18573   0.29071   0.16667   0.00000  Uiso   1.00
O86    O     0.47658   0.16222   0.16684   0.00000  Uiso   1.00
O87    O     0.47803   0.33480   0.18923   0.00000  Uiso   1.00
O88    O     0.02841   0.19789   0.24228   0.00000  Uiso   1.00
O89    O     0.31427   0.20929   0.16666   0.00000  Uiso   1.00
O90    O     0.31427   0.29072   0.16666   0.00000  Uiso   1.00
O91    O     0.18573   0.20929   0.16667   0.00000  Uiso   1.00
O92    O     0.25000   0.29071   0.09613   0.00000  Uiso   1.00
O93    O     0.25000   0.20929   0.23720   0.00000  Uiso   1.00
O94    O     0.25000   0.29071   0.23720   0.00000  Uiso   1.00
O95    O     0.25000   0.20929   0.09613   0.00000  Uiso   1.00
O96    O     0.02075   0.28577   0.09109   0.00000  Uiso   1.00
Br97   Br    0.62257   0.29380   0.07255   0.00000  Uiso   1.00
Br98   Br    0.88083   0.14162   0.17353   0.00000  Uiso   1.00
Br99   Br    0.88313   0.35480   0.19353   0.00000  Uiso   1.00
Br100  Br    0.63072   0.18414   0.25036   0.00000  Uiso   1.00
C101   C     0.66519   0.24983   0.16673   0.00000  Uiso   1.00
C102   C     0.77647   0.44603   0.20014   0.00000  Uiso   1.00
C103   C     0.74986   0.25002   0.07349   0.00000  Uiso   1.00
C104   C     0.75001   0.24998   0.25984   0.00000  Uiso   1.00
C105   C     0.74967   0.02725   0.16686   0.00000  Uiso   1.00
C106   C     0.74958   0.47254   0.16693   0.00000  Uiso   1.00
C107   C     0.74984   0.25002   0.02181   0.00000  Uiso   1.00
C108   C     0.74989   0.24996   0.31151   0.00000  Uiso   1.00
C109   C     0.54635   0.27277   0.13192   0.00000  Uiso   1.00
C110   C     0.95397   0.20541   0.16794   0.00000  Uiso   1.00
C111   C     0.95501   0.29191   0.18286   0.00000  Uiso   1.00
C112   C     0.83544   0.24996   0.16910   0.00000  Uiso   1.00
C113   C     0.55045   0.22566   0.20833   0.00000  Uiso   1.00
C114   C     0.59266   0.27216   0.13024   0.00000  Uiso   1.00
C115   C     0.90795   0.20505   0.17052   0.00000  Uiso   1.00
C116   C     0.90899   0.29269   0.18143   0.00000  Uiso   1.00
C117   C     0.59648   0.22406   0.20542   0.00000  Uiso   1.00
C118   C     0.61733   0.24939   0.16792   0.00000  Uiso   1.00
C119   C     0.88446   0.24937   0.17343   0.00000  Uiso   1.00
C120   C     0.52571   0.24934   0.17118   0.00000  Uiso   1.00
C121   C     0.97735   0.24892   0.17321   0.00000  Uiso   1.00
C122   C     0.52049   0.33637   0.08407   0.00000  Uiso   1.00
C123   C     0.76295   0.10464   0.20779   0.00000  Uiso   1.00
C124   C     0.98372   0.34949   0.04705   0.00000  Uiso   1.00
C125   C     0.93806   0.33899   0.06625   0.00000  Uiso   1.00
C126   C     0.97839   0.14540   0.11823   0.00000  Uiso   1.00
C127   C     0.98961   0.09167   0.11980   0.00000  Uiso   1.00
C128   C     0.99048   0.06949   0.06879   0.00000  Uiso   1.00
C129   C     0.99615   0.33838   0.23733   0.00000  Uiso   1.00
C130   C     0.54164   0.36208   0.23509   0.00000  Uiso   1.00
C131   C     0.56332   0.36761   0.28581   0.00000  Uiso   1.00
C132   C     0.53642   0.21411   0.29082   0.00000  Uiso   1.00
C133   C     0.54225   0.16980   0.32408   0.00000  Uiso   1.00
C134   C     0.72346   0.39504   0.13421   0.00000  Uiso   1.00
C135   C     0.57249   0.18012   0.03500   0.00000  Uiso   1.00
C136   C     0.73683   0.10454   0.12566   0.00000  Uiso   1.00
C137   C     0.77556   0.39536   0.19992   0.00000  Uiso   1.00
C138   C     0.76253   0.05395   0.20884   0.00000  Uiso   1.00
C139   C     0.72246   0.44574   0.13397   0.00000  Uiso   1.00
C140   C     0.73695   0.05385   0.12479   0.00000  Uiso   1.00
Cu141  Cu    0.75000   0.29822   0.16667   0.00000  Uiso   1.00
Cu142  Cu    0.75000   0.20179   0.16667   0.00000  Uiso   1.00
H143   H     0.77362   0.12400   0.24032   0.00000  Uiso   1.00
H144   H     0.51618   0.35673   0.11843   0.00000  Uiso   1.00
H145   H     0.98604   0.38854   0.03813   0.00000  Uiso   1.00
H146   H     0.98805   0.32863   0.01288   0.00000  Uiso   1.00
H147   H     0.93450   0.30011   0.07525   0.00000  Uiso   1.00
H148   H     0.91273   0.34844   0.03778   0.00000  Uiso   1.00
H149   H     0.93241   0.36111   0.09922   0.00000  Uiso   1.00
H150   H     0.50442   0.16539   0.09905   0.00000  Uiso   1.00
H151   H     0.94656   0.15002   0.09740   0.00000  Uiso   1.00
H152   H     0.52227   0.08666   0.13846   0.00000  Uiso   1.00
H153   H     0.96451   0.07230   0.14130   0.00000  Uiso   1.00
H154   H     0.70253   0.37514   0.10859   0.00000  Uiso   1.00
H155   H     0.95908   0.07650   0.04822   0.00000  Uiso   1.00
H156   H     0.99495   0.02988   0.07203   0.00000  Uiso   1.00
H157   H     0.51837   0.08440   0.04825   0.00000  Uiso   1.00
H158   H     0.99963   0.30308   0.25638   0.00000  Uiso   1.00
H159   H     0.97433   0.36143   0.25924   0.00000  Uiso   1.00
H160   H     0.56324   0.33973   0.21227   0.00000  Uiso   1.00
H161   H     0.53849   0.39823   0.21772   0.00000  Uiso   1.00
H162   H     0.54387   0.39246   0.30838   0.00000  Uiso   1.00
H163   H     0.59691   0.38296   0.28235   0.00000  Uiso   1.00
H164   H     0.56607   0.33201   0.30431   0.00000  Uiso   1.00
H165   H     0.72622   0.12383   0.09307   0.00000  Uiso   1.00
H166   H     0.50716   0.23425   0.30286   0.00000  Uiso   1.00
H167   H     0.56508   0.23922   0.29513   0.00000  Uiso   1.00
H168   H     0.50943   0.15799   0.00327   0.00000  Uiso   1.00
H169   H     0.55644   0.13939   0.30341   0.00000  Uiso   1.00
H170   H     0.55858   0.20960   0.05668   0.00000  Uiso   1.00
H171   H     0.60587   0.19066   0.02332   0.00000  Uiso   1.00
H172   H     0.57554   0.14746   0.05835   0.00000  Uiso   1.00
H173   H     0.79549   0.37573   0.22651   0.00000  Uiso   1.00
H174   H     0.77178   0.03622   0.24282   0.00000  Uiso   1.00
H175   H     0.69999   0.46343   0.10843   0.00000  Uiso   1.00
H176   H     0.72756   0.03600   0.09091   0.00000  Uiso   1.00
H177   H     0.79860   0.46388   0.22604   0.00000  Uiso   1.00
H178   H     0.55160   0.34903   0.06836   0.00000  Uiso   1.00
N179   N     0.75000   0.12935   0.16667   0.00000  Uiso   1.00
N180   N     0.75000   0.37065   0.16667   0.00000  Uiso   1.00
O181   O     0.68573   0.29071   0.16667   0.00000  Uiso   1.00
O182   O     0.97658   0.16222   0.16684   0.00000  Uiso   1.00
O183   O     0.97803   0.33480   0.18923   0.00000  Uiso   1.00
O184   O     0.52841   0.19789   0.24228   0.00000  Uiso   1.00
O185   O     0.81427   0.20929   0.16666   0.00000  Uiso   1.00
O186   O     0.81427   0.29072   0.16666   0.00000  Uiso   1.00
O187   O     0.68573   0.20929   0.16667   0.00000  Uiso   1.00
O188   O     0.75000   0.29071   0.09613   0.00000  Uiso   1.00
O189   O     0.75000   0.20929   0.23720   0.00000  Uiso   1.00
O190   O     0.75000   0.29071   0.23720   0.00000  Uiso   1.00
O191   O     0.75000   0.20929   0.09613   0.00000  Uiso   1.00
O192   O     0.52075   0.28577   0.09109   0.00000  Uiso   1.00
Br193  Br    0.12257   0.79380   0.07255   0.00000  Uiso   1.00
Br194  Br    0.38083   0.64162   0.17353   0.00000  Uiso   1.00
Br195  Br    0.38313   0.85480   0.19353   0.00000  Uiso   1.00
Br196  Br    0.13072   0.68414   0.25036   0.00000  Uiso   1.00
C197   C     0.16519   0.74983   0.16673   0.00000  Uiso   1.00
C198   C     0.27647   0.94603   0.20014   0.00000  Uiso   1.00
C199   C     0.24986   0.75002   0.07349   0.00000  Uiso   1.00
C200   C     0.25001   0.74998   0.25984   0.00000  Uiso   1.00
C201   C     0.24967   0.52725   0.16686   0.00000  Uiso   1.00
C202   C     0.24958   0.97254   0.16693   0.00000  Uiso   1.00
C203   C     0.24984   0.75002   0.02181   0.00000  Uiso   1.00
C204   C     0.24989   0.74996   0.31151   0.00000  Uiso   1.00
C205   C     0.04635   0.77277   0.13192   0.00000  Uiso   1.00
C206   C     0.45397   0.70541   0.16794   0.00000  Uiso   1.00
C207   C     0.45501   0.79191   0.18286   0.00000  Uiso   1.00
C208   C     0.33544   0.74996   0.16910   0.00000  Uiso   1.00
C209   C     0.05045   0.72566   0.20833   0.00000  Uiso   1.00
C210   C     0.09266   0.77216   0.13024   0.00000  Uiso   1.00
C211   C     0.40795   0.70505   0.17052   0.00000  Uiso   1.00
C212   C     0.40899   0.79269   0.18143   0.00000  Uiso   1.00
C213   C     0.09648   0.72406   0.20542   0.00000  Uiso   1.00
C214   C     0.11733   0.74939   0.16792   0.00000  Uiso   1.00
C215   C     0.38446   0.74937   0.17343   0.00000  Uiso   1.00
C216   C     0.02571   0.74934   0.17118   0.00000  Uiso   1.00
C217   C     0.47735   0.74892   0.17321   0.00000  Uiso   1.00
C218   C     0.02049   0.83637   0.08407   0.00000  Uiso   1.00
C219   C     0.26295   0.60464   0.20779   0.00000  Uiso   1.00
C220   C     0.48372   0.84949   0.04705   0.00000  Uiso   1.00
C221   C     0.43806   0.83899   0.06625   0.00000  Uiso   1.00
C222   C     0.47839   0.64540   0.11823   0.00000  Uiso   1.00
C223   C     0.48961   0.59167   0.11980   0.00000  Uiso   1.00
C224   C     0.49048   0.56949   0.06879   0.00000  Uiso   1.00
C225   C     0.49615   0.83838   0.23733   0.00000  Uiso   1.00
C226   C     0.04164   0.86208   0.23509   0.00000  Uiso   1.00
C227   C     0.06332   0.86761   0.28581   0.00000  Uiso   1.00
C228   C     0.03642   0.71411   0.29082   0.00000  Uiso   1.00
C229   C     0.04225   0.66980   0.32408   0.00000  Uiso   1.00
C230   C     0.22346   0.89504   0.13421   0.00000  Uiso   1.00
C231   C     0.07249   0.68012   0.03500   0.00000  Uiso   1.00
C232   C     0.23683   0.60454   0.12566   0.00000  Uiso   1.00
C233   C     0.27556   0.89536   0.19992   0.00000  Uiso   1.00
C234   C     0.26253   0.55395   0.20884   0.00000  Uiso   1.00
C235   C     0.22246   0.94574   0.13397   0.00000  Uiso   1.00
C236   C     0.23695   0.55385   0.12479   0.00000  Uiso   1.00
Cu237  Cu    0.25000   0.79822   0.16667   0.00000  Uiso   1.00
Cu238  Cu    0.25000   0.70179   0.16667   0.00000  Uiso   1.00
H239   H     0.27362   0.62400   0.24032   0.00000  Uiso   1.00
H240   H     0.01618   0.85673   0.11843   0.00000  Uiso   1.00
H241   H     0.48604   0.88854   0.03813   0.00000  Uiso   1.00
H242   H     0.48805   0.82863   0.01288   0.00000  Uiso   1.00
H243   H     0.43450   0.80011   0.07525   0.00000  Uiso   1.00
H244   H     0.41273   0.84844   0.03778   0.00000  Uiso   1.00
H245   H     0.43241   0.86111   0.09922   0.00000  Uiso   1.00
H246   H     0.00442   0.66539   0.09905   0.00000  Uiso   1.00
H247   H     0.44656   0.65002   0.09740   0.00000  Uiso   1.00
H248   H     0.02227   0.58666   0.13846   0.00000  Uiso   1.00
H249   H     0.46451   0.57230   0.14130   0.00000  Uiso   1.00
H250   H     0.20253   0.87514   0.10859   0.00000  Uiso   1.00
H251   H     0.45908   0.57650   0.04822   0.00000  Uiso   1.00
H252   H     0.49495   0.52988   0.07203   0.00000  Uiso   1.00
H253   H     0.01837   0.58440   0.04825   0.00000  Uiso   1.00
H254   H     0.49963   0.80308   0.25638   0.00000  Uiso   1.00
H255   H     0.47433   0.86143   0.25924   0.00000  Uiso   1.00
H256   H     0.06324   0.83973   0.21227   0.00000  Uiso   1.00
H257   H     0.03849   0.89823   0.21772   0.00000  Uiso   1.00
H258   H     0.04387   0.89246   0.30838   0.00000  Uiso   1.00
H259   H     0.09691   0.88296   0.28235   0.00000  Uiso   1.00
H260   H     0.06607   0.83201   0.30431   0.00000  Uiso   1.00
H261   H     0.22622   0.62383   0.09307   0.00000  Uiso   1.00
H262   H     0.00716   0.73425   0.30286   0.00000  Uiso   1.00
H263   H     0.06508   0.73922   0.29513   0.00000  Uiso   1.00
H264   H     0.00943   0.65799   0.00327   0.00000  Uiso   1.00
H265   H     0.05644   0.63939   0.30341   0.00000  Uiso   1.00
H266   H     0.05858   0.70960   0.05668   0.00000  Uiso   1.00
H267   H     0.10587   0.69066   0.02332   0.00000  Uiso   1.00
H268   H     0.07554   0.64746   0.05835   0.00000  Uiso   1.00
H269   H     0.29549   0.87573   0.22651   0.00000  Uiso   1.00
H270   H     0.27178   0.53622   0.24282   0.00000  Uiso   1.00
H271   H     0.19999   0.96343   0.10843   0.00000  Uiso   1.00
H272   H     0.22756   0.53600   0.09091   0.00000  Uiso   1.00
H273   H     0.29860   0.96388   0.22604   0.00000  Uiso   1.00
H274   H     0.05160   0.84903   0.06836   0.00000  Uiso   1.00
N275   N     0.25000   0.62935   0.16667   0.00000  Uiso   1.00
N276   N     0.25000   0.87065   0.16667   0.00000  Uiso   1.00
O277   O     0.18573   0.79071   0.16667   0.00000  Uiso   1.00
O278   O     0.47658   0.66222   0.16684   0.00000  Uiso   1.00
O279   O     0.47803   0.83480   0.18923   0.00000  Uiso   1.00
O280   O     0.02841   0.69789   0.24228   0.00000  Uiso   1.00
O281   O     0.31427   0.70929   0.16666   0.00000  Uiso   1.00
O282   O     0.31427   0.79072   0.16666   0.00000  Uiso   1.00
O283   O     0.18573   0.70929   0.16667   0.00000  Uiso   1.00
O284   O     0.25000   0.79071   0.09613   0.00000  Uiso   1.00
O285   O     0.25000   0.70929   0.23720   0.00000  Uiso   1.00
O286   O     0.25000   0.79071   0.23720   0.00000  Uiso   1.00
O287   O     0.25000   0.70929   0.09613   0.00000  Uiso   1.00
O288   O     0.02075   0.78577   0.09109   0.00000  Uiso   1.00
Br289  Br    0.62257   0.79380   0.07255   0.00000  Uiso   1.00
Br290  Br    0.88083   0.64162   0.17353   0.00000  Uiso   1.00
Br291  Br    0.88313   0.85480   0.19353   0.00000  Uiso   1.00
Br292  Br    0.63072   0.68414   0.25036   0.00000  Uiso   1.00
C293   C     0.66519   0.74983   0.16673   0.00000  Uiso   1.00
C294   C     0.77647   0.94603   0.20014   0.00000  Uiso   1.00
C295   C     0.74986   0.75002   0.07349   0.00000  Uiso   1.00
C296   C     0.75001   0.74998   0.25984   0.00000  Uiso   1.00
C297   C     0.74967   0.52725   0.16686   0.00000  Uiso   1.00
C298   C     0.74958   0.97254   0.16693   0.00000  Uiso   1.00
C299   C     0.74984   0.75002   0.02181   0.00000  Uiso   1.00
C300   C     0.74989   0.74996   0.31151   0.00000  Uiso   1.00
C301   C     0.54635   0.77277   0.13192   0.00000  Uiso   1.00
C302   C     0.95397   0.70541   0.16794   0.00000  Uiso   1.00
C303   C     0.95501   0.79191   0.18286   0.00000  Uiso   1.00
C304   C     0.83544   0.74996   0.16910   0.00000  Uiso   1.00
C305   C     0.55045   0.72566   0.20833   0.00000  Uiso   1.00
C306   C     0.59266   0.77216   0.13024   0.00000  Uiso   1.00
C307   C     0.90795   0.70505   0.17052   0.00000  Uiso   1.00
C308   C     0.90899   0.79269   0.18143   0.00000  Uiso   1.00
C309   C     0.59648   0.72406   0.20542   0.00000  Uiso   1.00
C310   C     0.61733   0.74939   0.16792   0.00000  Uiso   1.00
C311   C     0.88446   0.74937   0.17343   0.00000  Uiso   1.00
C312   C     0.52571   0.74934   0.17118   0.00000  Uiso   1.00
C313   C     0.97735   0.74892   0.17321   0.00000  Uiso   1.00
C314   C     0.52049   0.83637   0.08407   0.00000  Uiso   1.00
C315   C     0.76295   0.60464   0.20779   0.00000  Uiso   1.00
C316   C     0.98372   0.84949   0.04705   0.00000  Uiso   1.00
C317   C     0.93806   0.83899   0.06625   0.00000  Uiso   1.00
C318   C     0.97839   0.64540   0.11823   0.00000  Uiso   1.00
C319   C     0.98961   0.59167   0.11980   0.00000  Uiso   1.00
C320   C     0.99048   0.56949   0.06879   0.00000  Uiso   1.00
C321   C     0.99615   0.83838   0.23733   0.00000  Uiso   1.00
C322   C     0.54164   0.86208   0.23509   0.00000  Uiso   1.00
C323   C     0.56332   0.86761   0.28581   0.00000  Uiso   1.00
C324   C     0.53642   0.71411   0.29082   0.00000  Uiso   1.00
C325   C     0.54225   0.66980   0.32408   0.00000  Uiso   1.00
C326   C     0.72346   0.89504   0.13421   0.00000  Uiso   1.00
C327   C     0.57249   0.68012   0.03500   0.00000  Uiso   1.00
C328   C     0.73683   0.60454   0.12566   0.00000  Uiso   1.00
C329   C     0.77556   0.89536   0.19992   0.00000  Uiso   1.00
C330   C     0.76253   0.55395   0.20884   0.00000  Uiso   1.00
C331   C     0.72246   0.94574   0.13397   0.00000  Uiso   1.00
C332   C     0.73695   0.55385   0.12479   0.00000  Uiso   1.00
Cu333  Cu    0.75000   0.79822   0.16667   0.00000  Uiso   1.00
Cu334  Cu    0.75000   0.70179   0.16667   0.00000  Uiso   1.00
H335   H     0.77362   0.62400   0.24032   0.00000  Uiso   1.00
H336   H     0.51618   0.85673   0.11843   0.00000  Uiso   1.00
H337   H     0.98604   0.88854   0.03813   0.00000  Uiso   1.00
H338   H     0.98805   0.82863   0.01288   0.00000  Uiso   1.00
H339   H     0.93450   0.80011   0.07525   0.00000  Uiso   1.00
H340   H     0.91273   0.84844   0.03778   0.00000  Uiso   1.00
H341   H     0.93241   0.86111   0.09922   0.00000  Uiso   1.00
H342   H     0.50442   0.66539   0.09905   0.00000  Uiso   1.00
H343   H     0.94656   0.65002   0.09740   0.00000  Uiso   1.00
H344   H     0.52227   0.58666   0.13846   0.00000  Uiso   1.00
H345   H     0.96451   0.57230   0.14130   0.00000  Uiso   1.00
H346   H     0.70253   0.87514   0.10859   0.00000  Uiso   1.00
H347   H     0.95908   0.57650   0.04822   0.00000  Uiso   1.00
H348   H     0.99495   0.52988   0.07203   0.00000  Uiso   1.00
H349   H     0.51837   0.58440   0.04825   0.00000  Uiso   1.00
H350   H     0.99963   0.80308   0.25638   0.00000  Uiso   1.00
H351   H     0.97433   0.86143   0.25924   0.00000  Uiso   1.00
H352   H     0.56324   0.83973   0.21227   0.00000  Uiso   1.00
H353   H     0.53849   0.89823   0.21772   0.00000  Uiso   1.00
H354   H     0.54387   0.89246   0.30838   0.00000  Uiso   1.00
H355   H     0.59691   0.88296   0.28235   0.00000  Uiso   1.00
H356   H     0.56607   0.83201   0.30431   0.00000  Uiso   1.00
H357   H     0.72622   0.62383   0.09307   0.00000  Uiso   1.00
H358   H     0.50716   0.73425   0.30286   0.00000  Uiso   1.00
H359   H     0.56508   0.73922   0.29513   0.00000  Uiso   1.00
H360   H     0.50943   0.65799   0.00327   0.00000  Uiso   1.00
H361   H     0.55644   0.63939   0.30341   0.00000  Uiso   1.00
H362   H     0.55858   0.70960   0.05668   0.00000  Uiso   1.00
H363   H     0.60587   0.69066   0.02332   0.00000  Uiso   1.00
H364   H     0.57554   0.64746   0.05835   0.00000  Uiso   1.00
H365   H     0.79549   0.87573   0.22651   0.00000  Uiso   1.00
H366   H     0.77178   0.53622   0.24282   0.00000  Uiso   1.00
H367   H     0.69999   0.96343   0.10843   0.00000  Uiso   1.00
H368   H     0.72756   0.53600   0.09091   0.00000  Uiso   1.00
H369   H     0.79860   0.96388   0.22604   0.00000  Uiso   1.00
H370   H     0.55160   0.84903   0.06836   0.00000  Uiso   1.00
N371   N     0.75000   0.62935   0.16667   0.00000  Uiso   1.00
N372   N     0.75000   0.87065   0.16667   0.00000  Uiso   1.00
O373   O     0.68573   0.79071   0.16667   0.00000  Uiso   1.00
O374   O     0.97658   0.66222   0.16684   0.00000  Uiso   1.00
O375   O     0.97803   0.83480   0.18923   0.00000  Uiso   1.00
O376   O     0.52841   0.69789   0.24228   0.00000  Uiso   1.00
O377   O     0.81427   0.70929   0.16666   0.00000  Uiso   1.00
O378   O     0.81427   0.79072   0.16666   0.00000  Uiso   1.00
O379   O     0.68573   0.70929   0.16667   0.00000  Uiso   1.00
O380   O     0.75000   0.79071   0.09613   0.00000  Uiso   1.00
O381   O     0.75000   0.70929   0.23720   0.00000  Uiso   1.00
O382   O     0.75000   0.79071   0.23720   0.00000  Uiso   1.00
O383   O     0.75000   0.70929   0.09613   0.00000  Uiso   1.00
O384   O     0.52075   0.78577   0.09109   0.00000  Uiso   1.00
Br385  Br    0.12257   0.29380   0.40588   0.00000  Uiso   1.00
Br386  Br    0.38083   0.14162   0.50687   0.00000  Uiso   1.00
Br387  Br    0.38313   0.35480   0.52686   0.00000  Uiso   1.00
Br388  Br    0.13072   0.18414   0.58370   0.00000  Uiso   1.00
C389   C     0.16519   0.24983   0.50006   0.00000  Uiso   1.00
C390   C     0.27647   0.44603   0.53348   0.00000  Uiso   1.00
C391   C     0.24986   0.25002   0.40682   0.00000  Uiso   1.00
C392   C     0.25001   0.24998   0.59318   0.00000  Uiso   1.00
C393   C     0.24967   0.02725   0.50020   0.00000  Uiso   1.00
C394   C     0.24958   0.47254   0.50027   0.00000  Uiso   1.00
C395   C     0.24984   0.25002   0.35514   0.00000  Uiso   1.00
C396   C     0.24989   0.24996   0.64485   0.00000  Uiso   1.00
C397   C     0.04635   0.27277   0.46526   0.00000  Uiso   1.00
C398   C     0.45397   0.20541   0.50128   0.00000  Uiso   1.00
C399   C     0.45501   0.29191   0.51620   0.00000  Uiso   1.00
C400   C     0.33544   0.24996   0.50243   0.00000  Uiso   1.00
C401   C     0.05045   0.22566   0.54167   0.00000  Uiso   1.00
C402   C     0.09266   0.27216   0.46357   0.00000  Uiso   1.00
C403   C     0.40795   0.20505   0.50386   0.00000  Uiso   1.00
C404   C     0.40899   0.29269   0.51476   0.00000  Uiso   1.00
C405   C     0.09648   0.22406   0.53875   0.00000  Uiso   1.00
C406   C     0.11733   0.24939   0.50125   0.00000  Uiso   1.00
C407   C     0.38446   0.24937   0.50676   0.00000  Uiso   1.00
C408   C     0.02571   0.24934   0.50451   0.00000  Uiso   1.00
C409   C     0.47735   0.24892   0.50655   0.00000  Uiso   1.00
C410   C     0.02049   0.33637   0.41740   0.00000  Uiso   1.00
C411   C     0.26295   0.10464   0.54112   0.00000  Uiso   1.00
C412   C     0.48372   0.34949   0.38038   0.00000  Uiso   1.00
C413   C     0.43806   0.33899   0.39959   0.00000  Uiso   1.00
C414   C     0.47839   0.14540   0.45157   0.00000  Uiso   1.00
C415   C     0.48961   0.09167   0.45313   0.00000  Uiso   1.00
C416   C     0.49048   0.06949   0.40212   0.00000  Uiso   1.00
C417   C     0.49615   0.33838   0.57067   0.00000  Uiso   1.00
C418   C     0.04164   0.36208   0.56842   0.00000  Uiso   1.00
C419   C     0.06332   0.36761   0.61914   0.00000  Uiso   1.00
C420   C     0.03642   0.21411   0.62415   0.00000  Uiso   1.00
C421   C     0.04225   0.16980   0.65742   0.00000  Uiso   1.00
C422   C     0.22346   0.39504   0.46754   0.00000  Uiso   1.00
C423   C     0.07249   0.18012   0.36833   0.00000  Uiso   1.00
C424   C     0.23683   0.10454   0.45899   0.00000  Uiso   1.00
C425   C     0.27556   0.39536   0.53325   0.00000  Uiso   1.00
C426   C     0.26253   0.05395   0.54218   0.00000  Uiso   1.00
C427   C     0.22246   0.44574   0.46730   0.00000  Uiso   1.00
C428   C     0.23695   0.05385   0.45812   0.00000  Uiso   1.00
Cu429  Cu    0.25000   0.29822   0.50000   0.00000  Uiso   1.00
Cu430  Cu    0.25000   0.20179   0.50000   0.00000  Uiso   1.00
H431   H     0.27362   0.12400   0.57365   0.00000  Uiso   1.00
H432   H     0.01618   0.35673   0.45176   0.00000  Uiso   1.00
H433   H     0.48604   0.38854   0.37146   0.00000  Uiso   1.00
H434   H     0.48805   0.32863   0.34622   0.00000  Uiso   1.00
H435   H     0.43450   0.30011   0.40859   0.00000  Uiso   1.00
H436   H     0.41273   0.34844   0.37112   0.00000  Uiso   1.00
H437   H     0.43241   0.36111   0.43256   0.00000  Uiso   1.00
H438   H     0.00442   0.16539   0.43238   0.00000  Uiso   1.00
H439   H     0.44656   0.15002   0.43073   0.00000  Uiso   1.00
H440   H     0.02227   0.08666   0.47180   0.00000  Uiso   1.00
H441   H     0.46451   0.07230   0.47464   0.00000  Uiso   1.00
H442   H     0.20253   0.37514   0.44193   0.00000  Uiso   1.00
H443   H     0.45908   0.07650   0.38155   0.00000  Uiso   1.00
H444   H     0.49495   0.02988   0.40537   0.00000  Uiso   1.00
H445   H     0.01837   0.08440   0.38158   0.00000  Uiso   1.00
H446   H     0.49963   0.30308   0.58971   0.00000  Uiso   1.00
H447   H     0.47433   0.36143   0.59257   0.00000  Uiso   1.00
H448   H     0.06324   0.33973   0.54560   0.00000  Uiso   1.00
H449   H     0.03849   0.39823   0.55105   0.00000  Uiso   1.00
H450   H     0.04387   0.39246   0.64172   0.00000  Uiso   1.00
H451   H     0.09691   0.38296   0.61569   0.00000  Uiso   1.00
H452   H     0.06607   0.33201   0.63765   0.00000  Uiso   1.00
H453   H     0.22622   0.12383   0.42640   0.00000  Uiso   1.00
H454   H     0.00716   0.23425   0.63620   0.00000  Uiso   1.00
H455   H     0.06508   0.23922   0.62847   0.00000  Uiso   1.00
H456   H     0.00943   0.15799   0.33660   0.00000  Uiso   1.00
H457   H     0.05644   0.13939   0.63674   0.00000  Uiso   1.00
H458   H     0.05858   0.20960   0.39001   0.00000  Uiso   1.00
H459   H     0.10587   0.19066   0.35665   0.00000  Uiso   1.00
H460   H     0.07554   0.14746   0.39168   0.00000  Uiso   1.00
H461   H     0.29549   0.37573   0.55984   0.00000  Uiso   1.00
H462   H     0.27178   0.03622   0.57615   0.00000  Uiso   1.00
H463   H     0.19999   0.46343   0.44176   0.00000  Uiso   1.00
H464   H     0.22756   0.03600   0.42424   0.00000  Uiso   1.00
H465   H     0.29860   0.46388   0.55937   0.00000  Uiso   1.00
H466   H     0.05160   0.34903   0.40170   0.00000  Uiso   1.00
N467   N     0.25000   0.12935   0.50000   0.00000  Uiso   1.00
N468   N     0.25000   0.37065   0.50000   0.00000  Uiso   1.00
O469   O     0.18573   0.29071   0.50000   0.00000  Uiso   1.00
O470   O     0.47658   0.16222   0.50018   0.00000  Uiso   1.00
O471   O     0.47803   0.33480   0.52256   0.00000  Uiso   1.00
O472   O     0.02841   0.19789   0.57561   0.00000  Uiso   1.00
O473   O     0.31427   0.20929   0.50000   0.00000  Uiso   1.00
O474   O     0.31427   0.29072   0.50000   0.00000  Uiso   1.00
O475   O     0.18573   0.20929   0.50000   0.00000  Uiso   1.00
O476   O     0.25000   0.29071   0.42946   0.00000  Uiso   1.00
O477   O     0.25000   0.20929   0.57054   0.00000  Uiso   1.00
O478   O     0.25000   0.29071   0.57054   0.00000  Uiso   1.00
O479   O     0.25000   0.20929   0.42946   0.00000  Uiso   1.00
O480   O     0.02075   0.28577   0.42442   0.00000  Uiso   1.00
Br481  Br    0.62257   0.29380   0.40588   0.00000  Uiso   1.00
Br482  Br    0.88083   0.14162   0.50687   0.00000  Uiso   1.00
Br483  Br    0.88313   0.35480   0.52686   0.00000  Uiso   1.00
Br484  Br    0.63072   0.18414   0.58370   0.00000  Uiso   1.00
C485   C     0.66519   0.24983   0.50006   0.00000  Uiso   1.00
C486   C     0.77647   0.44603   0.53348   0.00000  Uiso   1.00
C487   C     0.74986   0.25002   0.40682   0.00000  Uiso   1.00
C488   C     0.75001   0.24998   0.59318   0.00000  Uiso   1.00
C489   C     0.74967   0.02725   0.50020   0.00000  Uiso   1.00
C490   C     0.74958   0.47254   0.50027   0.00000  Uiso   1.00
C491   C     0.74984   0.25002   0.35514   0.00000  Uiso   1.00
C492   C     0.74989   0.24996   0.64485   0.00000  Uiso   1.00
C493   C     0.54635   0.27277   0.46526   0.00000  Uiso   1.00
C494   C     0.95397   0.20541   0.50128   0.00000  Uiso   1.00
C495   C     0.95501   0.29191   0.51620   0.00000  Uiso   1.00
C496   C     0.83544   0.24996   0.50243   0.00000  Uiso   1.00
C497   C     0.55045   0.22566   0.54167   0.00000  Uiso   1.00
C498   C     0.59266   0.27216   0.46357   0.00000  Uiso   1.00
C499   C     0.90795   0.20505   0.50386   0.00000  Uiso   1.00
C500   C     0.90899   0.29269   0.51476   0.00000  Uiso   1.00
C501   C     0.59648   0.22406   0.53875   0.00000  Uiso   1.00
C502   C     0.61733   0.24939   0.50125   0.00000  Uiso   1.00
C503   C     0.88446   0.24937   0.50676   0.00000  Uiso   1.00
C504   C     0.52571   0.24934   0.50451   0.00000  Uiso   1.00
C505   C     0.97735   0.24892   0.50655   0.00000  Uiso   1.00
C506   C     0.52049   0.33637   0.41740   0.00000  Uiso   1.00
C507   C     0.76295   0.10464   0.54112   0.00000  Uiso   1.00
C508   C     0.98372   0.34949   0.38038   0.00000  Uiso   1.00
C509   C     0.93806   0.33899   0.39959   0.00000  Uiso   1.00
C510   C     0.97839   0.14540   0.45157   0.00000  Uiso   1.00
C511   C     0.98961   0.09167   0.45313   0.00000  Uiso   1.00
C512   C     0.99048   0.06949   0.40212   0.00000  Uiso   1.00
C513   C     0.99615   0.33838   0.57067   0.00000  Uiso   1.00
C514   C     0.54164   0.36208   0.56842   0.00000  Uiso   1.00
C515   C     0.56332   0.36761   0.61914   0.00000  Uiso   1.00
C516   C     0.53642   0.21411   0.62415   0.00000  Uiso   1.00
C517   C     0.54225   0.16980   0.65742   0.00000  Uiso   1.00
C518   C     0.72346   0.39504   0.46754   0.00000  Uiso   1.00
C519   C     0.57249   0.18012   0.36833   0.00000  Uiso   1.00
C520   C     0.73683   0.10454   0.45899   0.00000  Uiso   1.00
C521   C     0.77556   0.39536   0.53325   0.00000  Uiso   1.00
C522   C     0.76253   0.05395   0.54218   0.00000  Uiso   1.00
C523   C     0.72246   0.44574   0.46730   0.00000  Uiso   1.00
C524   C     0.73695   0.05385   0.45812   0.00000  Uiso   1.00
Cu525  Cu    0.75000   0.29822   0.50000   0.00000  Uiso   1.00
Cu526  Cu    0.75000   0.20179   0.50000   0.00000  Uiso   1.00
H527   H     0.77362   0.12400   0.57365   0.00000  Uiso   1.00
H528   H     0.51618   0.35673   0.45176   0.00000  Uiso   1.00
H529   H     0.98604   0.38854   0.37146   0.00000  Uiso   1.00
H530   H     0.98805   0.32863   0.34622   0.00000  Uiso   1.00
H531   H     0.93450   0.30011   0.40859   0.00000  Uiso   1.00
H532   H     0.91273   0.34844   0.37112   0.00000  Uiso   1.00
H533   H     0.93241   0.36111   0.43256   0.00000  Uiso   1.00
H534   H     0.50442   0.16539   0.43238   0.00000  Uiso   1.00
H535   H     0.94656   0.15002   0.43073   0.00000  Uiso   1.00
H536   H     0.52227   0.08666   0.47180   0.00000  Uiso   1.00
H537   H     0.96451   0.07230   0.47464   0.00000  Uiso   1.00
H538   H     0.70253   0.37514   0.44193   0.00000  Uiso   1.00
H539   H     0.95908   0.07650   0.38155   0.00000  Uiso   1.00
H540   H     0.99495   0.02988   0.40537   0.00000  Uiso   1.00
H541   H     0.51837   0.08440   0.38158   0.00000  Uiso   1.00
H542   H     0.99963   0.30308   0.58971   0.00000  Uiso   1.00
H543   H     0.97433   0.36143   0.59257   0.00000  Uiso   1.00
H544   H     0.56324   0.33973   0.54560   0.00000  Uiso   1.00
H545   H     0.53849   0.39823   0.55105   0.00000  Uiso   1.00
H546   H     0.54387   0.39246   0.64172   0.00000  Uiso   1.00
H547   H     0.59691   0.38296   0.61569   0.00000  Uiso   1.00
H548   H     0.56607   0.33201   0.63765   0.00000  Uiso   1.00
H549   H     0.72622   0.12383   0.42640   0.00000  Uiso   1.00
H550   H     0.50716   0.23425   0.63620   0.00000  Uiso   1.00
H551   H     0.56508   0.23922   0.62847   0.00000  Uiso   1.00
H552   H     0.50943   0.15799   0.33660   0.00000  Uiso   1.00
H553   H     0.55644   0.13939   0.63674   0.00000  Uiso   1.00
H554   H     0.55858   0.20960   0.39001   0.00000  Uiso   1.00
H555   H     0.60587   0.19066   0.35665   0.00000  Uiso   1.00
H556   H     0.57554   0.14746   0.39168   0.00000  Uiso   1.00
H557   H     0.79549   0.37573   0.55984   0.00000  Uiso   1.00
H558   H     0.77178   0.03622   0.57615   0.00000  Uiso   1.00
H559   H     0.69999   0.46343   0.44176   0.00000  Uiso   1.00
H560   H     0.72756   0.03600   0.42424   0.00000  Uiso   1.00
H561   H     0.79860   0.46388   0.55937   0.00000  Uiso   1.00
H562   H     0.55160   0.34903   0.40170   0.00000  Uiso   1.00
N563   N     0.75000   0.12935   0.50000   0.00000  Uiso   1.00
N564   N     0.75000   0.37065   0.50000   0.00000  Uiso   1.00
O565   O     0.68573   0.29071   0.50000   0.00000  Uiso   1.00
O566   O     0.97658   0.16222   0.50018   0.00000  Uiso   1.00
O567   O     0.97803   0.33480   0.52256   0.00000  Uiso   1.00
O568   O     0.52841   0.19789   0.57561   0.00000  Uiso   1.00
O569   O     0.81427   0.20929   0.50000   0.00000  Uiso   1.00
O570   O     0.81427   0.29072   0.50000   0.00000  Uiso   1.00
O571   O     0.68573   0.20929   0.50000   0.00000  Uiso   1.00
O572   O     0.75000   0.29071   0.42946   0.00000  Uiso   1.00
O573   O     0.75000   0.20929   0.57054   0.00000  Uiso   1.00
O574   O     0.75000   0.29071   0.57054   0.00000  Uiso   1.00
O575   O     0.75000   0.20929   0.42946   0.00000  Uiso   1.00
O576   O     0.52075   0.28577   0.42442   0.00000  Uiso   1.00
Br577  Br    0.12257   0.79380   0.40588   0.00000  Uiso   1.00
Br578  Br    0.38083   0.64162   0.50687   0.00000  Uiso   1.00
Br579  Br    0.38313   0.85480   0.52686   0.00000  Uiso   1.00
Br580  Br    0.13072   0.68414   0.58370   0.00000  Uiso   1.00
C581   C     0.16519   0.74983   0.50006   0.00000  Uiso   1.00
C582   C     0.27647   0.94603   0.53348   0.00000  Uiso   1.00
C583   C     0.24986   0.75002   0.40682   0.00000  Uiso   1.00
C584   C     0.25001   0.74998   0.59318   0.00000  Uiso   1.00
C585   C     0.24967   0.52725   0.50020   0.00000  Uiso   1.00
C586   C     0.24958   0.97254   0.50027   0.00000  Uiso   1.00
C587   C     0.24984   0.75002   0.35514   0.00000  Uiso   1.00
C588   C     0.24989   0.74996   0.64485   0.00000  Uiso   1.00
C589   C     0.04635   0.77277   0.46526   0.00000  Uiso   1.00
C590   C     0.45397   0.70541   0.50128   0.00000  Uiso   1.00
C591   C     0.45501   0.79191   0.51620   0.00000  Uiso   1.00
C592   C     0.33544   0.74996   0.50243   0.00000  Uiso   1.00
C593   C     0.05045   0.72566   0.54167   0.00000  Uiso   1.00
C594   C     0.09266   0.77216   0.46357   0.00000  Uiso   1.00
C595   C     0.40795   0.70505   0.50386   0.00000  Uiso   1.00
C596   C     0.40899   0.79269   0.51476   0.00000  Uiso   1.00
C597   C     0.09648   0.72406   0.53875   0.00000  Uiso   1.00
C598   C     0.11733   0.74939   0.50125   0.00000  Uiso   1.00
C599   C     0.38446   0.74937   0.50676   0.00000  Uiso   1.00
C600   C     0.02571   0.74934   0.50451   0.00000  Uiso   1.00
C601   C     0.47735   0.74892   0.50655   0.00000  Uiso   1.00
C602   C     0.02049   0.83637   0.41740   0.00000  Uiso   1.00
C603   C     0.26295   0.60464   0.54112   0.00000  Uiso   1.00
C604   C     0.48372   0.84949   0.38038   0.00000  Uiso   1.00
C605   C     0.43806   0.83899   0.39959   0.00000  Uiso   1.00
C606   C     0.47839   0.64540   0.45157   0.00000  Uiso   1.00
C607   C     0.48961   0.59167   0.45313   0.00000  Uiso   1.00
C608   C     0.49048   0.56949   0.40212   0.00000  Uiso   1.00
C609   C     0.49615   0.83838   0.57067   0.00000  Uiso   1.00
C610   C     0.04164   0.86208   0.56842   0.00000  Uiso   1.00
C611   C     0.06332   0.86761   0.61914   0.00000  Uiso   1.00
C612   C     0.03642   0.71411   0.62415   0.00000  Uiso   1.00
C613   C     0.04225   0.66980   0.65742   0.00000  Uiso   1.00
C614   C     0.22346   0.89504   0.46754   0.00000  Uiso   1.00
C615   C     0.07249   0.68012   0.36833   0.00000  Uiso   1.00
C616   C     0.23683   0.60454   0.45899   0.00000  Uiso   1.00
C617   C     0.27556   0.89536   0.53325   0.00000  Uiso   1.00
C618   C     0.26253   0.55395   0.54218   0.00000  Uiso   1.00
C619   C     0.22246   0.94574   0.46730   0.00000  Uiso   1.00
C620   C     0.23695   0.55385   0.45812   0.00000  Uiso   1.00
Cu621  Cu    0.25000   0.79822   0.50000   0.00000  Uiso   1.00
Cu622  Cu    0.25000   0.70179   0.50000   0.00000  Uiso   1.00
H623   H     0.27362   0.62400   0.57365   0.00000  Uiso   1.00
H624   H     0.01618   0.85673   0.45176   0.00000  Uiso   1.00
H625   H     0.48604   0.88854   0.37146   0.00000  Uiso   1.00
H626   H     0.48805   0.82863   0.34622   0.00000  Uiso   1.00
H627   H     0.43450   0.80011   0.40859   0.00000  Uiso   1.00
H628   H     0.41273   0.84844   0.37112   0.00000  Uiso   1.00
H629   H     0.43241   0.86111   0.43256   0.00000  Uiso   1.00
H630   H     0.00442   0.66539   0.43238   0.00000  Uiso   1.00
H631   H     0.44656   0.65002   0.43073   0.00000  Uiso   1.00
H632   H     0.02227   0.58666   0.47180   0.00000  Uiso   1.00
H633   H     0.46451   0.57230   0.47464   0.00000  Uiso   1.00
H634   H     0.20253   0.87514   0.44193   0.00000  Uiso   1.00
H635   H     0.45908   0.57650   0.38155   0.00000  Uiso   1.00
H636   H     0.49495   0.52988   0.40537   0.00000  Uiso   1.00
H637   H     0.01837   0.58440   0.38158   0.00000  Uiso   1.00
H638   H     0.49963   0.80308   0.58971   0.00000  Uiso   1.00
H639   H     0.47433   0.86143   0.59257   0.00000  Uiso   1.00
H640   H     0.06324   0.83973   0.54560   0.00000  Uiso   1.00
H641   H     0.03849   0.89823   0.55105   0.00000  Uiso   1.00
H642   H     0.04387   0.89246   0.64172   0.00000  Uiso   1.00
H643   H     0.09691   0.88296   0.61569   0.00000  Uiso   1.00
H644   H     0.06607   0.83201   0.63765   0.00000  Uiso   1.00
H645   H     0.22622   0.62383   0.42640   0.00000  Uiso   1.00
H646   H     0.00716   0.73425   0.63620   0.00000  Uiso   1.00
H647   H     0.06508   0.73922   0.62847   0.00000  Uiso   1.00
H648   H     0.00943   0.65799   0.33660   0.00000  Uiso   1.00
H649   H     0.05644   0.63939   0.63674   0.00000  Uiso   1.00
H650   H     0.05858   0.70960   0.39001   0.00000  Uiso   1.00
H651   H     0.10587   0.69066   0.35665   0.00000  Uiso   1.00
H652   H     0.07554   0.64746   0.39168   0.00000  Uiso   1.00
H653   H     0.29549   0.87573   0.55984   0.00000  Uiso   1.00
H654   H     0.27178   0.53622   0.57615   0.00000  Uiso   1.00
H655   H     0.19999   0.96343   0.44176   0.00000  Uiso   1.00
H656   H     0.22756   0.53600   0.42424   0.00000  Uiso   1.00
H657   H     0.29860   0.96388   0.55937   0.00000  Uiso   1.00
H658   H     0.05160   0.84903   0.40170   0.00000  Uiso   1.00
N659   N     0.25000   0.62935   0.50000   0.00000  Uiso   1.00
N660   N     0.25000   0.87065   0.50000   0.00000  Uiso   1.00
O661   O     0.18573   0.79071   0.50000   0.00000  Uiso   1.00
O662   O     0.47658   0.66222   0.50018   0.00000  Uiso   1.00
O663   O     0.47803   0.83480   0.52256   0.00000  Uiso   1.00
O664   O     0.02841   0.69789   0.57561   0.00000  Uiso   1.00
O665   O     0.31427   0.70929   0.50000   0.00000  Uiso   1.00
O666   O     0.31427   0.79072   0.50000   0.00000  Uiso   1.00
O667   O     0.18573   0.70929   0.50000   0.00000  Uiso   1.00
O668   O     0.25000   0.79071   0.42946   0.00000  Uiso   1.00
O669   O     0.25000   0.70929   0.57054   0.00000  Uiso   1.00
O670   O     0.25000   0.79071   0.57054   0.00000  Uiso   1.00
O671   O     0.25000   0.70929   0.42946   0.00000  Uiso   1.00
O672   O     0.02075   0.78577   0.42442   0.00000  Uiso   1.00
Br673  Br    0.62257   0.79380   0.40588   0.00000  Uiso   1.00
Br674  Br    0.88083   0.64162   0.50687   0.00000  Uiso   1.00
Br675  Br    0.88313   0.85480   0.52686   0.00000  Uiso   1.00
Br676  Br    0.63072   0.68414   0.58370   0.00000  Uiso   1.00
C677   C     0.66519   0.74983   0.50006   0.00000  Uiso   1.00
C678   C     0.77647   0.94603   0.53348   0.00000  Uiso   1.00
C679   C     0.74986   0.75002   0.40682   0.00000  Uiso   1.00
C680   C     0.75001   0.74998   0.59318   0.00000  Uiso   1.00
C681   C     0.74967   0.52725   0.50020   0.00000  Uiso   1.00
C682   C     0.74958   0.97254   0.50027   0.00000  Uiso   1.00
C683   C     0.74984   0.75002   0.35514   0.00000  Uiso   1.00
C684   C     0.74989   0.74996   0.64485   0.00000  Uiso   1.00
C685   C     0.54635   0.77277   0.46526   0.00000  Uiso   1.00
C686   C     0.95397   0.70541   0.50128   0.00000  Uiso   1.00
C687   C     0.95501   0.79191   0.51620   0.00000  Uiso   1.00
C688   C     0.83544   0.74996   0.50243   0.00000  Uiso   1.00
C689   C     0.55045   0.72566   0.54167   0.00000  Uiso   1.00
C690   C     0.59266   0.77216   0.46357   0.00000  Uiso   1.00
C691   C     0.90795   0.70505   0.50386   0.00000  Uiso   1.00
C692   C     0.90899   0.79269   0.51476   0.00000  Uiso   1.00
C693   C     0.59648   0.72406   0.53875   0.00000  Uiso   1.00
C694   C     0.61733   0.74939   0.50125   0.00000  Uiso   1.00
C695   C     0.88446   0.74937   0.50676   0.00000  Uiso   1.00
C696   C     0.52571   0.74934   0.50451   0.00000  Uiso   1.00
C697   C     0.97735   0.74892   0.50655   0.00000  Uiso   1.00
C698   C     0.52049   0.83637   0.41740   0.00000  Uiso   1.00
C699   C     0.76295   0.60464   0.54112   0.00000  Uiso   1.00
C700   C     0.98372   0.84949   0.38038   0.00000  Uiso   1.00
C701   C     0.93806   0.83899   0.39959   0.00000  Uiso   1.00
C702   C     0.97839   0.64540   0.45157   0.00000  Uiso   1.00
C703   C     0.98961   0.59167   0.45313   0.00000  Uiso   1.00
C704   C     0.99048   0.56949   0.40212   0.00000  Uiso   1.00
C705   C     0.99615   0.83838   0.57067   0.00000  Uiso   1.00
C706   C     0.54164   0.86208   0.56842   0.00000  Uiso   1.00
C707   C     0.56332   0.86761   0.61914   0.00000  Uiso   1.00
C708   C     0.53642   0.71411   0.62415   0.00000  Uiso   1.00
C709   C     0.54225   0.66980   0.65742   0.00000  Uiso   1.00
C710   C     0.72346   0.89504   0.46754   0.00000  Uiso   1.00
C711   C     0.57249   0.68012   0.36833   0.00000  Uiso   1.00
C712   C     0.73683   0.60454   0.45899   0.00000  Uiso   1.00
C713   C     0.77556   0.89536   0.53325   0.00000  Uiso   1.00
C714   C     0.76253   0.55395   0.54218   0.00000  Uiso   1.00
C715   C     0.72246   0.94574   0.46730   0.00000  Uiso   1.00
C716   C     0.73695   0.55385   0.45812   0.00000  Uiso   1.00
Cu717  Cu    0.75000   0.79822   0.50000   0.00000  Uiso   1.00
Cu718  Cu    0.75000   0.70179   0.50000   0.00000  Uiso   1.00
H719   H     0.77362   0.62400   0.57365   0.00000  Uiso   1.00
H720   H     0.51618   0.85673   0.45176   0.00000  Uiso   1.00
H721   H     0.98604   0.88854   0.37146   0.00000  Uiso   1.00
H722   H     0.98805   0.82863   0.34622   0.00000  Uiso   1.00
H723   H     0.93450   0.80011   0.40859   0.00000  Uiso   1.00
H724   H     0.91273   0.84844   0.37112   0.00000  Uiso   1.00
H725   H     0.93241   0.86111   0.43256   0.00000  Uiso   1.00
H726   H     0.50442   0.66539   0.43238   0.00000  Uiso   1.00
H727   H     0.94656   0.65002   0.43073   0.00000  Uiso   1.00
H728   H     0.52227   0.58666   0.47180   0.00000  Uiso   1.00
H729   H     0.96451   0.57230   0.47464   0.00000  Uiso   1.00
H730   H     0.70253   0.87514   0.44193   0.00000  Uiso   1.00
H731   H     0.95908   0.57650   0.38155   0.00000  Uiso   1.00
H732   H     0.99495   0.52988   0.40537   0.00000  Uiso   1.00
H733   H     0.51837   0.58440   0.38158   0.00000  Uiso   1.00
H734   H     0.99963   0.80308   0.58971   0.00000  Uiso   1.00
H735   H     0.97433   0.86143   0.59257   0.00000  Uiso   1.00
H736   H     0.56324   0.83973   0.54560   0.00000  Uiso   1.00
H737   H     0.53849   0.89823   0.55105   0.00000  Uiso   1.00
H738   H     0.54387   0.89246   0.64172   0.00000  Uiso   1.00
H739   H     0.59691   0.88296   0.61569   0.00000  Uiso   1.00
H740   H     0.56607   0.83201   0.63765   0.00000  Uiso   1.00
H741   H     0.72622   0.62383   0.42640   0.00000  Uiso   1.00
H742   H     0.50716   0.73425   0.63620   0.00000  Uiso   1.00
H743   H     0.56508   0.73922   0.62847   0.00000  Uiso   1.00
H744   H     0.50943   0.65799   0.33660   0.00000  Uiso   1.00
H745   H     0.55644   0.63939   0.63674   0.00000  Uiso   1.00
H746   H     0.55858   0.70960   0.39001   0.00000  Uiso   1.00
H747   H     0.60587   0.69066   0.35665   0.00000  Uiso   1.00
H748   H     0.57554   0.64746   0.39168   0.00000  Uiso   1.00
H749   H     0.79549   0.87573   0.55984   0.00000  Uiso   1.00
H750   H     0.77178   0.53622   0.57615   0.00000  Uiso   1.00
H751   H     0.69999   0.96343   0.44176   0.00000  Uiso   1.00
H752   H     0.72756   0.53600   0.42424   0.00000  Uiso   1.00
H753   H     0.79860   0.96388   0.55937   0.00000  Uiso   1.00
H754   H     0.55160   0.84903   0.40170   0.00000  Uiso   1.00
N755   N     0.75000   0.62935   0.50000   0.00000  Uiso   1.00
N756   N     0.75000   0.87065   0.50000   0.00000  Uiso   1.00
O757   O     0.68573   0.79071   0.50000   0.00000  Uiso   1.00
O758   O     0.97658   0.66222   0.50018   0.00000  Uiso   1.00
O759   O     0.97803   0.83480   0.52256   0.00000  Uiso   1.00
O760   O     0.52841   0.69789   0.57561   0.00000  Uiso   1.00
O761   O     0.81427   0.70929   0.50000   0.00000  Uiso   1.00
O762   O     0.81427   0.79072   0.50000   0.00000  Uiso   1.00
O763   O     0.68573   0.70929   0.50000   0.00000  Uiso   1.00
O764   O     0.75000   0.79071   0.42946   0.00000  Uiso   1.00
O765   O     0.75000   0.70929   0.57054   0.00000  Uiso   1.00
O766   O     0.75000   0.79071   0.57054   0.00000  Uiso   1.00
O767   O     0.75000   0.70929   0.42946   0.00000  Uiso   1.00
O768   O     0.52075   0.78577   0.42442   0.00000  Uiso   1.00
Br769  Br    0.12257   0.29380   0.73922   0.00000  Uiso   1.00
Br770  Br    0.38083   0.14162   0.84020   0.00000  Uiso   1.00
Br771  Br    0.38313   0.35480   0.86019   0.00000  Uiso   1.00
Br772  Br    0.13072   0.18414   0.91703   0.00000  Uiso   1.00
C773   C     0.16519   0.24983   0.83340   0.00000  Uiso   1.00
C774   C     0.27647   0.44603   0.86681   0.00000  Uiso   1.00
C775   C     0.24986   0.25002   0.74015   0.00000  Uiso   1.00
C776   C     0.25001   0.24998   0.92651   0.00000  Uiso   1.00
C777   C     0.24967   0.02725   0.83353   0.00000  Uiso   1.00
C778   C     0.24958   0.47254   0.83360   0.00000  Uiso   1.00
C779   C     0.24984   0.25002   0.68848   0.00000  Uiso   1.00
C780   C     0.24989   0.24996   0.97818   0.00000  Uiso   1.00
C781   C     0.04635   0.27277   0.79859   0.00000  Uiso   1.00
C782   C     0.45397   0.20541   0.83461   0.00000  Uiso   1.00
C783   C     0.45501   0.29191   0.84953   0.00000  Uiso   1.00
C784   C     0.33544   0.24996   0.83576   0.00000  Uiso   1.00
C785   C     0.05045   0.22566   0.87500   0.00000  Uiso   1.00
C786   C     0.09266   0.27216   0.79691   0.00000  Uiso   1.00
C787   C     0.40795   0.20505   0.83719   0.00000  Uiso   1.00
C788   C     0.40899   0.29269   0.84809   0.00000  Uiso   1.00
C789   C     0.09648   0.22406   0.87209   0.00000  Uiso   1.00
C790   C     0.11733   0.24939   0.83459   0.00000  Uiso   1.00
C791   C     0.38446   0.24937   0.84010   0.00000  Uiso   1.00
C792   C     0.02571   0.24934   0.83785   0.00000  Uiso   1.00
C793   C     0.47735   0.24892   0.83988   0.00000  Uiso   1.00
C794   C     0.02049   0.33637   0.75074   0.00000  Uiso   1.00
C795   C     0.26295   0.10464   0.87445   0.00000  Uiso   1.00
C796   C     0.48372   0.34949   0.71371   0.00000  Uiso   1.00
C797   C     0.43806   0.33899   0.73292   0.00000  Uiso   1.00
C798   C     0.47839   0.14540   0.78490   0.00000  Uiso   1.00
C799   C     0.48961   0.09167   0.78646   0.00000  Uiso   1.00
C800   C     0.49048   0.06949   0.73545   0.00000  Uiso   1.00
C801   C     0.49615   0.33838   0.90400   0.00000  Uiso   1.00
C802   C     0.04164   0.36208   0.90176   0.00000  Uiso   1.00
C803   C     0.06332   0.36761   0.95248   0.00000  Uiso   1.00
C804   C     0.03642   0.21411   0.95748   0.00000  Uiso   1.00
C805   C     0.04225   0.16980   0.99075   0.00000  Uiso   1.00
C806   C     0.22346   0.39504   0.80087   0.00000  Uiso   1.00
C807   C     0.07249   0.18012   0.70167   0.00000  Uiso   1.00
C808   C     0.23683   0.10454   0.79232   0.00000  Uiso   1.00
C809   C     0.27556   0.39536   0.86659   0.00000  Uiso   1.00
C810   C     0.26253   0.05395   0.87551   0.00000  Uiso   1.00
C811   C     0.22246   0.44574   0.80064   0.00000  Uiso   1.00
C812   C     0.23695   0.05385   0.79145   0.00000  Uiso   1.00
Cu813  Cu    0.25000   0.29822   0.83333   0.00000  Uiso   1.00
Cu814  Cu    0.25000   0.20179   0.83333   0.00000  Uiso   1.00
H815   H     0.27362   0.12400   0.90699   0.00000  Uiso   1.00
H816   H     0.01618   0.35673   0.78509   0.00000  Uiso   1.00
H817   H     0.48604   0.38854   0.70480   0.00000  Uiso   1.00
H818   H     0.48805   0.32863   0.67955   0.00000  Uiso   1.00
H819   H     0.43450   0.30011   0.74192   0.00000  Uiso   1.00
H820   H     0.41273   0.34844   0.70445   0.00000  Uiso   1.00
H821   H     0.43241   0.36111   0.76589   0.00000  Uiso   1.00
H822   H     0.00442   0.16539   0.76572   0.00000  Uiso   1.00
H823   H     0.44656   0.15002   0.76406   0.00000  Uiso   1.00
H824   H     0.02227   0.08666   0.80513   0.00000  Uiso   1.00
H825   H     0.46451   0.07230   0.80797   0.00000  Uiso   1.00
H826   H     0.20253   0.37514   0.77526   0.00000  Uiso   1.00
H827   H     0.45908   0.07650   0.71488   0.00000  Uiso   1.00
H828   H     0.49495   0.02988   0.73870   0.00000  Uiso   1.00
H829   H     0.01837   0.08440   0.71492   0.00000  Uiso   1.00
H830   H     0.49963   0.30308   0.92305   0.00000  Uiso   1.00
H831   H     0.47433   0.36143   0.92590   0.00000  Uiso   1.00
H832   H     0.06324   0.33973   0.87894   0.00000  Uiso   1.00
H833   H     0.03849   0.39823   0.88439   0.00000  Uiso   1.00
H834   H     0.04387   0.39246   0.97505   0.00000  Uiso   1.00
H835   H     0.09691   0.38296   0.94902   0.00000  Uiso   1.00
H836   H     0.06607   0.33201   0.97098   0.00000  Uiso   1.00
H837   H     0.22622   0.12383   0.75973   0.00000  Uiso   1.00
H838   H     0.00716   0.23425   0.96953   0.00000  Uiso   1.00
H839   H     0.06508   0.23922   0.96180   0.00000  Uiso   1.00
H840   H     0.00943   0.15799   0.66993   0.00000  Uiso   1.00
H841   H     0.05644   0.13939   0.97008   0.00000  Uiso   1.00
H842   H     0.05858   0.20960   0.72334   0.00000  Uiso   1.00
H843   H     0.10587   0.19066   0.68998   0.00000  Uiso   1.00
H844   H     0.07554   0.14746   0.72502   0.00000  Uiso   1.00
H845   H     0.29549   0.37573   0.89317   0.00000  Uiso   1.00
H846   H     0.27178   0.03622   0.90949   0.00000  Uiso   1.00
H847   H     0.19999   0.46343   0.77510   0.00000  Uiso   1.00
H848   H     0.22756   0.03600   0.75757   0.00000  Uiso   1.00
H849   H     0.29860   0.46388   0.89271   0.00000  Uiso   1.00
H850   H     0.05160   0.34903   0.73503   0.00000  Uiso   1.00
N851   N     0.25000   0.12935   0.83333   0.00000  Uiso   1.00
N852   N     0.25000   0.37065   0.83333   0.00000  Uiso   1.00
O853   O     0.18573   0.29071   0.83334   0.00000  Uiso   1.00
O854   O     0.47658   0.16222   0.83351   0.00000  Uiso   1.00
O855   O     0.47803   0.33480   0.85590   0.00000  Uiso   1.00
O856   O     0.02841   0.19789   0.90894   0.00000  Uiso   1.00
O857   O     0.31427   0.20929   0.83333   0.00000  Uiso   1.00
O858   O     0.31427   0.29072   0.83333   0.00000  Uiso   1.00
O859   O     0.18573   0.20929   0.83334   0.00000  Uiso   1.00
O860   O     0.25000   0.29071   0.76280   0.00000  Uiso   1.00
O861   O     0.25000   0.20929   0.90387   0.00000  Uiso   1.00
O862   O     0.25000   0.29071   0.90387   0.00000  Uiso   1.00
O863   O     0.25000   0.20929   0.76280   0.00000  Uiso   1.00
O864   O     0.02075   0.28577   0.75775   0.00000  Uiso   1.00
Br865  Br    0.62257   0.29380   0.73922   0.00000  Uiso   1.00
Br866  Br    0.88083   0.14162   0.84020   0.00000  Uiso   1.00
Br867  Br    0.88313   0.35480   0.86019   0.00000  Uiso   1.00
Br868  Br    0.63072   0.18414   0.91703   0.00000  Uiso   1.00
C869   C     0.66519   0.24983   0.83340   0.00000  Uiso   1.00
C870   C     0.77647   0.44603   0.86681   0.00000  Uiso   1.00
C871   C     0.74986   0.25002   0.74015   0.00000  Uiso   1.00
C872   C     0.75001   0.24998   0.92651   0.00000  Uiso   1.00
C873   C     0.74967   0.02725   0.83353   0.00000  Uiso   1.00
C874   C     0.74958   0.47254   0.83360   0.00000  Uiso   1.00
C875   C     0.74984   0.25002   0.68848   0.00000  Uiso   1.00
C876   C     0.74989   0.24996   0.97818   0.00000  Uiso   1.00
C877   C     0.54635   0.27277   0.79859   0.00000  Uiso   1.00
C878   C     0.95397   0.20541   0.83461   0.00000  Uiso   1.00
C879   C     0.95501   0.29191   0.84953   0.00000  Uiso   1.00
C880   C     0.83544   0.24996   0.83576   0.00000  Uiso   1.00
C881   C     0.55045   0.22566   0.87500   0.00000  Uiso   1.00
C882   C     0.59266   0.27216   0.79691   0.00000  Uiso   1.00
C883   C     0.90795   0.20505   0.83719   0.00000  Uiso   1.00
C884   C     0.90899   0.29269   0.84809   0.00000  Uiso   1.00
C885   C     0.59648   0.22406   0.87209   0.00000  Uiso   1.00
C886   C     0.61733   0.24939   0.83459   0.00000  Uiso   1.00
C887   C     0.88446   0.24937   0.84010   0.00000  Uiso   1.00
C888   C     0.52571   0.24934   0.83785   0.00000  Uiso   1.00
C889   C     0.97735   0.24892   0.83988   0.00000  Uiso   1.00
C890   C     0.52049   0.33637   0.75074   0.00000  Uiso   1.00
C891   C     0.76295   0.10464   0.87445   0.00000  Uiso   1.00
C892   C     0.98372   0.34949   0.71371   0.00000  Uiso   1.00
C893   C     0.93806   0.33899   0.73292   0.00000  Uiso   1.00
C894   C     0.97839   0.14540   0.78490   0.00000  Uiso   1.00
C895   C     0.98961   0.09167   0.78646   0.00000  Uiso   1.00
C896   C     0.99048   0.06949   0.73545   0.00000  Uiso   1.00
C897   C     0.99615   0.33838   0.90400   0.00000  Uiso   1.00
C898   C     0.54164   0.36208   0.90176   0.00000  Uiso   1.00
C899   C     0.56332   0.36761   0.95248   0.00000  Uiso   1.00
C900   C     0.53642   0.21411   0.95748   0.00000  Uiso   1.00
C901   C     0.54225   0.16980   0.99075   0.00000  Uiso   1.00
C902   C     0.72346   0.39504   0.80087   0.00000  Uiso   1.00
C903   C     0.57249   0.18012   0.70167   0.00000  Uiso   1.00
C904   C     0.73683   0.10454   0.79232   0.00000  Uiso   1.00
C905   C     0.77556   0.39536   0.86659   0.00000  Uiso   1.00
C906   C     0.76253   0.05395   0.87551   0.00000  Uiso   1.00
C907   C     0.72246   0.44574   0.80064   0.00000  Uiso   1.00
C908   C     0.73695   0.05385   0.79145   0.00000  Uiso   1.00
Cu909  Cu    0.75000   0.29822   0.83333   0.00000  Uiso   1.00
Cu910  Cu    0.75000   0.20179   0.83333   0.00000  Uiso   1.00
H911   H     0.77362   0.12400   0.90699   0.00000  Uiso   1.00
H912   H     0.51618   0.35673   0.78509   0.00000  Uiso   1.00
H913   H     0.98604   0.38854   0.70480   0.00000  Uiso   1.00
H914   H     0.98805   0.32863   0.67955   0.00000  Uiso   1.00
H915   H     0.93450   0.30011   0.74192   0.00000  Uiso   1.00
H916   H     0.91273   0.34844   0.70445   0.00000  Uiso   1.00
H917   H     0.93241   0.36111   0.76589   0.00000  Uiso   1.00
H918   H     0.50442   0.16539   0.76572   0.00000  Uiso   1.00
H919   H     0.94656   0.15002   0.76406   0.00000  Uiso   1.00
H920   H     0.52227   0.08666   0.80513   0.00000  Uiso   1.00
H921   H     0.96451   0.07230   0.80797   0.00000  Uiso   1.00
H922   H     0.70253   0.37514   0.77526   0.00000  Uiso   1.00
H923   H     0.95908   0.07650   0.71488   0.00000  Uiso   1.00
H924   H     0.99495   0.02988   0.73870   0.00000  Uiso   1.00
H925   H     0.51837   0.08440   0.71492   0.00000  Uiso   1.00
H926   H     0.99963   0.30308   0.92305   0.00000  Uiso   1.00
H927   H     0.97433   0.36143   0.92590   0.00000  Uiso   1.00
H928   H     0.56324   0.33973   0.87894   0.00000  Uiso   1.00
H929   H     0.53849   0.39823   0.88439   0.00000  Uiso   1.00
H930   H     0.54387   0.39246   0.97505   0.00000  Uiso   1.00
H931   H     0.59691   0.38296   0.94902   0.00000  Uiso   1.00
H932   H     0.56607   0.33201   0.97098   0.00000  Uiso   1.00
H933   H     0.72622   0.12383   0.75973   0.00000  Uiso   1.00
H934   H     0.50716   0.23425   0.96953   0.00000  Uiso   1.00
H935   H     0.56508   0.23922   0.96180   0.00000  Uiso   1.00
H936   H     0.50943   0.15799   0.66993   0.00000  Uiso   1.00
H937   H     0.55644   0.13939   0.97008   0.00000  Uiso   1.00
H938   H     0.55858   0.20960   0.72334   0.00000  Uiso   1.00
H939   H     0.60587   0.19066   0.68998   0.00000  Uiso   1.00
H940   H     0.57554   0.14746   0.72502   0.00000  Uiso   1.00
H941   H     0.79549   0.37573   0.89317   0.00000  Uiso   1.00
H942   H     0.77178   0.03622   0.90949   0.00000  Uiso   1.00
H943   H     0.69999   0.46343   0.77510   0.00000  Uiso   1.00
H944   H     0.72756   0.03600   0.75757   0.00000  Uiso   1.00
H945   H     0.79860   0.46388   0.89271   0.00000  Uiso   1.00
H946   H     0.55160   0.34903   0.73503   0.00000  Uiso   1.00
N947   N     0.75000   0.12935   0.83333   0.00000  Uiso   1.00
N948   N     0.75000   0.37065   0.83333   0.00000  Uiso   1.00
O949   O     0.68573   0.29071   0.83334   0.00000  Uiso   1.00
O950   O     0.97658   0.16222   0.83351   0.00000  Uiso   1.00
O951   O     0.97803   0.33480   0.85590   0.00000  Uiso   1.00
O952   O     0.52841   0.19789   0.90894   0.00000  Uiso   1.00
O953   O     0.81427   0.20929   0.83333   0.00000  Uiso   1.00
O954   O     0.81427   0.29072   0.83333   0.00000  Uiso   1.00
O955   O     0.68573   0.20929   0.83334   0.00000  Uiso   1.00
O956   O     0.75000   0.29071   0.76280   0.00000  Uiso   1.00
O957   O     0.75000   0.20929   0.90387   0.00000  Uiso   1.00
O958   O     0.75000   0.29071   0.90387   0.00000  Uiso   1.00
O959   O     0.75000   0.20929   0.76280   0.00000  Uiso   1.00
O960   O     0.52075   0.28577   0.75775   0.00000  Uiso   1.00
Br961  Br    0.12257   0.79380   0.73922   0.00000  Uiso   1.00
Br962  Br    0.38083   0.64162   0.84020   0.00000  Uiso   1.00
Br963  Br    0.38313   0.85480   0.86019   0.00000  Uiso   1.00
Br964  Br    0.13072   0.68414   0.91703   0.00000  Uiso   1.00
C965   C     0.16519   0.74983   0.83340   0.00000  Uiso   1.00
C966   C     0.27647   0.94603   0.86681   0.00000  Uiso   1.00
C967   C     0.24986   0.75002   0.74015   0.00000  Uiso   1.00
C968   C     0.25001   0.74998   0.92651   0.00000  Uiso   1.00
C969   C     0.24967   0.52725   0.83353   0.00000  Uiso   1.00
C970   C     0.24958   0.97254   0.83360   0.00000  Uiso   1.00
C971   C     0.24984   0.75002   0.68848   0.00000  Uiso   1.00
C972   C     0.24989   0.74996   0.97818   0.00000  Uiso   1.00
C973   C     0.04635   0.77277   0.79859   0.00000  Uiso   1.00
C974   C     0.45397   0.70541   0.83461   0.00000  Uiso   1.00
C975   C     0.45501   0.79191   0.84953   0.00000  Uiso   1.00
C976   C     0.33544   0.74996   0.83576   0.00000  Uiso   1.00
C977   C     0.05045   0.72566   0.87500   0.00000  Uiso   1.00
C978   C     0.09266   0.77216   0.79691   0.00000  Uiso   1.00
C979   C     0.40795   0.70505   0.83719   0.00000  Uiso   1.00
C980   C     0.40899   0.79269   0.84809   0.00000  Uiso   1.00
C981   C     0.09648   0.72406   0.87209   0.00000  Uiso   1.00
C982   C     0.11733   0.74939   0.83459   0.00000  Uiso   1.00
C983   C     0.38446   0.74937   0.84010   0.00000  Uiso   1.00
C984   C     0.02571   0.74934   0.83785   0.00000  Uiso   1.00
C985   C     0.47735   0.74892   0.83988   0.00000  Uiso   1.00
C986   C     0.02049   0.83637   0.75074   0.00000  Uiso   1.00
C987   C     0.26295   0.60464   0.87445   0.00000  Uiso   1.00
C988   C     0.48372   0.84949   0.71371   0.00000  Uiso   1.00
C989   C     0.43806   0.83899   0.73292   0.00000  Uiso   1.00
C990   C     0.47839   0.64540   0.78490   0.00000  Uiso   1.00
C991   C     0.48961   0.59167   0.78646   0.00000  Uiso   1.00
C992   C     0.49048   0.56949   0.73545   0.00000  Uiso   1.00
C993   C     0.49615   0.83838   0.90400   0.00000  Uiso   1.00
C994   C     0.04164   0.86208   0.90176   0.00000  Uiso   1.00
C995   C     0.06332   0.86761   0.95248   0.00000  Uiso   1.00
C996   C     0.03642   0.71411   0.95748   0.00000  Uiso   1.00
C997   C     0.04225   0.66980   0.99075   0.00000  Uiso   1.00
C998   C     0.22346   0.89504   0.80087   0.00000  Uiso   1.00
C999   C     0.07249   0.68012   0.70167   0.00000  Uiso   1.00
C1000  C     0.23683   0.60454   0.79232   0.00000  Uiso   1.00
C1001  C     0.27556   0.89536   0.86659   0.00000  Uiso   1.00
C1002  C     0.26253   0.55395   0.87551   0.00000  Uiso   1.00
C1003  C     0.22246   0.94574   0.80064   0.00000  Uiso   1.00
C1004  C     0.23695   0.55385   0.79145   0.00000  Uiso   1.00
Cu1005 Cu    0.25000   0.79822   0.83333   0.00000  Uiso   1.00
Cu1006 Cu    0.25000   0.70179   0.83333   0.00000  Uiso   1.00
H1007  H     0.27362   0.62400   0.90699   0.00000  Uiso   1.00
H1008  H     0.01618   0.85673   0.78509   0.00000  Uiso   1.00
H1009  H     0.48604   0.88854   0.70480   0.00000  Uiso   1.00
H1010  H     0.48805   0.82863   0.67955   0.00000  Uiso   1.00
H1011  H     0.43450   0.80011   0.74192   0.00000  Uiso   1.00
H1012  H     0.41273   0.84844   0.70445   0.00000  Uiso   1.00
H1013  H     0.43241   0.86111   0.76589   0.00000  Uiso   1.00
H1014  H     0.00442   0.66539   0.76572   0.00000  Uiso   1.00
H1015  H     0.44656   0.65002   0.76406   0.00000  Uiso   1.00
H1016  H     0.02227   0.58666   0.80513   0.00000  Uiso   1.00
H1017  H     0.46451   0.57230   0.80797   0.00000  Uiso   1.00
H1018  H     0.20253   0.87514   0.77526   0.00000  Uiso   1.00
H1019  H     0.45908   0.57650   0.71488   0.00000  Uiso   1.00
H1020  H     0.49495   0.52988   0.73870   0.00000  Uiso   1.00
H1021  H     0.01837   0.58440   0.71492   0.00000  Uiso   1.00
H1022  H     0.49963   0.80308   0.92305   0.00000  Uiso   1.00
H1023  H     0.47433   0.86143   0.92590   0.00000  Uiso   1.00
H1024  H     0.06324   0.83973   0.87894   0.00000  Uiso   1.00
H1025  H     0.03849   0.89823   0.88439   0.00000  Uiso   1.00
H1026  H     0.04387   0.89246   0.97505   0.00000  Uiso   1.00
H1027  H     0.09691   0.88296   0.94902   0.00000  Uiso   1.00
H1028  H     0.06607   0.83201   0.97098   0.00000  Uiso   1.00
H1029  H     0.22622   0.62383   0.75973   0.00000  Uiso   1.00
H1030  H     0.00716   0.73425   0.96953   0.00000  Uiso   1.00
H1031  H     0.06508   0.73922   0.96180   0.00000  Uiso   1.00
H1032  H     0.00943   0.65799   0.66993   0.00000  Uiso   1.00
H1033  H     0.05644   0.63939   0.97008   0.00000  Uiso   1.00
H1034  H     0.05858   0.70960   0.72334   0.00000  Uiso   1.00
H1035  H     0.10587   0.69066   0.68998   0.00000  Uiso   1.00
H1036  H     0.07554   0.64746   0.72502   0.00000  Uiso   1.00
H1037  H     0.29549   0.87573   0.89317   0.00000  Uiso   1.00
H1038  H     0.27178   0.53622   0.90949   0.00000  Uiso   1.00
H1039  H     0.19999   0.96343   0.77510   0.00000  Uiso   1.00
H1040  H     0.22756   0.53600   0.75757   0.00000  Uiso   1.00
H1041  H     0.29860   0.96388   0.89271   0.00000  Uiso   1.00
H1042  H     0.05160   0.84903   0.73503   0.00000  Uiso   1.00
N1043  N     0.25000   0.62935   0.83333   0.00000  Uiso   1.00
N1044  N     0.25000   0.87065   0.83333   0.00000  Uiso   1.00
O1045  O     0.18573   0.79071   0.83334   0.00000  Uiso   1.00
O1046  O     0.47658   0.66222   0.83351   0.00000  Uiso   1.00
O1047  O     0.47803   0.83480   0.85590   0.00000  Uiso   1.00
O1048  O     0.02841   0.69789   0.90894   0.00000  Uiso   1.00
O1049  O     0.31427   0.70929   0.83333   0.00000  Uiso   1.00
O1050  O     0.31427   0.79072   0.83333   0.00000  Uiso   1.00
O1051  O     0.18573   0.70929   0.83334   0.00000  Uiso   1.00
O1052  O     0.25000   0.79071   0.76280   0.00000  Uiso   1.00
O1053  O     0.25000   0.70929   0.90387   0.00000  Uiso   1.00
O1054  O     0.25000   0.79071   0.90387   0.00000  Uiso   1.00
O1055  O     0.25000   0.70929   0.76280   0.00000  Uiso   1.00
O1056  O     0.02075   0.78577   0.75775   0.00000  Uiso   1.00
Br1057 Br    0.62257   0.79380   0.73922   0.00000  Uiso   1.00
Br1058 Br    0.88083   0.64162   0.84020   0.00000  Uiso   1.00
Br1059 Br    0.88313   0.85480   0.86019   0.00000  Uiso   1.00
Br1060 Br    0.63072   0.68414   0.91703   0.00000  Uiso   1.00
C1061  C     0.66519   0.74983   0.83340   0.00000  Uiso   1.00
C1062  C     0.77647   0.94603   0.86681   0.00000  Uiso   1.00
C1063  C     0.74986   0.75002   0.74015   0.00000  Uiso   1.00
C1064  C     0.75001   0.74998   0.92651   0.00000  Uiso   1.00
C1065  C     0.74967   0.52725   0.83353   0.00000  Uiso   1.00
C1066  C     0.74958   0.97254   0.83360   0.00000  Uiso   1.00
C1067  C     0.74984   0.75002   0.68848   0.00000  Uiso   1.00
C1068  C     0.74989   0.74996   0.97818   0.00000  Uiso   1.00
C1069  C     0.54635   0.77277   0.79859   0.00000  Uiso   1.00
C1070  C     0.95397   0.70541   0.83461   0.00000  Uiso   1.00
C1071  C     0.95501   0.79191   0.84953   0.00000  Uiso   1.00
C1072  C     0.83544   0.74996   0.83576   0.00000  Uiso   1.00
C1073  C     0.55045   0.72566   0.87500   0.00000  Uiso   1.00
C1074  C     0.59266   0.77216   0.79691   0.00000  Uiso   1.00
C1075  C     0.90795   0.70505   0.83719   0.00000  Uiso   1.00
C1076  C     0.90899   0.79269   0.84809   0.00000  Uiso   1.00
C1077  C     0.59648   0.72406   0.87209   0.00000  Uiso   1.00
C1078  C     0.61733   0.74939   0.83459   0.00000  Uiso   1.00
C1079  C     0.88446   0.74937   0.84010   0.00000  Uiso   1.00
C1080  C     0.52571   0.74934   0.83785   0.00000  Uiso   1.00
C1081  C     0.97735   0.74892   0.83988   0.00000  Uiso   1.00
C1082  C     0.52049   0.83637   0.75074   0.00000  Uiso   1.00
C1083  C     0.76295   0.60464   0.87445   0.00000  Uiso   1.00
C1084  C     0.98372   0.84949   0.71371   0.00000  Uiso   1.00
C1085  C     0.93806   0.83899   0.73292   0.00000  Uiso   1.00
C1086  C     0.97839   0.64540   0.78490   0.00000  Uiso   1.00
C1087  C     0.98961   0.59167   0.78646   0.00000  Uiso   1.00
C1088  C     0.99048   0.56949   0.73545   0.00000  Uiso   1.00
C1089  C     0.99615   0.83838   0.90400   0.00000  Uiso   1.00
C1090  C     0.54164   0.86208   0.90176   0.00000  Uiso   1.00
C1091  C     0.56332   0.86761   0.95248   0.00000  Uiso   1.00
C1092  C     0.53642   0.71411   0.95748   0.00000  Uiso   1.00
C1093  C     0.54225   0.66980   0.99075   0.00000  Uiso   1.00
C1094  C     0.72346   0.89504   0.80087   0.00000  Uiso   1.00
C1095  C     0.57249   0.68012   0.70167   0.00000  Uiso   1.00
C1096  C     0.73683   0.60454   0.79232   0.00000  Uiso   1.00
C1097  C     0.77556   0.89536   0.86659   0.00000  Uiso   1.00
C1098  C     0.76253   0.55395   0.87551   0.00000  Uiso   1.00
C1099  C     0.72246   0.94574   0.80064   0.00000  Uiso   1.00
C1100  C     0.73695   0.55385   0.79145   0.00000  Uiso   1.00
Cu1101 Cu    0.75000   0.79822   0.83333   0.00000  Uiso   1.00
Cu1102 Cu    0.75000   0.70179   0.83333   0.00000  Uiso   1.00
H1103  H     0.77362   0.62400   0.90699   0.00000  Uiso   1.00
H1104  H     0.51618   0.85673   0.78509   0.00000  Uiso   1.00
H1105  H     0.98604   0.88854   0.70480   0.00000  Uiso   1.00
H1106  H     0.98805   0.82863   0.67955   0.00000  Uiso   1.00
H1107  H     0.93450   0.80011   0.74192   0.00000  Uiso   1.00
H1108  H     0.91273   0.84844   0.70445   0.00000  Uiso   1.00
H1109  H     0.93241   0.86111   0.76589   0.00000  Uiso   1.00
H1110  H     0.50442   0.66539   0.76572   0.00000  Uiso   1.00
H1111  H     0.94656   0.65002   0.76406   0.00000  Uiso   1.00
H1112  H     0.52227   0.58666   0.80513   0.00000  Uiso   1.00
H1113  H     0.96451   0.57230   0.80797   0.00000  Uiso   1.00
H1114  H     0.70253   0.87514   0.77526   0.00000  Uiso   1.00
H1115  H     0.95908   0.57650   0.71488   0.00000  Uiso   1.00
H1116  H     0.99495   0.52988   0.73870   0.00000  Uiso   1.00
H1117  H     0.51837   0.58440   0.71492   0.00000  Uiso   1.00
H1118  H     0.99963   0.80308   0.92305   0.00000  Uiso   1.00
H1119  H     0.97433   0.86143   0.92590   0.00000  Uiso   1.00
H1120  H     0.56324   0.83973   0.87894   0.00000  Uiso   1.00
H1121  H     0.53849   0.89823   0.88439   0.00000  Uiso   1.00
H1122  H     0.54387   0.89246   0.97505   0.00000  Uiso   1.00
H1123  H     0.59691   0.88296   0.94902   0.00000  Uiso   1.00
H1124  H     0.56607   0.83201   0.97098   0.00000  Uiso   1.00
H1125  H     0.72622   0.62383   0.75973   0.00000  Uiso   1.00
H1126  H     0.50716   0.73425   0.96953   0.00000  Uiso   1.00
H1127  H     0.56508   0.73922   0.96180   0.00000  Uiso   1.00
H1128  H     0.50943   0.65799   0.66993   0.00000  Uiso   1.00
H1129  H     0.55644   0.63939   0.97008   0.00000  Uiso   1.00
H1130  H     0.55858   0.70960   0.72334   0.00000  Uiso   1.00
H1131  H     0.60587   0.69066   0.68998   0.00000  Uiso   1.00
H1132  H     0.57554   0.64746   0.72502   0.00000  Uiso   1.00
H1133  H     0.79549   0.87573   0.89317   0.00000  Uiso   1.00
H1134  H     0.77178   0.53622   0.90949   0.00000  Uiso   1.00
H1135  H     0.69999   0.96343   0.77510   0.00000  Uiso   1.00
H1136  H     0.72756   0.53600   0.75757   0.00000  Uiso   1.00
H1137  H     0.79860   0.96388   0.89271   0.00000  Uiso   1.00
H1138  H     0.55160   0.84903   0.73503   0.00000  Uiso   1.00
N1139  N     0.75000   0.62935   0.83333   0.00000  Uiso   1.00
N1140  N     0.75000   0.87065   0.83333   0.00000  Uiso   1.00
O1141  O     0.68573   0.79071   0.83334   0.00000  Uiso   1.00
O1142  O     0.97658   0.66222   0.83351   0.00000  Uiso   1.00
O1143  O     0.97803   0.83480   0.85590   0.00000  Uiso   1.00
O1144  O     0.52841   0.69789   0.90894   0.00000  Uiso   1.00
O1145  O     0.81427   0.70929   0.83333   0.00000  Uiso   1.00
O1146  O     0.81427   0.79072   0.83333   0.00000  Uiso   1.00
O1147  O     0.68573   0.70929   0.83334   0.00000  Uiso   1.00
O1148  O     0.75000   0.79071   0.76280   0.00000  Uiso   1.00
O1149  O     0.75000   0.70929   0.90387   0.00000  Uiso   1.00
O1150  O     0.75000   0.79071   0.90387   0.00000  Uiso   1.00
O1151  O     0.75000   0.70929   0.76280   0.00000  Uiso   1.00
O1152  O     0.52075   0.78577   0.75775   0.00000  Uiso   1.00
loop_
_geom_bond_atom_site_label_1
_geom_bond_atom_site_label_2
_geom_bond_distance
_geom_bond_site_symmetry_2
_ccdc_geom_bond_type
Br1    C18     1.936   .     S
Br2    C19     1.941   .     S
Br3    C20     1.929   .     S
Br4    C21     1.936   .     S
C5     O85     1.291   .     A
C5     C22     1.455   .     S
C5     O91     1.289   .     A
C6     C41     1.405   .     A
C6     H81     1.081   .     S
C6     C10     1.412   .     A
C7     C11     1.412   .     S
C7     O95     1.287   .     A
C7     O92     1.287   .     A
C8     O94     1.287   .     A
C8     O93     1.287   .     A
C8     C12     1.412   .     S
C9     C42     1.411   .     A
C9     C44     1.411   .     A
C9     C202    1.516   1_545 S
C10    C43     1.412   .     A
C10    C201    1.516   .     S
C11    C780    1.192   1_554 S
C12    C395    1.192   .     S
C13    C18     1.409   .     A
C13    O96     1.390   .     S
C13    C24     1.414   .     A
C14    O86     1.384   .     S
C14    C19     1.402   .     A
C14    C25     1.402   .     A
C15    C25     1.403   .     A
C15    C20     1.398   .     A
C15    O87     1.385   .     S
C16    O90     1.304   .     A
C16    O89     1.296   .     A
C16    C23     1.491   .     S
C17    O88     1.389   .     S
C17    C24     1.409   .     A
C17    C21     1.404   .     A
C18    C22     1.407   .     A
C19    C23     1.427   .     A
C20    C23     1.424   .     A
C21    C22     1.406   .     A
C24    C121    1.472   1_455 S
C25    C120    1.472   .     S
C26    H48     1.108   .     S
C26    H82     1.105   .     S
C26    O96     1.415   .     S
C26    C124    1.530   1_455 S
C27    H47     1.080   .     S
C27    N83     1.364   .     A
C27    C42     1.405   .     A
C28    H50     1.110   .     S
C28    H49     1.111   .     S
C28    C29     1.524   .     S
C28    C122    1.530   .     S
C29    H51     1.111   .     S
C29    H53     1.109   .     S
C29    H52     1.110   .     S
C30    C31     1.530   .     S
C30    O86     1.411   .     S
C30    H55     1.116   .     S
C30    H150    1.107   .     S
C31    C32     1.526   .     S
C31    H57     1.112   .     S
C31    H152    1.112   .     S
C32    H60     1.110   .     S
C32    H59     1.111   .     S
C32    H157    1.108   .     S
C33    H62     1.112   .     S
C33    H63     1.111   .     S
C33    O87     1.414   .     S
C33    C130    1.530   .     S
C34    C35     1.525   .     S
C34    H65     1.112   .     S
C34    H64     1.110   .     S
C34    C129    1.530   1_455 S
C35    H66     1.110   .     S
C35    H67     1.110   .     S
C35    H68     1.111   .     S
C36    O88     1.415   .     S
C36    C37     1.535   .     S
C36    H71     1.116   .     S
C36    H70     1.110   .     S
C37    H73     1.112   .     S
C37    C423    1.524   .     S
C37    H456    1.111   .     S
C38    H58     1.082   .     S
C38    N84     1.363   .     A
C38    C43     1.406   .     A
C39    H74     1.103   .     S
C39    H75     1.110   .     S
C39    H76     1.110   .     S
C39    C805    1.524   1_554 S
C40    N83     1.365   .     A
C40    H69     1.080   .     S
C40    C44     1.406   .     A
C41    H77     1.080   .     S
C41    N84     1.361   .     A
C42    H78     1.081   .     S
C43    H79     1.081   .     S
C44    H80     1.081   .     S
Cu45   O85     1.963   .     S
Cu45   Cu46    2.673   .     S
Cu45   O92     1.939   .     S
Cu45   O94     1.939   .     S
Cu45   O90     1.965   .     S
Cu45   N84     2.008   .     S
Cu46   O89     1.963   .     S
Cu46   O95     1.939   .     S
Cu46   O91     1.965   .     S
Cu46   O93     1.939   .     S
Cu46   N83     2.008   .     S
H54    C126    1.107   1_455 S
H56    C127    1.112   1_455 S
H61    C128    1.108   1_455 S
H72    C805    1.111   1_554 S
Br97   C114    1.936   .     S
Br98   C115    1.941   .     S
Br99   C116    1.929   .     S
Br100  C117    1.936   .     S
C101   O181    1.291   .     A
C101   C118    1.455   .     S
C101   O187    1.289   .     A
C102   C137    1.405   .     A
C102   H177    1.081   .     S
C102   C106    1.412   .     A
C103   C107    1.412   .     S
C103   O191    1.287   .     A
C103   O188    1.287   .     A
C104   O190    1.287   .     A
C104   O189    1.287   .     A
C104   C108    1.412   .     S
C105   C138    1.411   .     A
C105   C140    1.411   .     A
C105   C298    1.516   1_545 S
C106   C139    1.412   .     A
C106   C297    1.516   .     S
C107   C876    1.192   1_554 S
C108   C491    1.192   .     S
C109   C114    1.409   .     A
C109   O192    1.390   .     S
C109   C120    1.414   .     A
C110   O182    1.384   .     S
C110   C115    1.402   .     A
C110   C121    1.402   .     A
C111   C121    1.403   .     A
C111   C116    1.398   .     A
C111   O183    1.385   .     S
C112   O186    1.304   .     A
C112   O185    1.296   .     A
C112   C119    1.491   .     S
C113   O184    1.389   .     S
C113   C120    1.409   .     A
C113   C117    1.404   .     A
C114   C118    1.407   .     A
C115   C119    1.427   .     A
C116   C119    1.424   .     A
C117   C118    1.406   .     A
C121   C24     1.472   1_655 S
C122   H144    1.108   .     S
C122   H178    1.105   .     S
C122   O192    1.415   .     S
C123   H143    1.080   .     S
C123   N179    1.364   .     A
C123   C138    1.405   .     A
C124   H146    1.110   .     S
C124   H145    1.111   .     S
C124   C125    1.524   .     S
C124   C26     1.530   1_655 S
C125   H147    1.111   .     S
C125   H149    1.109   .     S
C125   H148    1.110   .     S
C126   C127    1.530   .     S
C126   O182    1.411   .     S
C126   H151    1.116   .     S
C126   H54     1.107   1_655 S
C127   C128    1.526   .     S
C127   H153    1.112   .     S
C127   H56     1.112   1_655 S
C128   H156    1.110   .     S
C128   H155    1.111   .     S
C128   H61     1.108   1_655 S
C129   H158    1.112   .     S
C129   H159    1.111   .     S
C129   O183    1.414   .     S
C129   C34     1.530   1_655 S
C130   C131    1.525   .     S
C130   H161    1.112   .     S
C130   H160    1.110   .     S
C131   H162    1.110   .     S
C131   H163    1.110   .     S
C131   H164    1.111   .     S
C132   O184    1.415   .     S
C132   C133    1.535   .     S
C132   H167    1.116   .     S
C132   H166    1.110   .     S
C133   H169    1.112   .     S
C133   C519    1.524   .     S
C133   H552    1.111   .     S
C134   H154    1.082   .     S
C134   N180    1.363   .     A
C134   C139    1.406   .     A
C135   H170    1.103   .     S
C135   H171    1.110   .     S
C135   H172    1.110   .     S
C135   C901    1.524   1_554 S
C136   N179    1.365   .     A
C136   H165    1.080   .     S
C136   C140    1.406   .     A
C137   H173    1.080   .     S
C137   N180    1.361   .     A
C138   H174    1.081   .     S
C139   H175    1.081   .     S
C140   H176    1.081   .     S
Cu141  O181    1.963   .     S
Cu141  Cu142   2.673   .     S
Cu141  O188    1.939   .     S
Cu141  O190    1.939   .     S
Cu141  O186    1.965   .     S
Cu141  N180    2.008   .     S
Cu142  O185    1.963   .     S
Cu142  O191    1.939   .     S
Cu142  O187    1.965   .     S
Cu142  O189    1.939   .     S
Cu142  N179    2.008   .     S
H168   C901    1.111   1_554 S
Br193  C210    1.936   .     S
Br194  C211    1.941   .     S
Br195  C212    1.929   .     S
Br196  C213    1.936   .     S
C197   O277    1.291   .     A
C197   C214    1.455   .     S
C197   O283    1.289   .     A
C198   C233    1.405   .     A
C198   H273    1.081   .     S
C198   C202    1.412   .     A
C199   C203    1.412   .     S
C199   O287    1.287   .     A
C199   O284    1.287   .     A
C200   O286    1.287   .     A
C200   O285    1.287   .     A
C200   C204    1.412   .     S
C201   C234    1.411   .     A
C201   C236    1.411   .     A
C202   C235    1.412   .     A
C202   C9      1.516   1_565 S
C203   C972    1.192   1_554 S
C204   C587    1.192   .     S
C205   C210    1.409   .     A
C205   O288    1.390   .     S
C205   C216    1.414   .     A
C206   O278    1.384   .     S
C206   C211    1.402   .     A
C206   C217    1.402   .     A
C207   C217    1.403   .     A
C207   C212    1.398   .     A
C207   O279    1.385   .     S
C208   O282    1.304   .     A
C208   O281    1.296   .     A
C208   C215    1.491   .     S
C209   O280    1.389   .     S
C209   C216    1.409   .     A
C209   C213    1.404   .     A
C210   C214    1.407   .     A
C211   C215    1.427   .     A
C212   C215    1.424   .     A
C213   C214    1.406   .     A
C216   C313    1.472   1_455 S
C217   C312    1.472   .     S
C218   H240    1.108   .     S
C218   H274    1.105   .     S
C218   O288    1.415   .     S
C218   C316    1.530   1_455 S
C219   H239    1.080   .     S
C219   N275    1.364   .     A
C219   C234    1.405   .     A
C220   H242    1.110   .     S
C220   H241    1.111   .     S
C220   C221    1.524   .     S
C220   C314    1.530   .     S
C221   H243    1.111   .     S
C221   H245    1.109   .     S
C221   H244    1.110   .     S
C222   C223    1.530   .     S
C222   O278    1.411   .     S
C222   H247    1.116   .     S
C222   H342    1.107   .     S
C223   C224    1.526   .     S
C223   H249    1.112   .     S
C223   H344    1.112   .     S
C224   H252    1.110   .     S
C224   H251    1.111   .     S
C224   H349    1.108   .     S
C225   H254    1.112   .     S
C225   H255    1.111   .     S
C225   O279    1.414   .     S
C225   C322    1.530   .     S
C226   C227    1.525   .     S
C226   H257    1.112   .     S
C226   H256    1.110   .     S
C226   C321    1.530   1_455 S
C227   H258    1.110   .     S
C227   H259    1.110   .     S
C227   H260    1.111   .     S
C228   O280    1.415   .     S
C228   C229    1.535   .     S
C228   H263    1.116   .     S
C228   H262    1.110   .     S
C229   H265    1.112   .     S
C229   C615    1.524   .     S
C229   H648    1.111   .     S
C230   H250    1.082   .     S
C230   N276    1.363   .     A
C230   C235    1.406   .     A
C231   H266    1.103   .     S
C231   H267    1.110   .     S
C231   H268    1.110   .     S
C231   C997    1.524   1_554 S
C232   N275    1.365   .     A
C232   H261    1.080   .     S
C232   C236    1.406   .     A
C233   H269    1.080   .     S
C233   N276    1.361   .     A
C234   H270    1.081   .     S
C235   H271    1.081   .     S
C236   H272    1.081   .     S
Cu237  O277    1.963   .     S
Cu237  Cu238   2.673   .     S
Cu237  O284    1.939   .     S
Cu237  O286    1.939   .     S
Cu237  O282    1.965   .     S
Cu237  N276    2.008   .     S
Cu238  O281    1.963   .     S
Cu238  O287    1.939   .     S
Cu238  O283    1.965   .     S
Cu238  O285    1.939   .     S
Cu238  N275    2.008   .     S
H246   C318    1.107   1_455 S
H248   C319    1.112   1_455 S
H253   C320    1.108   1_455 S
H264   C997    1.111   1_554 S
Br289  C306    1.936   .     S
Br290  C307    1.941   .     S
Br291  C308    1.929   .     S
Br292  C309    1.936   .     S
C293   O373    1.291   .     A
C293   C310    1.455   .     S
C293   O379    1.289   .     A
C294   C329    1.405   .     A
C294   H369    1.081   .     S
C294   C298    1.412   .     A
C295   C299    1.412   .     S
C295   O383    1.287   .     A
C295   O380    1.287   .     A
C296   O382    1.287   .     A
C296   O381    1.287   .     A
C296   C300    1.412   .     S
C297   C330    1.411   .     A
C297   C332    1.411   .     A
C298   C331    1.412   .     A
C298   C105    1.516   1_565 S
C299   C1068   1.192   1_554 S
C300   C683    1.192   .     S
C301   C306    1.409   .     A
C301   O384    1.390   .     S
C301   C312    1.414   .     A
C302   O374    1.384   .     S
C302   C307    1.402   .     A
C302   C313    1.402   .     A
C303   C313    1.403   .     A
C303   C308    1.398   .     A
C303   O375    1.385   .     S
C304   O378    1.304   .     A
C304   O377    1.296   .     A
C304   C311    1.491   .     S
C305   O376    1.389   .     S
C305   C312    1.409   .     A
C305   C309    1.404   .     A
C306   C310    1.407   .     A
C307   C311    1.427   .     A
C308   C311    1.424   .     A
C309   C310    1.406   .     A
C313   C216    1.472   1_655 S
C314   H336    1.108   .     S
C314   H370    1.105   .     S
C314   O384    1.415   .     S
C315   H335    1.080   .     S
C315   N371    1.364   .     A
C315   C330    1.405   .     A
C316   H338    1.110   .     S
C316   H337    1.111   .     S
C316   C317    1.524   .     S
C316   C218    1.530   1_655 S
C317   H339    1.111   .     S
C317   H341    1.109   .     S
C317   H340    1.110   .     S
C318   C319    1.530   .     S
C318   O374    1.411   .     S
C318   H343    1.116   .     S
C318   H246    1.107   1_655 S
C319   C320    1.526   .     S
C319   H345    1.112   .     S
C319   H248    1.112   1_655 S
C320   H348    1.110   .     S
C320   H347    1.111   .     S
C320   H253    1.108   1_655 S
C321   H350    1.112   .     S
C321   H351    1.111   .     S
C321   O375    1.414   .     S
C321   C226    1.530   1_655 S
C322   C323    1.525   .     S
C322   H353    1.112   .     S
C322   H352    1.110   .     S
C323   H354    1.110   .     S
C323   H355    1.110   .     S
C323   H356    1.111   .     S
C324   O376    1.415   .     S
C324   C325    1.535   .     S
C324   H359    1.116   .     S
C324   H358    1.110   .     S
C325   H361    1.112   .     S
C325   C711    1.524   .     S
C325   H744    1.111   .     S
C326   H346    1.082   .     S
C326   N372    1.363   .     A
C326   C331    1.406   .     A
C327   H362    1.103   .     S
C327   H363    1.110   .     S
C327   H364    1.110   .     S
C327   C1093   1.524   1_554 S
C328   N371    1.365   .     A
C328   H357    1.080   .     S
C328   C332    1.406   .     A
C329   H365    1.080   .     S
C329   N372    1.361   .     A
C330   H366    1.081   .     S
C331   H367    1.081   .     S
C332   H368    1.081   .     S
Cu333  O373    1.963   .     S
Cu333  Cu334   2.673   .     S
Cu333  O380    1.939   .     S
Cu333  O382    1.939   .     S
Cu333  O378    1.965   .     S
Cu333  N372    2.008   .     S
Cu334  O377    1.963   .     S
Cu334  O383    1.939   .     S
Cu334  O379    1.965   .     S
Cu334  O381    1.939   .     S
Cu334  N371    2.008   .     S
H360   C1093   1.111   1_554 S
Br385  C402    1.936   .     S
Br386  C403    1.941   .     S
Br387  C404    1.929   .     S
Br388  C405    1.936   .     S
C389   O469    1.291   .     A
C389   C406    1.455   .     S
C389   O475    1.289   .     A
C390   C425    1.405   .     A
C390   H465    1.081   .     S
C390   C394    1.412   .     A
C391   C395    1.412   .     S
C391   O479    1.287   .     A
C391   O476    1.287   .     A
C392   O478    1.287   .     A
C392   O477    1.287   .     A
C392   C396    1.412   .     S
C393   C426    1.411   .     A
C393   C428    1.411   .     A
C393   C586    1.516   1_545 S
C394   C427    1.412   .     A
C394   C585    1.516   .     S
C396   C779    1.192   .     S
C397   C402    1.409   .     A
C397   O480    1.390   .     S
C397   C408    1.414   .     A
C398   O470    1.384   .     S
C398   C403    1.402   .     A
C398   C409    1.402   .     A
C399   C409    1.403   .     A
C399   C404    1.398   .     A
C399   O471    1.385   .     S
C400   O474    1.304   .     A
C400   O473    1.296   .     A
C400   C407    1.491   .     S
C401   O472    1.389   .     S
C401   C408    1.409   .     A
C401   C405    1.404   .     A
C402   C406    1.407   .     A
C403   C407    1.427   .     A
C404   C407    1.424   .     A
C405   C406    1.406   .     A
C408   C505    1.472   1_455 S
C409   C504    1.472   .     S
C410   H432    1.108   .     S
C410   H466    1.105   .     S
C410   O480    1.415   .     S
C410   C508    1.530   1_455 S
C411   H431    1.080   .     S
C411   N467    1.364   .     A
C411   C426    1.405   .     A
C412   H434    1.110   .     S
C412   H433    1.111   .     S
C412   C413    1.524   .     S
C412   C506    1.530   .     S
C413   H435    1.111   .     S
C413   H437    1.109   .     S
C413   H436    1.110   .     S
C414   C415    1.530   .     S
C414   O470    1.411   .     S
C414   H439    1.116   .     S
C414   H534    1.107   .     S
C415   C416    1.526   .     S
C415   H441    1.112   .     S
C415   H536    1.112   .     S
C416   H444    1.110   .     S
C416   H443    1.111   .     S
C416   H541    1.108   .     S
C417   H446    1.112   .     S
C417   H447    1.111   .     S
C417   O471    1.414   .     S
C417   C514    1.530   .     S
C418   C419    1.525   .     S
C418   H449    1.112   .     S
C418   H448    1.110   .     S
C418   C513    1.530   1_455 S
C419   H450    1.110   .     S
C419   H451    1.110   .     S
C419   H452    1.111   .     S
C420   O472    1.415   .     S
C420   C421    1.535   .     S
C420   H455    1.116   .     S
C420   H454    1.110   .     S
C421   H457    1.112   .     S
C421   C807    1.524   .     S
C421   H840    1.111   .     S
C422   H442    1.082   .     S
C422   N468    1.363   .     A
C422   C427    1.406   .     A
C423   H458    1.103   .     S
C423   H459    1.110   .     S
C423   H460    1.110   .     S
C424   N467    1.365   .     A
C424   H453    1.080   .     S
C424   C428    1.406   .     A
C425   H461    1.080   .     S
C425   N468    1.361   .     A
C426   H462    1.081   .     S
C427   H463    1.081   .     S
C428   H464    1.081   .     S
Cu429  O469    1.963   .     S
Cu429  Cu430   2.673   .     S
Cu429  O476    1.939   .     S
Cu429  O478    1.939   .     S
Cu429  O474    1.965   .     S
Cu429  N468    2.008   .     S
Cu430  O473    1.963   .     S
Cu430  O479    1.939   .     S
Cu430  O475    1.965   .     S
Cu430  O477    1.939   .     S
Cu430  N467    2.008   .     S
H438   C510    1.107   1_455 S
H440   C511    1.112   1_455 S
H445   C512    1.108   1_455 S
Br481  C498    1.936   .     S
Br482  C499    1.941   .     S
Br483  C500    1.929   .     S
Br484  C501    1.936   .     S
C485   O565    1.291   .     A
C485   C502    1.455   .     S
C485   O571    1.289   .     A
C486   C521    1.405   .     A
C486   H561    1.081   .     S
C486   C490    1.412   .     A
C487   C491    1.412   .     S
C487   O575    1.287   .     A
C487   O572    1.287   .     A
C488   O574    1.287   .     A
C488   O573    1.287   .     A
C488   C492    1.412   .     S
C489   C522    1.411   .     A
C489   C524    1.411   .     A
C489   C682    1.516   1_545 S
C490   C523    1.412   .     A
C490   C681    1.516   .     S
C492   C875    1.192   .     S
C493   C498    1.409   .     A
C493   O576    1.390   .     S
C493   C504    1.414   .     A
C494   O566    1.384   .     S
C494   C499    1.402   .     A
C494   C505    1.402   .     A
C495   C505    1.403   .     A
C495   C500    1.398   .     A
C495   O567    1.385   .     S
C496   O570    1.304   .     A
C496   O569    1.296   .     A
C496   C503    1.491   .     S
C497   O568    1.389   .     S
C497   C504    1.409   .     A
C497   C501    1.404   .     A
C498   C502    1.407   .     A
C499   C503    1.427   .     A
C500   C503    1.424   .     A
C501   C502    1.406   .     A
C505   C408    1.472   1_655 S
C506   H528    1.108   .     S
C506   H562    1.105   .     S
C506   O576    1.415   .     S
C507   H527    1.080   .     S
C507   N563    1.364   .     A
C507   C522    1.405   .     A
C508   H530    1.110   .     S
C508   H529    1.111   .     S
C508   C509    1.524   .     S
C508   C410    1.530   1_655 S
C509   H531    1.111   .     S
C509   H533    1.109   .     S
C509   H532    1.110   .     S
C510   C511    1.530   .     S
C510   O566    1.411   .     S
C510   H535    1.116   .     S
C510   H438    1.107   1_655 S
C511   C512    1.526   .     S
C511   H537    1.112   .     S
C511   H440    1.112   1_655 S
C512   H540    1.110   .     S
C512   H539    1.111   .     S
C512   H445    1.108   1_655 S
C513   H542    1.112   .     S
C513   H543    1.111   .     S
C513   O567    1.414   .     S
C513   C418    1.530   1_655 S
C514   C515    1.525   .     S
C514   H545    1.112   .     S
C514   H544    1.110   .     S
C515   H546    1.110   .     S
C515   H547    1.110   .     S
C515   H548    1.111   .     S
C516   O568    1.415   .     S
C516   C517    1.535   .     S
C516   H551    1.116   .     S
C516   H550    1.110   .     S
C517   H553    1.112   .     S
C517   C903    1.524   .     S
C517   H936    1.111   .     S
C518   H538    1.082   .     S
C518   N564    1.363   .     A
C518   C523    1.406   .     A
C519   H554    1.103   .     S
C519   H555    1.110   .     S
C519   H556    1.110   .     S
C520   N563    1.365   .     A
C520   H549    1.080   .     S
C520   C524    1.406   .     A
C521   H557    1.080   .     S
C521   N564    1.361   .     A
C522   H558    1.081   .     S
C523   H559    1.081   .     S
C524   H560    1.081   .     S
Cu525  O565    1.963   .     S
Cu525  Cu526   2.673   .     S
Cu525  O572    1.939   .     S
Cu525  O574    1.939   .     S
Cu525  O570    1.965   .     S
Cu525  N564    2.008   .     S
Cu526  O569    1.963   .     S
Cu526  O575    1.939   .     S
Cu526  O571    1.965   .     S
Cu526  O573    1.939   .     S
Cu526  N563    2.008   .     S
Br577  C594    1.936   .     S
Br578  C595    1.941   .     S
Br579  C596    1.929   .     S
Br580  C597    1.936   .     S
C581   O661    1.291   .     A
C581   C598    1.455   .     S
C581   O667    1.289   .     A
C582   C617    1.405   .     A
C582   H657    1.081   .     S
C582   C586    1.412   .     A
C583   C587    1.412   .     S
C583   O671    1.287   .     A
C583   O668    1.287   .     A
C584   O670    1.287   .     A
C584   O669    1.287   .     A
C584   C588    1.412   .     S
C585   C618    1.411   .     A
C585   C620    1.411   .     A
C586   C619    1.412   .     A
C586   C393    1.516   1_565 S
C588   C971    1.192   .     S
C589   C594    1.409   .     A
C589   O672    1.390   .     S
C589   C600    1.414   .     A
C590   O662    1.384   .     S
C590   C595    1.402   .     A
C590   C601    1.402   .     A
C591   C601    1.403   .     A
C591   C596    1.398   .     A
C591   O663    1.385   .     S
C592   O666    1.304   .     A
C592   O665    1.296   .     A
C592   C599    1.491   .     S
C593   O664    1.389   .     S
C593   C600    1.409   .     A
C593   C597    1.404   .     A
C594   C598    1.407   .     A
C595   C599    1.427   .     A
C596   C599    1.424   .     A
C597   C598    1.406   .     A
C600   C697    1.472   1_455 S
C601   C696    1.472   .     S
C602   H624    1.108   .     S
C602   H658    1.105   .     S
C602   O672    1.415   .     S
C602   C700    1.530   1_455 S
C603   H623    1.080   .     S
C603   N659    1.364   .     A
C603   C618    1.405   .     A
C604   H626    1.110   .     S
C604   H625    1.111   .     S
C604   C605    1.524   .     S
C604   C698    1.530   .     S
C605   H627    1.111   .     S
C605   H629    1.109   .     S
C605   H628    1.110   .     S
C606   C607    1.530   .     S
C606   O662    1.411   .     S
C606   H631    1.116   .     S
C606   H726    1.107   .     S
C607   C608    1.526   .     S
C607   H633    1.112   .     S
C607   H728    1.112   .     S
C608   H636    1.110   .     S
C608   H635    1.111   .     S
C608   H733    1.108   .     S
C609   H638    1.112   .     S
C609   H639    1.111   .     S
C609   O663    1.414   .     S
C609   C706    1.530   .     S
C610   C611    1.525   .     S
C610   H641    1.112   .     S
C610   H640    1.110   .     S
C610   C705    1.530   1_455 S
C611   H642    1.110   .     S
C611   H643    1.110   .     S
C611   H644    1.111   .     S
C612   O664    1.415   .     S
C612   C613    1.535   .     S
C612   H647    1.116   .     S
C612   H646    1.110   .     S
C613   H649    1.112   .     S
C613   C999    1.524   .     S
C613   H1032   1.111   .     S
C614   H634    1.082   .     S
C614   N660    1.363   .     A
C614   C619    1.406   .     A
C615   H650    1.103   .     S
C615   H651    1.110   .     S
C615   H652    1.110   .     S
C616   N659    1.365   .     A
C616   H645    1.080   .     S
C616   C620    1.406   .     A
C617   H653    1.080   .     S
C617   N660    1.361   .     A
C618   H654    1.081   .     S
C619   H655    1.081   .     S
C620   H656    1.081   .     S
Cu621  O661    1.963   .     S
Cu621  Cu622   2.673   .     S
Cu621  O668    1.939   .     S
Cu621  O670    1.939   .     S
Cu621  O666    1.965   .     S
Cu621  N660    2.008   .     S
Cu622  O665    1.963   .     S
Cu622  O671    1.939   .     S
Cu622  O667    1.965   .     S
Cu622  O669    1.939   .     S
Cu622  N659    2.008   .     S
H630   C702    1.107   1_455 S
H632   C703    1.112   1_455 S
H637   C704    1.108   1_455 S
Br673  C690    1.936   .     S
Br674  C691    1.941   .     S
Br675  C692    1.929   .     S
Br676  C693    1.936   .     S
C677   O757    1.291   .     A
C677   C694    1.455   .     S
C677   O763    1.289   .     A
C678   C713    1.405   .     A
C678   H753    1.081   .     S
C678   C682    1.412   .     A
C679   C683    1.412   .     S
C679   O767    1.287   .     A
C679   O764    1.287   .     A
C680   O766    1.287   .     A
C680   O765    1.287   .     A
C680   C684    1.412   .     S
C681   C714    1.411   .     A
C681   C716    1.411   .     A
C682   C715    1.412   .     A
C682   C489    1.516   1_565 S
C684   C1067   1.192   .     S
C685   C690    1.409   .     A
C685   O768    1.390   .     S
C685   C696    1.414   .     A
C686   O758    1.384   .     S
C686   C691    1.402   .     A
C686   C697    1.402   .     A
C687   C697    1.403   .     A
C687   C692    1.398   .     A
C687   O759    1.385   .     S
C688   O762    1.304   .     A
C688   O761    1.296   .     A
C688   C695    1.491   .     S
C689   O760    1.389   .     S
C689   C696    1.409   .     A
C689   C693    1.404   .     A
C690   C694    1.407   .     A
C691   C695    1.427   .     A
C692   C695    1.424   .     A
C693   C694    1.406   .     A
C697   C600    1.472   1_655 S
C698   H720    1.108   .     S
C698   H754    1.105   .     S
C698   O768    1.415   .     S
C699   H719    1.080   .     S
C699   N755    1.364   .     A
C699   C714    1.405   .     A
C700   H722    1.110   .     S
C700   H721    1.111   .     S
C700   C701    1.524   .     S
C700   C602    1.530   1_655 S
C701   H723    1.111   .     S
C701   H725    1.109   .     S
C701   H724    1.110   .     S
C702   C703    1.530   .     S
C702   O758    1.411   .     S
C702   H727    1.116   .     S
C702   H630    1.107   1_655 S
C703   C704    1.526   .     S
C703   H729    1.112   .     S
C703   H632    1.112   1_655 S
C704   H732    1.110   .     S
C704   H731    1.111   .     S
C704   H637    1.108   1_655 S
C705   H734    1.112   .     S
C705   H735    1.111   .     S
C705   O759    1.414   .     S
C705   C610    1.530   1_655 S
C706   C707    1.525   .     S
C706   H737    1.112   .     S
C706   H736    1.110   .     S
C707   H738    1.110   .     S
C707   H739    1.110   .     S
C707   H740    1.111   .     S
C708   O760    1.415   .     S
C708   C709    1.535   .     S
C708   H743    1.116   .     S
C708   H742    1.110   .     S
C709   H745    1.112   .     S
C709   C1095   1.524   .     S
C709   H1128   1.111   .     S
C710   H730    1.082   .     S
C710   N756    1.363   .     A
C710   C715    1.406   .     A
C711   H746    1.103   .     S
C711   H747    1.110   .     S
C711   H748    1.110   .     S
C712   N755    1.365   .     A
C712   H741    1.080   .     S
C712   C716    1.406   .     A
C713   H749    1.080   .     S
C713   N756    1.361   .     A
C714   H750    1.081   .     S
C715   H751    1.081   .     S
C716   H752    1.081   .     S
Cu717  O757    1.963   .     S
Cu717  Cu718   2.673   .     S
Cu717  O764    1.939   .     S
Cu717  O766    1.939   .     S
Cu717  O762    1.965   .     S
Cu717  N756    2.008   .     S
Cu718  O761    1.963   .     S
Cu718  O767    1.939   .     S
Cu718  O763    1.965   .     S
Cu718  O765    1.939   .     S
Cu718  N755    2.008   .     S
Br769  C786    1.936   .     S
Br770  C787    1.941   .     S
Br771  C788    1.929   .     S
Br772  C789    1.936   .     S
C773   O853    1.291   .     A
C773   C790    1.455   .     S
C773   O859    1.289   .     A
C774   C809    1.405   .     A
C774   H849    1.081   .     S
C774   C778    1.412   .     A
C775   C779    1.412   .     S
C775   O863    1.287   .     A
C775   O860    1.287   .     A
C776   O862    1.287   .     A
C776   O861    1.287   .     A
C776   C780    1.412   .     S
C777   C810    1.411   .     A
C777   C812    1.411   .     A
C777   C970    1.516   1_545 S
C778   C811    1.412   .     A
C778   C969    1.516   .     S
C780   C11     1.192   1_556 S
C781   C786    1.409   .     A
C781   O864    1.390   .     S
C781   C792    1.414   .     A
C782   O854    1.384   .     S
C782   C787    1.402   .     A
C782   C793    1.402   .     A
C783   C793    1.403   .     A
C783   C788    1.398   .     A
C783   O855    1.385   .     S
C784   O858    1.304   .     A
C784   O857    1.296   .     A
C784   C791    1.491   .     S
C785   O856    1.389   .     S
C785   C792    1.409   .     A
C785   C789    1.404   .     A
C786   C790    1.407   .     A
C787   C791    1.427   .     A
C788   C791    1.424   .     A
C789   C790    1.406   .     A
C792   C889    1.472   1_455 S
C793   C888    1.472   .     S
C794   H816    1.108   .     S
C794   H850    1.105   .     S
C794   O864    1.415   .     S
C794   C892    1.530   1_455 S
C795   H815    1.080   .     S
C795   N851    1.364   .     A
C795   C810    1.405   .     A
C796   H818    1.110   .     S
C796   H817    1.111   .     S
C796   C797    1.524   .     S
C796   C890    1.530   .     S
C797   H819    1.111   .     S
C797   H821    1.109   .     S
C797   H820    1.110   .     S
C798   C799    1.530   .     S
C798   O854    1.411   .     S
C798   H823    1.116   .     S
C798   H918    1.107   .     S
C799   C800    1.526   .     S
C799   H825    1.112   .     S
C799   H920    1.112   .     S
C800   H828    1.110   .     S
C800   H827    1.111   .     S
C800   H925    1.108   .     S
C801   H830    1.112   .     S
C801   H831    1.111   .     S
C801   O855    1.414   .     S
C801   C898    1.530   .     S
C802   C803    1.525   .     S
C802   H833    1.112   .     S
C802   H832    1.110   .     S
C802   C897    1.530   1_455 S
C803   H834    1.110   .     S
C803   H835    1.110   .     S
C803   H836    1.111   .     S
C804   O856    1.415   .     S
C804   C805    1.535   .     S
C804   H839    1.116   .     S
C804   H838    1.110   .     S
C805   H841    1.112   .     S
C805   C39     1.524   1_556 S
C805   H72     1.111   1_556 S
C806   H826    1.082   .     S
C806   N852    1.363   .     A
C806   C811    1.406   .     A
C807   H842    1.103   .     S
C807   H843    1.110   .     S
C807   H844    1.110   .     S
C808   N851    1.365   .     A
C808   H837    1.080   .     S
C808   C812    1.406   .     A
C809   H845    1.080   .     S
C809   N852    1.361   .     A
C810   H846    1.081   .     S
C811   H847    1.081   .     S
C812   H848    1.081   .     S
Cu813  O853    1.963   .     S
Cu813  Cu814   2.673   .     S
Cu813  O860    1.939   .     S
Cu813  O862    1.939   .     S
Cu813  O858    1.965   .     S
Cu813  N852    2.008   .     S
Cu814  O857    1.963   .     S
Cu814  O863    1.939   .     S
Cu814  O859    1.965   .     S
Cu814  O861    1.939   .     S
Cu814  N851    2.008   .     S
H822   C894    1.107   1_455 S
H824   C895    1.112   1_455 S
H829   C896    1.108   1_455 S
Br865  C882    1.936   .     S
Br866  C883    1.941   .     S
Br867  C884    1.929   .     S
Br868  C885    1.936   .     S
C869   O949    1.291   .     A
C869   C886    1.455   .     S
C869   O955    1.289   .     A
C870   C905    1.405   .     A
C870   H945    1.081   .     S
C870   C874    1.412   .     A
C871   C875    1.412   .     S
C871   O959    1.287   .     A
C871   O956    1.287   .     A
C872   O958    1.287   .     A
C872   O957    1.287   .     A
C872   C876    1.412   .     S
C873   C906    1.411   .     A
C873   C908    1.411   .     A
C873   C1066   1.516   1_545 S
C874   C907    1.412   .     A
C874   C1065   1.516   .     S
C876   C107    1.192   1_556 S
C877   C882    1.409   .     A
C877   O960    1.390   .     S
C877   C888    1.414   .     A
C878   O950    1.384   .     S
C878   C883    1.402   .     A
C878   C889    1.402   .     A
C879   C889    1.403   .     A
C879   C884    1.398   .     A
C879   O951    1.385   .     S
C880   O954    1.304   .     A
C880   O953    1.296   .     A
C880   C887    1.491   .     S
C881   O952    1.389   .     S
C881   C888    1.409   .     A
C881   C885    1.404   .     A
C882   C886    1.407   .     A
C883   C887    1.427   .     A
C884   C887    1.424   .     A
C885   C886    1.406   .     A
C889   C792    1.472   1_655 S
C890   H912    1.108   .     S
C890   H946    1.105   .     S
C890   O960    1.415   .     S
C891   H911    1.080   .     S
C891   N947    1.364   .     A
C891   C906    1.405   .     A
C892   H914    1.110   .     S
C892   H913    1.111   .     S
C892   C893    1.524   .     S
C892   C794    1.530   1_655 S
C893   H915    1.111   .     S
C893   H917    1.109   .     S
C893   H916    1.110   .     S
C894   C895    1.530   .     S
C894   O950    1.411   .     S
C894   H919    1.116   .     S
C894   H822    1.107   1_655 S
C895   C896    1.526   .     S
C895   H921    1.112   .     S
C895   H824    1.112   1_655 S
C896   H924    1.110   .     S
C896   H923    1.111   .     S
C896   H829    1.108   1_655 S
C897   H926    1.112   .     S
C897   H927    1.111   .     S
C897   O951    1.414   .     S
C897   C802    1.530   1_655 S
C898   C899    1.525   .     S
C898   H929    1.112   .     S
C898   H928    1.110   .     S
C899   H930    1.110   .     S
C899   H931    1.110   .     S
C899   H932    1.111   .     S
C900   O952    1.415   .     S
C900   C901    1.535   .     S
C900   H935    1.116   .     S
C900   H934    1.110   .     S
C901   H937    1.112   .     S
C901   C135    1.524   1_556 S
C901   H168    1.111   1_556 S
C902   H922    1.082   .     S
C902   N948    1.363   .     A
C902   C907    1.406   .     A
C903   H938    1.103   .     S
C903   H939    1.110   .     S
C903   H940    1.110   .     S
C904   N947    1.365   .     A
C904   H933    1.080   .     S
C904   C908    1.406   .     A
C905   H941    1.080   .     S
C905   N948    1.361   .     A
C906   H942    1.081   .     S
C907   H943    1.081   .     S
C908   H944    1.081   .     S
Cu909  O949    1.963   .     S
Cu909  Cu910   2.673   .     S
Cu909  O956    1.939   .     S
Cu909  O958    1.939   .     S
Cu909  O954    1.965   .     S
Cu909  N948    2.008   .     S
Cu910  O953    1.963   .     S
Cu910  O959    1.939   .     S
Cu910  O955    1.965   .     S
Cu910  O957    1.939   .     S
Cu910  N947    2.008   .     S
Br961  C978    1.936   .     S
Br962  C979    1.941   .     S
Br963  C980    1.929   .     S
Br964  C981    1.936   .     S
C965   O1045   1.291   .     A
C965   C982    1.455   .     S
C965   O1051   1.289   .     A
C966   C1001   1.405   .     A
C966   H1041   1.081   .     S
C966   C970    1.412   .     A
C967   C971    1.412   .     S
C967   O1055   1.287   .     A
C967   O1052   1.287   .     A
C968   O1054   1.287   .     A
C968   O1053   1.287   .     A
C968   C972    1.412   .     S
C969   C1002   1.411   .     A
C969   C1004   1.411   .     A
C970   C1003   1.412   .     A
C970   C777    1.516   1_565 S
C972   C203    1.192   1_556 S
C973   C978    1.409   .     A
C973   O1056   1.390   .     S
C973   C984    1.414   .     A
C974   O1046   1.384   .     S
C974   C979    1.402   .     A
C974   C985    1.402   .     A
C975   C985    1.403   .     A
C975   C980    1.398   .     A
C975   O1047   1.385   .     S
C976   O1050   1.304   .     A
C976   O1049   1.296   .     A
C976   C983    1.491   .     S
C977   O1048   1.389   .     S
C977   C984    1.409   .     A
C977   C981    1.404   .     A
C978   C982    1.407   .     A
C979   C983    1.427   .     A
C980   C983    1.424   .     A
C981   C982    1.406   .     A
C984   C1081   1.472   1_455 S
C985   C1080   1.472   .     S
C986   H1008   1.108   .     S
C986   H1042   1.105   .     S
C986   O1056   1.415   .     S
C986   C1084   1.530   1_455 S
C987   H1007   1.080   .     S
C987   N1043   1.364   .     A
C987   C1002   1.405   .     A
C988   H1010   1.110   .     S
C988   H1009   1.111   .     S
C988   C989    1.524   .     S
C988   C1082   1.530   .     S
C989   H1011   1.111   .     S
C989   H1013   1.109   .     S
C989   H1012   1.110   .     S
C990   C991    1.530   .     S
C990   O1046   1.411   .     S
C990   H1015   1.116   .     S
C990   H1110   1.107   .     S
C991   C992    1.526   .     S
C991   H1017   1.112   .     S
C991   H1112   1.112   .     S
C992   H1020   1.110   .     S
C992   H1019   1.111   .     S
C992   H1117   1.108   .     S
C993   H1022   1.112   .     S
C993   H1023   1.111   .     S
C993   O1047   1.414   .     S
C993   C1090   1.530   .     S
C994   C995    1.525   .     S
C994   H1025   1.112   .     S
C994   H1024   1.110   .     S
C994   C1089   1.530   1_455 S
C995   H1026   1.110   .     S
C995   H1027   1.110   .     S
C995   H1028   1.111   .     S
C996   O1048   1.415   .     S
C996   C997    1.535   .     S
C996   H1031   1.116   .     S
C996   H1030   1.110   .     S
C997   H1033   1.112   .     S
C997   C231    1.524   1_556 S
C997   H264    1.111   1_556 S
C998   H1018   1.082   .     S
C998   N1044   1.363   .     A
C998   C1003   1.406   .     A
C999   H1034   1.103   .     S
C999   H1035   1.110   .     S
C999   H1036   1.110   .     S
C1000  N1043   1.365   .     A
C1000  H1029   1.080   .     S
C1000  C1004   1.406   .     A
C1001  H1037   1.080   .     S
C1001  N1044   1.361   .     A
C1002  H1038   1.081   .     S
C1003  H1039   1.081   .     S
C1004  H1040   1.081   .     S
Cu1005 O1045   1.963   .     S
Cu1005 Cu1006  2.673   .     S
Cu1005 O1052   1.939   .     S
Cu1005 O1054   1.939   .     S
Cu1005 O1050   1.965   .     S
Cu1005 N1044   2.008   .     S
Cu1006 O1049   1.963   .     S
Cu1006 O1055   1.939   .     S
Cu1006 O1051   1.965   .     S
Cu1006 O1053   1.939   .     S
Cu1006 N1043   2.008   .     S
H1014  C1086   1.107   1_455 S
H1016  C1087   1.112   1_455 S
H1021  C1088   1.108   1_455 S
Br1057 C1074   1.936   .     S
Br1058 C1075   1.941   .     S
Br1059 C1076   1.929   .     S
Br1060 C1077   1.936   .     S
C1061  O1141   1.291   .     A
C1061  C1078   1.455   .     S
C1061  O1147   1.289   .     A
C1062  C1097   1.405   .     A
C1062  H1137   1.081   .     S
C1062  C1066   1.412   .     A
C1063  C1067   1.412   .     S
C1063  O1151   1.287   .     A
C1063  O1148   1.287   .     A
C1064  O1150   1.287   .     A
C1064  O1149   1.287   .     A
C1064  C1068   1.412   .     S
C1065  C1098   1.411   .     A
C1065  C1100   1.411   .     A
C1066  C1099   1.412   .     A
C1066  C873    1.516   1_565 S
C1068  C299    1.192   1_556 S
C1069  C1074   1.409   .     A
C1069  O1152   1.390   .     S
C1069  C1080   1.414   .     A
C1070  O1142   1.384   .     S
C1070  C1075   1.402   .     A
C1070  C1081   1.402   .     A
C1071  C1081   1.403   .     A
C1071  C1076   1.398   .     A
C1071  O1143   1.385   .     S
C1072  O1146   1.304   .     A
C1072  O1145   1.296   .     A
C1072  C1079   1.491   .     S
C1073  O1144   1.389   .     S
C1073  C1080   1.409   .     A
C1073  C1077   1.404   .     A
C1074  C1078   1.407   .     A
C1075  C1079   1.427   .     A
C1076  C1079   1.424   .     A
C1077  C1078   1.406   .     A
C1081  C984    1.472   1_655 S
C1082  H1104   1.108   .     S
C1082  H1138   1.105   .     S
C1082  O1152   1.415   .     S
C1083  H1103   1.080   .     S
C1083  N1139   1.364   .     A
C1083  C1098   1.405   .     A
C1084  H1106   1.110   .     S
C1084  H1105   1.111   .     S
C1084  C1085   1.524   .     S
C1084  C986    1.530   1_655 S
C1085  H1107   1.111   .     S
C1085  H1109   1.109   .     S
C1085  H1108   1.110   .     S
C1086  C1087   1.530   .     S
C1086  O1142   1.411   .     S
C1086  H1111   1.116   .     S
C1086  H1014   1.107   1_655 S
C1087  C1088   1.526   .     S
C1087  H1113   1.112   .     S
C1087  H1016   1.112   1_655 S
C1088  H1116   1.110   .     S
C1088  H1115   1.111   .     S
C1088  H1021   1.108   1_655 S
C1089  H1118   1.112   .     S
C1089  H1119   1.111   .     S
C1089  O1143   1.414   .     S
C1089  C994    1.530   1_655 S
C1090  C1091   1.525   .     S
C1090  H1121   1.112   .     S
C1090  H1120   1.110   .     S
C1091  H1122   1.110   .     S
C1091  H1123   1.110   .     S
C1091  H1124   1.111   .     S
C1092  O1144   1.415   .     S
C1092  C1093   1.535   .     S
C1092  H1127   1.116   .     S
C1092  H1126   1.110   .     S
C1093  H1129   1.112   .     S
C1093  C327    1.524   1_556 S
C1093  H360    1.111   1_556 S
C1094  H1114   1.082   .     S
C1094  N1140   1.363   .     A
C1094  C1099   1.406   .     A
C1095  H1130   1.103   .     S
C1095  H1131   1.110   .     S
C1095  H1132   1.110   .     S
C1096  N1139   1.365   .     A
C1096  H1125   1.080   .     S
C1096  C1100   1.406   .     A
C1097  H1133   1.080   .     S
C1097  N1140   1.361   .     A
C1098  H1134   1.081   .     S
C1099  H1135   1.081   .     S
C1100  H1136   1.081   .     S
Cu1101 O1141   1.963   .     S
Cu1101 Cu1102  2.673   .     S
Cu1101 O1148   1.939   .     S
Cu1101 O1150   1.939   .     S
Cu1101 O1146   1.965   .     S
Cu1101 N1140   2.008   .     S
Cu1102 O1145   1.963   .     S
Cu1102 O1151   1.939   .     S
Cu1102 O1147   1.965   .     S
Cu1102 O1149   1.939   .     S
Cu1102 N1139   2.008   .     S
