data_str_m2_o10_o16_pcu_sym.195
_audit_creation_date              2020-01-03
_audit_creation_method            'Materials Studio'
_symmetry_space_group_name_H-M    'P1'
_symmetry_Int_Tables_number       1
_symmetry_cell_setting            triclinic
loop_
_symmetry_equiv_pos_as_xyz
  x,y,z
_cell_length_a                    22.3087
_cell_length_b                    26.0652
_cell_length_c                    26.5382
_cell_angle_alpha                 94.0464
_cell_angle_beta                  77.0968
_cell_angle_gamma                 103.2767
loop_
_atom_site_label
_atom_site_type_symbol
_atom_site_fract_x
_atom_site_fract_y
_atom_site_fract_z
_atom_site_U_iso_or_equiv
_atom_site_adp_type
_atom_site_occupancy
C1     C     0.18182   0.26675   0.25146   0.00000  Uiso   1.00
C2     C     0.13328   0.16954   0.49075   0.00000  Uiso   1.00
C3     C     0.14568   0.18749   0.43915   0.00000  Uiso   1.00
C4     C     0.18157   0.18559   0.01961   0.00000  Uiso   1.00
C5     C     0.23410   0.22691   0.00159   0.00000  Uiso   1.00
C6     C     0.23874   0.25132   0.45548   0.00000  Uiso   1.00
C7     C     0.19416   0.23360   0.42497   0.00000  Uiso   1.00
C8     C     0.18051   0.16067   0.06513   0.00000  Uiso   1.00
C9     C     0.27242   0.22448   0.07998   0.00000  Uiso   1.00
C10    C     0.10894   0.15885   0.40434   0.00000  Uiso   1.00
C11    C     0.19024   0.32274   0.25244   0.00000  Uiso   1.00
C12    C     0.13229   0.16298   0.34753   0.00000  Uiso   1.00
C13    C     0.14294   0.01059   0.24799   0.00000  Uiso   1.00
C14    C     0.15148   0.06659   0.24860   0.00000  Uiso   1.00
C15    C     0.20076   0.17089   0.15268   0.00000  Uiso   1.00
C16    C     0.27991   0.24524   0.03134   0.00000  Uiso   1.00
C17    C     0.22140   0.18291   0.09757   0.00000  Uiso   1.00
C18    C     0.05335   0.12066   0.42414   0.00000  Uiso   1.00
C19    C     0.03458   0.11293   0.47723   0.00000  Uiso   1.00
C20    C     0.07253   0.13753   0.01105   0.00000  Uiso   1.00
Cu21   Cu    0.10710   0.16105   0.24435   0.00000  Uiso   1.00
Cu22   Cu    0.22623   0.17228   0.25564   0.00000  Uiso   1.00
H23    H     0.30460   0.24234   0.10463   0.00000  Uiso   1.00
H24    H     0.09741   0.32003   0.24373   0.00000  Uiso   1.00
H25    H     0.00344   0.20594   0.28997   0.00000  Uiso   1.00
H26    H     0.32989   0.12739   0.21003   0.00000  Uiso   1.00
H27    H     0.27645   0.28556   0.44376   0.00000  Uiso   1.00
H28    H     0.31957   0.27755   0.01824   0.00000  Uiso   1.00
H29    H     0.14674   0.12476   0.07733   0.00000  Uiso   1.00
H30    H     0.32283   0.08711   0.49274   0.00000  Uiso   1.00
H31    H     0.23574   0.01329   0.25679   0.00000  Uiso   1.00
N32    N     0.31574   0.18074   0.26416   0.00000  Uiso   1.00
N33    N     0.01759   0.15259   0.23584   0.00000  Uiso   1.00
O34    O     0.12797   0.23807   0.24633   0.00000  Uiso   1.00
O35    O     0.22858   0.24755   0.25586   0.00000  Uiso   1.00
O36    O     0.09181   0.15960   0.31839   0.00000  Uiso   1.00
O37    O     0.19242   0.16908   0.32793   0.00000  Uiso   1.00
O38    O     0.10476   0.08578   0.24413   0.00000  Uiso   1.00
O39    O     0.20536   0.09526   0.25367   0.00000  Uiso   1.00
O40    O     0.14092   0.16425   0.17207   0.00000  Uiso   1.00
O41    O     0.24152   0.17373   0.18160   0.00000  Uiso   1.00
C42    C     0.01268   0.08748   0.39001   0.00000  Uiso   1.00
H43    H     0.30768   0.05713   0.41222   0.00000  Uiso   1.00
H44    H     0.32333   0.11280   0.37181   0.00000  Uiso   1.00
H45    H     0.04164   0.06635   0.35980   0.00000  Uiso   1.00
C46    C     0.04148   0.13431   0.06790   0.00000  Uiso   1.00
H47    H     0.04322   0.09643   0.08357   0.00000  Uiso   1.00
H48    H     0.06258   0.16846   0.09047   0.00000  Uiso   1.00
H49    H     0.32434   0.13527   0.07349   0.00000  Uiso   1.00
C50    C     0.19529   0.27014   0.38294   0.00000  Uiso   1.00
H51    H     0.23645   0.26898   0.35086   0.00000  Uiso   1.00
H52    H     0.15098   0.26125   0.36857   0.00000  Uiso   1.00
H53    H     0.20025   0.31126   0.39850   0.00000  Uiso   1.00
C54    C     0.51516   0.26675   0.25146   0.00000  Uiso   1.00
C55    C     0.46661   0.16954   0.49075   0.00000  Uiso   1.00
C56    C     0.47901   0.18749   0.43915   0.00000  Uiso   1.00
C57    C     0.51490   0.18559   0.01961   0.00000  Uiso   1.00
C58    C     0.56743   0.22691   0.00159   0.00000  Uiso   1.00
C59    C     0.57207   0.25132   0.45548   0.00000  Uiso   1.00
C60    C     0.52750   0.23360   0.42497   0.00000  Uiso   1.00
C61    C     0.51384   0.16067   0.06513   0.00000  Uiso   1.00
C62    C     0.60575   0.22448   0.07998   0.00000  Uiso   1.00
C63    C     0.44228   0.15885   0.40434   0.00000  Uiso   1.00
C64    C     0.52357   0.32274   0.25244   0.00000  Uiso   1.00
C65    C     0.46563   0.16298   0.34753   0.00000  Uiso   1.00
C66    C     0.47627   0.01059   0.24799   0.00000  Uiso   1.00
C67    C     0.48482   0.06659   0.24860   0.00000  Uiso   1.00
C68    C     0.53410   0.17089   0.15268   0.00000  Uiso   1.00
C69    C     0.61324   0.24524   0.03134   0.00000  Uiso   1.00
C70    C     0.55473   0.18291   0.09757   0.00000  Uiso   1.00
C71    C     0.38669   0.12066   0.42414   0.00000  Uiso   1.00
C72    C     0.36792   0.11293   0.47723   0.00000  Uiso   1.00
C73    C     0.40587   0.13753   0.01105   0.00000  Uiso   1.00
Cu74   Cu    0.44043   0.16105   0.24435   0.00000  Uiso   1.00
Cu75   Cu    0.55957   0.17228   0.25564   0.00000  Uiso   1.00
H76    H     0.63793   0.24234   0.10463   0.00000  Uiso   1.00
H77    H     0.43074   0.32003   0.24373   0.00000  Uiso   1.00
H78    H     0.33678   0.20594   0.28997   0.00000  Uiso   1.00
H79    H     0.66322   0.12739   0.21003   0.00000  Uiso   1.00
H80    H     0.60978   0.28556   0.44376   0.00000  Uiso   1.00
H81    H     0.65290   0.27755   0.01824   0.00000  Uiso   1.00
H82    H     0.48008   0.12476   0.07733   0.00000  Uiso   1.00
H83    H     0.65616   0.08711   0.49274   0.00000  Uiso   1.00
H84    H     0.56907   0.01329   0.25679   0.00000  Uiso   1.00
N85    N     0.64908   0.18074   0.26416   0.00000  Uiso   1.00
N86    N     0.35092   0.15259   0.23584   0.00000  Uiso   1.00
O87    O     0.46131   0.23807   0.24633   0.00000  Uiso   1.00
O88    O     0.56191   0.24755   0.25586   0.00000  Uiso   1.00
O89    O     0.42515   0.15960   0.31839   0.00000  Uiso   1.00
O90    O     0.52575   0.16908   0.32793   0.00000  Uiso   1.00
O91    O     0.43809   0.08578   0.24413   0.00000  Uiso   1.00
O92    O     0.53869   0.09526   0.25367   0.00000  Uiso   1.00
O93    O     0.47425   0.16425   0.17207   0.00000  Uiso   1.00
O94    O     0.57485   0.17373   0.18160   0.00000  Uiso   1.00
C95    C     0.34601   0.08748   0.39001   0.00000  Uiso   1.00
H96    H     0.64101   0.05713   0.41222   0.00000  Uiso   1.00
H97    H     0.65667   0.11280   0.37181   0.00000  Uiso   1.00
H98    H     0.37497   0.06635   0.35980   0.00000  Uiso   1.00
C99    C     0.37481   0.13431   0.06790   0.00000  Uiso   1.00
H100   H     0.37656   0.09643   0.08357   0.00000  Uiso   1.00
H101   H     0.39592   0.16846   0.09047   0.00000  Uiso   1.00
H102   H     0.65768   0.13527   0.07349   0.00000  Uiso   1.00
C103   C     0.52862   0.27014   0.38294   0.00000  Uiso   1.00
H104   H     0.56979   0.26898   0.35086   0.00000  Uiso   1.00
H105   H     0.48431   0.26125   0.36857   0.00000  Uiso   1.00
H106   H     0.53358   0.31126   0.39850   0.00000  Uiso   1.00
C107   C     0.84849   0.26675   0.25146   0.00000  Uiso   1.00
C108   C     0.79995   0.16954   0.49075   0.00000  Uiso   1.00
C109   C     0.81234   0.18749   0.43915   0.00000  Uiso   1.00
C110   C     0.84823   0.18559   0.01961   0.00000  Uiso   1.00
C111   C     0.90076   0.22691   0.00159   0.00000  Uiso   1.00
C112   C     0.90541   0.25132   0.45548   0.00000  Uiso   1.00
C113   C     0.86083   0.23360   0.42497   0.00000  Uiso   1.00
C114   C     0.84717   0.16067   0.06513   0.00000  Uiso   1.00
C115   C     0.93909   0.22448   0.07998   0.00000  Uiso   1.00
C116   C     0.77561   0.15885   0.40434   0.00000  Uiso   1.00
C117   C     0.85691   0.32274   0.25244   0.00000  Uiso   1.00
C118   C     0.79896   0.16298   0.34753   0.00000  Uiso   1.00
C119   C     0.80960   0.01059   0.24799   0.00000  Uiso   1.00
C120   C     0.81815   0.06659   0.24860   0.00000  Uiso   1.00
C121   C     0.86743   0.17089   0.15268   0.00000  Uiso   1.00
C122   C     0.94658   0.24524   0.03134   0.00000  Uiso   1.00
C123   C     0.88806   0.18291   0.09757   0.00000  Uiso   1.00
C124   C     0.72002   0.12066   0.42414   0.00000  Uiso   1.00
C125   C     0.70125   0.11293   0.47723   0.00000  Uiso   1.00
C126   C     0.73920   0.13753   0.01105   0.00000  Uiso   1.00
Cu127  Cu    0.77377   0.16105   0.24435   0.00000  Uiso   1.00
Cu128  Cu    0.89290   0.17228   0.25564   0.00000  Uiso   1.00
H129   H     0.97127   0.24234   0.10463   0.00000  Uiso   1.00
H130   H     0.76408   0.32003   0.24373   0.00000  Uiso   1.00
H131   H     0.67011   0.20594   0.28997   0.00000  Uiso   1.00
H132   H     0.99655   0.12739   0.21003   0.00000  Uiso   1.00
H133   H     0.94311   0.28556   0.44376   0.00000  Uiso   1.00
H134   H     0.98624   0.27755   0.01824   0.00000  Uiso   1.00
H135   H     0.81341   0.12476   0.07733   0.00000  Uiso   1.00
H136   H     0.98949   0.08711   0.49274   0.00000  Uiso   1.00
H137   H     0.90241   0.01329   0.25679   0.00000  Uiso   1.00
N138   N     0.98241   0.18074   0.26416   0.00000  Uiso   1.00
N139   N     0.68426   0.15259   0.23584   0.00000  Uiso   1.00
O140   O     0.79464   0.23807   0.24633   0.00000  Uiso   1.00
O141   O     0.89524   0.24755   0.25586   0.00000  Uiso   1.00
O142   O     0.75848   0.15960   0.31839   0.00000  Uiso   1.00
O143   O     0.85908   0.16908   0.32793   0.00000  Uiso   1.00
O144   O     0.77142   0.08578   0.24413   0.00000  Uiso   1.00
O145   O     0.87203   0.09526   0.25367   0.00000  Uiso   1.00
O146   O     0.80758   0.16425   0.17207   0.00000  Uiso   1.00
O147   O     0.90819   0.17373   0.18160   0.00000  Uiso   1.00
C148   C     0.67935   0.08748   0.39001   0.00000  Uiso   1.00
H149   H     0.97435   0.05713   0.41222   0.00000  Uiso   1.00
H150   H     0.99000   0.11280   0.37181   0.00000  Uiso   1.00
H151   H     0.70830   0.06635   0.35980   0.00000  Uiso   1.00
C152   C     0.70815   0.13431   0.06790   0.00000  Uiso   1.00
H153   H     0.70989   0.09643   0.08357   0.00000  Uiso   1.00
H154   H     0.72925   0.16846   0.09047   0.00000  Uiso   1.00
H155   H     0.99101   0.13527   0.07349   0.00000  Uiso   1.00
C156   C     0.86195   0.27014   0.38294   0.00000  Uiso   1.00
H157   H     0.90312   0.26898   0.35086   0.00000  Uiso   1.00
H158   H     0.81765   0.26125   0.36857   0.00000  Uiso   1.00
H159   H     0.86691   0.31126   0.39850   0.00000  Uiso   1.00
C160   C     0.18182   0.60008   0.25146   0.00000  Uiso   1.00
C161   C     0.13328   0.50288   0.49075   0.00000  Uiso   1.00
C162   C     0.14568   0.52083   0.43915   0.00000  Uiso   1.00
C163   C     0.18157   0.51893   0.01961   0.00000  Uiso   1.00
C164   C     0.23410   0.56024   0.00159   0.00000  Uiso   1.00
C165   C     0.23874   0.58465   0.45548   0.00000  Uiso   1.00
C166   C     0.19416   0.56693   0.42497   0.00000  Uiso   1.00
C167   C     0.18051   0.49400   0.06513   0.00000  Uiso   1.00
C168   C     0.27242   0.55782   0.07998   0.00000  Uiso   1.00
C169   C     0.10894   0.49218   0.40434   0.00000  Uiso   1.00
C170   C     0.19024   0.65607   0.25244   0.00000  Uiso   1.00
C171   C     0.13229   0.49632   0.34753   0.00000  Uiso   1.00
C172   C     0.14294   0.34392   0.24799   0.00000  Uiso   1.00
C173   C     0.15148   0.39992   0.24860   0.00000  Uiso   1.00
C174   C     0.20076   0.50423   0.15268   0.00000  Uiso   1.00
C175   C     0.27991   0.57857   0.03134   0.00000  Uiso   1.00
C176   C     0.22140   0.51624   0.09757   0.00000  Uiso   1.00
C177   C     0.05335   0.45400   0.42414   0.00000  Uiso   1.00
C178   C     0.03458   0.44626   0.47723   0.00000  Uiso   1.00
C179   C     0.07253   0.47086   0.01105   0.00000  Uiso   1.00
Cu180  Cu    0.10710   0.49439   0.24435   0.00000  Uiso   1.00
Cu181  Cu    0.22623   0.50561   0.25564   0.00000  Uiso   1.00
H182   H     0.30460   0.57567   0.10463   0.00000  Uiso   1.00
H183   H     0.09741   0.65336   0.24373   0.00000  Uiso   1.00
H184   H     0.00344   0.53928   0.28997   0.00000  Uiso   1.00
H185   H     0.32989   0.46072   0.21003   0.00000  Uiso   1.00
H186   H     0.27645   0.61889   0.44376   0.00000  Uiso   1.00
H187   H     0.31957   0.61088   0.01824   0.00000  Uiso   1.00
H188   H     0.14674   0.45809   0.07733   0.00000  Uiso   1.00
H189   H     0.32283   0.42044   0.49274   0.00000  Uiso   1.00
H190   H     0.23574   0.34662   0.25679   0.00000  Uiso   1.00
N191   N     0.31574   0.51407   0.26416   0.00000  Uiso   1.00
N192   N     0.01759   0.48593   0.23584   0.00000  Uiso   1.00
O193   O     0.12797   0.57141   0.24633   0.00000  Uiso   1.00
O194   O     0.22858   0.58089   0.25586   0.00000  Uiso   1.00
O195   O     0.09181   0.49293   0.31839   0.00000  Uiso   1.00
O196   O     0.19242   0.50241   0.32793   0.00000  Uiso   1.00
O197   O     0.10476   0.41911   0.24413   0.00000  Uiso   1.00
O198   O     0.20536   0.42859   0.25367   0.00000  Uiso   1.00
O199   O     0.14092   0.49759   0.17207   0.00000  Uiso   1.00
O200   O     0.24152   0.50707   0.18160   0.00000  Uiso   1.00
C201   C     0.01268   0.42082   0.39001   0.00000  Uiso   1.00
H202   H     0.30768   0.39046   0.41222   0.00000  Uiso   1.00
H203   H     0.32333   0.44613   0.37181   0.00000  Uiso   1.00
H204   H     0.04164   0.39968   0.35980   0.00000  Uiso   1.00
C205   C     0.04148   0.46764   0.06790   0.00000  Uiso   1.00
H206   H     0.04322   0.42976   0.08357   0.00000  Uiso   1.00
H207   H     0.06258   0.50179   0.09047   0.00000  Uiso   1.00
H208   H     0.32434   0.46861   0.07349   0.00000  Uiso   1.00
C209   C     0.19529   0.60347   0.38294   0.00000  Uiso   1.00
H210   H     0.23645   0.60231   0.35086   0.00000  Uiso   1.00
H211   H     0.15098   0.59458   0.36857   0.00000  Uiso   1.00
H212   H     0.20025   0.64460   0.39850   0.00000  Uiso   1.00
C213   C     0.51516   0.60008   0.25146   0.00000  Uiso   1.00
C214   C     0.46661   0.50288   0.49075   0.00000  Uiso   1.00
C215   C     0.47901   0.52083   0.43915   0.00000  Uiso   1.00
C216   C     0.51490   0.51893   0.01961   0.00000  Uiso   1.00
C217   C     0.56743   0.56024   0.00159   0.00000  Uiso   1.00
C218   C     0.57207   0.58465   0.45548   0.00000  Uiso   1.00
C219   C     0.52750   0.56693   0.42497   0.00000  Uiso   1.00
C220   C     0.51384   0.49400   0.06513   0.00000  Uiso   1.00
C221   C     0.60575   0.55782   0.07998   0.00000  Uiso   1.00
C222   C     0.44228   0.49218   0.40434   0.00000  Uiso   1.00
C223   C     0.52357   0.65607   0.25244   0.00000  Uiso   1.00
C224   C     0.46563   0.49632   0.34753   0.00000  Uiso   1.00
C225   C     0.47627   0.34392   0.24799   0.00000  Uiso   1.00
C226   C     0.48482   0.39992   0.24860   0.00000  Uiso   1.00
C227   C     0.53410   0.50423   0.15268   0.00000  Uiso   1.00
C228   C     0.61324   0.57857   0.03134   0.00000  Uiso   1.00
C229   C     0.55473   0.51624   0.09757   0.00000  Uiso   1.00
C230   C     0.38669   0.45400   0.42414   0.00000  Uiso   1.00
C231   C     0.36792   0.44626   0.47723   0.00000  Uiso   1.00
C232   C     0.40587   0.47086   0.01105   0.00000  Uiso   1.00
Cu233  Cu    0.44043   0.49439   0.24435   0.00000  Uiso   1.00
Cu234  Cu    0.55957   0.50561   0.25564   0.00000  Uiso   1.00
H235   H     0.63793   0.57567   0.10463   0.00000  Uiso   1.00
H236   H     0.43074   0.65336   0.24373   0.00000  Uiso   1.00
H237   H     0.33678   0.53928   0.28997   0.00000  Uiso   1.00
H238   H     0.66322   0.46072   0.21003   0.00000  Uiso   1.00
H239   H     0.60978   0.61889   0.44376   0.00000  Uiso   1.00
H240   H     0.65290   0.61088   0.01824   0.00000  Uiso   1.00
H241   H     0.48008   0.45809   0.07733   0.00000  Uiso   1.00
H242   H     0.65616   0.42044   0.49274   0.00000  Uiso   1.00
H243   H     0.56907   0.34662   0.25679   0.00000  Uiso   1.00
N244   N     0.64908   0.51407   0.26416   0.00000  Uiso   1.00
N245   N     0.35092   0.48593   0.23584   0.00000  Uiso   1.00
O246   O     0.46131   0.57141   0.24633   0.00000  Uiso   1.00
O247   O     0.56191   0.58089   0.25586   0.00000  Uiso   1.00
O248   O     0.42515   0.49293   0.31839   0.00000  Uiso   1.00
O249   O     0.52575   0.50241   0.32793   0.00000  Uiso   1.00
O250   O     0.43809   0.41911   0.24413   0.00000  Uiso   1.00
O251   O     0.53869   0.42859   0.25367   0.00000  Uiso   1.00
O252   O     0.47425   0.49759   0.17207   0.00000  Uiso   1.00
O253   O     0.57485   0.50707   0.18160   0.00000  Uiso   1.00
C254   C     0.34601   0.42082   0.39001   0.00000  Uiso   1.00
H255   H     0.64101   0.39046   0.41222   0.00000  Uiso   1.00
H256   H     0.65667   0.44613   0.37181   0.00000  Uiso   1.00
H257   H     0.37497   0.39968   0.35980   0.00000  Uiso   1.00
C258   C     0.37481   0.46764   0.06790   0.00000  Uiso   1.00
H259   H     0.37656   0.42976   0.08357   0.00000  Uiso   1.00
H260   H     0.39592   0.50179   0.09047   0.00000  Uiso   1.00
H261   H     0.65768   0.46861   0.07349   0.00000  Uiso   1.00
C262   C     0.52862   0.60347   0.38294   0.00000  Uiso   1.00
H263   H     0.56979   0.60231   0.35086   0.00000  Uiso   1.00
H264   H     0.48431   0.59458   0.36857   0.00000  Uiso   1.00
H265   H     0.53358   0.64460   0.39850   0.00000  Uiso   1.00
C266   C     0.84849   0.60008   0.25146   0.00000  Uiso   1.00
C267   C     0.79995   0.50288   0.49075   0.00000  Uiso   1.00
C268   C     0.81234   0.52083   0.43915   0.00000  Uiso   1.00
C269   C     0.84823   0.51893   0.01961   0.00000  Uiso   1.00
C270   C     0.90076   0.56024   0.00159   0.00000  Uiso   1.00
C271   C     0.90541   0.58465   0.45548   0.00000  Uiso   1.00
C272   C     0.86083   0.56693   0.42497   0.00000  Uiso   1.00
C273   C     0.84717   0.49400   0.06513   0.00000  Uiso   1.00
C274   C     0.93909   0.55782   0.07998   0.00000  Uiso   1.00
C275   C     0.77561   0.49218   0.40434   0.00000  Uiso   1.00
C276   C     0.85691   0.65607   0.25244   0.00000  Uiso   1.00
C277   C     0.79896   0.49632   0.34753   0.00000  Uiso   1.00
C278   C     0.80960   0.34392   0.24799   0.00000  Uiso   1.00
C279   C     0.81815   0.39992   0.24860   0.00000  Uiso   1.00
C280   C     0.86743   0.50423   0.15268   0.00000  Uiso   1.00
C281   C     0.94658   0.57857   0.03134   0.00000  Uiso   1.00
C282   C     0.88806   0.51624   0.09757   0.00000  Uiso   1.00
C283   C     0.72002   0.45400   0.42414   0.00000  Uiso   1.00
C284   C     0.70125   0.44626   0.47723   0.00000  Uiso   1.00
C285   C     0.73920   0.47086   0.01105   0.00000  Uiso   1.00
Cu286  Cu    0.77377   0.49439   0.24435   0.00000  Uiso   1.00
Cu287  Cu    0.89290   0.50561   0.25564   0.00000  Uiso   1.00
H288   H     0.97127   0.57567   0.10463   0.00000  Uiso   1.00
H289   H     0.76408   0.65336   0.24373   0.00000  Uiso   1.00
H290   H     0.67011   0.53928   0.28997   0.00000  Uiso   1.00
H291   H     0.99655   0.46072   0.21003   0.00000  Uiso   1.00
H292   H     0.94311   0.61889   0.44376   0.00000  Uiso   1.00
H293   H     0.98624   0.61088   0.01824   0.00000  Uiso   1.00
H294   H     0.81341   0.45809   0.07733   0.00000  Uiso   1.00
H295   H     0.98949   0.42044   0.49274   0.00000  Uiso   1.00
H296   H     0.90241   0.34662   0.25679   0.00000  Uiso   1.00
N297   N     0.98241   0.51407   0.26416   0.00000  Uiso   1.00
N298   N     0.68426   0.48593   0.23584   0.00000  Uiso   1.00
O299   O     0.79464   0.57141   0.24633   0.00000  Uiso   1.00
O300   O     0.89524   0.58089   0.25586   0.00000  Uiso   1.00
O301   O     0.75848   0.49293   0.31839   0.00000  Uiso   1.00
O302   O     0.85908   0.50241   0.32793   0.00000  Uiso   1.00
O303   O     0.77142   0.41911   0.24413   0.00000  Uiso   1.00
O304   O     0.87203   0.42859   0.25367   0.00000  Uiso   1.00
O305   O     0.80758   0.49759   0.17207   0.00000  Uiso   1.00
O306   O     0.90819   0.50707   0.18160   0.00000  Uiso   1.00
C307   C     0.67935   0.42082   0.39001   0.00000  Uiso   1.00
H308   H     0.97435   0.39046   0.41222   0.00000  Uiso   1.00
H309   H     0.99000   0.44613   0.37181   0.00000  Uiso   1.00
H310   H     0.70830   0.39968   0.35980   0.00000  Uiso   1.00
C311   C     0.70815   0.46764   0.06790   0.00000  Uiso   1.00
H312   H     0.70989   0.42976   0.08357   0.00000  Uiso   1.00
H313   H     0.72925   0.50179   0.09047   0.00000  Uiso   1.00
H314   H     0.99101   0.46861   0.07349   0.00000  Uiso   1.00
C315   C     0.86195   0.60347   0.38294   0.00000  Uiso   1.00
H316   H     0.90312   0.60231   0.35086   0.00000  Uiso   1.00
H317   H     0.81765   0.59458   0.36857   0.00000  Uiso   1.00
H318   H     0.86691   0.64460   0.39850   0.00000  Uiso   1.00
C319   C     0.18182   0.93341   0.25146   0.00000  Uiso   1.00
C320   C     0.13328   0.83621   0.49075   0.00000  Uiso   1.00
C321   C     0.14568   0.85416   0.43915   0.00000  Uiso   1.00
C322   C     0.18157   0.85226   0.01961   0.00000  Uiso   1.00
C323   C     0.23410   0.89358   0.00159   0.00000  Uiso   1.00
C324   C     0.23874   0.91798   0.45548   0.00000  Uiso   1.00
C325   C     0.19416   0.90027   0.42497   0.00000  Uiso   1.00
C326   C     0.18051   0.82734   0.06513   0.00000  Uiso   1.00
C327   C     0.27242   0.89115   0.07998   0.00000  Uiso   1.00
C328   C     0.10894   0.82552   0.40434   0.00000  Uiso   1.00
C329   C     0.19024   0.98940   0.25244   0.00000  Uiso   1.00
C330   C     0.13229   0.82965   0.34753   0.00000  Uiso   1.00
C331   C     0.14294   0.67726   0.24799   0.00000  Uiso   1.00
C332   C     0.15148   0.73325   0.24860   0.00000  Uiso   1.00
C333   C     0.20076   0.83756   0.15268   0.00000  Uiso   1.00
C334   C     0.27991   0.91190   0.03134   0.00000  Uiso   1.00
C335   C     0.22140   0.84958   0.09757   0.00000  Uiso   1.00
C336   C     0.05335   0.78733   0.42414   0.00000  Uiso   1.00
C337   C     0.03458   0.77959   0.47723   0.00000  Uiso   1.00
C338   C     0.07253   0.80419   0.01105   0.00000  Uiso   1.00
Cu339  Cu    0.10710   0.82772   0.24435   0.00000  Uiso   1.00
Cu340  Cu    0.22623   0.83895   0.25564   0.00000  Uiso   1.00
H341   H     0.30460   0.90901   0.10463   0.00000  Uiso   1.00
H342   H     0.09741   0.98670   0.24373   0.00000  Uiso   1.00
H343   H     0.00344   0.87261   0.28997   0.00000  Uiso   1.00
H344   H     0.32989   0.79406   0.21003   0.00000  Uiso   1.00
H345   H     0.27645   0.95222   0.44376   0.00000  Uiso   1.00
H346   H     0.31957   0.94422   0.01824   0.00000  Uiso   1.00
H347   H     0.14674   0.79142   0.07733   0.00000  Uiso   1.00
H348   H     0.32283   0.75378   0.49274   0.00000  Uiso   1.00
H349   H     0.23574   0.67996   0.25679   0.00000  Uiso   1.00
N350   N     0.31574   0.84741   0.26416   0.00000  Uiso   1.00
N351   N     0.01759   0.81926   0.23584   0.00000  Uiso   1.00
O352   O     0.12797   0.90474   0.24633   0.00000  Uiso   1.00
O353   O     0.22858   0.91422   0.25586   0.00000  Uiso   1.00
O354   O     0.09181   0.82627   0.31839   0.00000  Uiso   1.00
O355   O     0.19242   0.83575   0.32793   0.00000  Uiso   1.00
O356   O     0.10476   0.75245   0.24413   0.00000  Uiso   1.00
O357   O     0.20536   0.76193   0.25367   0.00000  Uiso   1.00
O358   O     0.14092   0.83092   0.17207   0.00000  Uiso   1.00
O359   O     0.24152   0.84040   0.18160   0.00000  Uiso   1.00
C360   C     0.01268   0.75415   0.39001   0.00000  Uiso   1.00
H361   H     0.30768   0.72379   0.41222   0.00000  Uiso   1.00
H362   H     0.32333   0.77947   0.37181   0.00000  Uiso   1.00
H363   H     0.04164   0.73301   0.35980   0.00000  Uiso   1.00
C364   C     0.04148   0.80097   0.06790   0.00000  Uiso   1.00
H365   H     0.04322   0.76309   0.08357   0.00000  Uiso   1.00
H366   H     0.06258   0.83512   0.09047   0.00000  Uiso   1.00
H367   H     0.32434   0.80194   0.07349   0.00000  Uiso   1.00
C368   C     0.19529   0.93681   0.38294   0.00000  Uiso   1.00
H369   H     0.23645   0.93564   0.35086   0.00000  Uiso   1.00
H370   H     0.15098   0.92791   0.36857   0.00000  Uiso   1.00
H371   H     0.20025   0.97793   0.39850   0.00000  Uiso   1.00
C372   C     0.51516   0.93341   0.25146   0.00000  Uiso   1.00
C373   C     0.46661   0.83621   0.49075   0.00000  Uiso   1.00
C374   C     0.47901   0.85416   0.43915   0.00000  Uiso   1.00
C375   C     0.51490   0.85226   0.01961   0.00000  Uiso   1.00
C376   C     0.56743   0.89358   0.00159   0.00000  Uiso   1.00
C377   C     0.57207   0.91798   0.45548   0.00000  Uiso   1.00
C378   C     0.52750   0.90027   0.42497   0.00000  Uiso   1.00
C379   C     0.51384   0.82734   0.06513   0.00000  Uiso   1.00
C380   C     0.60575   0.89115   0.07998   0.00000  Uiso   1.00
C381   C     0.44228   0.82552   0.40434   0.00000  Uiso   1.00
C382   C     0.52357   0.98940   0.25244   0.00000  Uiso   1.00
C383   C     0.46563   0.82965   0.34753   0.00000  Uiso   1.00
C384   C     0.47627   0.67726   0.24799   0.00000  Uiso   1.00
C385   C     0.48482   0.73325   0.24860   0.00000  Uiso   1.00
C386   C     0.53410   0.83756   0.15268   0.00000  Uiso   1.00
C387   C     0.61324   0.91190   0.03134   0.00000  Uiso   1.00
C388   C     0.55473   0.84958   0.09757   0.00000  Uiso   1.00
C389   C     0.38669   0.78733   0.42414   0.00000  Uiso   1.00
C390   C     0.36792   0.77959   0.47723   0.00000  Uiso   1.00
C391   C     0.40587   0.80419   0.01105   0.00000  Uiso   1.00
Cu392  Cu    0.44043   0.82772   0.24435   0.00000  Uiso   1.00
Cu393  Cu    0.55957   0.83895   0.25564   0.00000  Uiso   1.00
H394   H     0.63793   0.90901   0.10463   0.00000  Uiso   1.00
H395   H     0.43074   0.98670   0.24373   0.00000  Uiso   1.00
H396   H     0.33678   0.87261   0.28997   0.00000  Uiso   1.00
H397   H     0.66322   0.79406   0.21003   0.00000  Uiso   1.00
H398   H     0.60978   0.95222   0.44376   0.00000  Uiso   1.00
H399   H     0.65290   0.94422   0.01824   0.00000  Uiso   1.00
H400   H     0.48008   0.79142   0.07733   0.00000  Uiso   1.00
H401   H     0.65616   0.75378   0.49274   0.00000  Uiso   1.00
H402   H     0.56907   0.67996   0.25679   0.00000  Uiso   1.00
N403   N     0.64908   0.84741   0.26416   0.00000  Uiso   1.00
N404   N     0.35092   0.81926   0.23584   0.00000  Uiso   1.00
O405   O     0.46131   0.90474   0.24633   0.00000  Uiso   1.00
O406   O     0.56191   0.91422   0.25586   0.00000  Uiso   1.00
O407   O     0.42515   0.82627   0.31839   0.00000  Uiso   1.00
O408   O     0.52575   0.83575   0.32793   0.00000  Uiso   1.00
O409   O     0.43809   0.75245   0.24413   0.00000  Uiso   1.00
O410   O     0.53869   0.76193   0.25367   0.00000  Uiso   1.00
O411   O     0.47425   0.83092   0.17207   0.00000  Uiso   1.00
O412   O     0.57485   0.84040   0.18160   0.00000  Uiso   1.00
C413   C     0.34601   0.75415   0.39001   0.00000  Uiso   1.00
H414   H     0.64101   0.72379   0.41222   0.00000  Uiso   1.00
H415   H     0.65667   0.77947   0.37181   0.00000  Uiso   1.00
H416   H     0.37497   0.73301   0.35980   0.00000  Uiso   1.00
C417   C     0.37481   0.80097   0.06790   0.00000  Uiso   1.00
H418   H     0.37656   0.76309   0.08357   0.00000  Uiso   1.00
H419   H     0.39592   0.83512   0.09047   0.00000  Uiso   1.00
H420   H     0.65768   0.80194   0.07349   0.00000  Uiso   1.00
C421   C     0.52862   0.93681   0.38294   0.00000  Uiso   1.00
H422   H     0.56979   0.93564   0.35086   0.00000  Uiso   1.00
H423   H     0.48431   0.92791   0.36857   0.00000  Uiso   1.00
H424   H     0.53358   0.97793   0.39850   0.00000  Uiso   1.00
C425   C     0.84849   0.93341   0.25146   0.00000  Uiso   1.00
C426   C     0.79995   0.83621   0.49075   0.00000  Uiso   1.00
C427   C     0.81234   0.85416   0.43915   0.00000  Uiso   1.00
C428   C     0.84823   0.85226   0.01961   0.00000  Uiso   1.00
C429   C     0.90076   0.89358   0.00159   0.00000  Uiso   1.00
C430   C     0.90541   0.91798   0.45548   0.00000  Uiso   1.00
C431   C     0.86083   0.90027   0.42497   0.00000  Uiso   1.00
C432   C     0.84717   0.82734   0.06513   0.00000  Uiso   1.00
C433   C     0.93909   0.89115   0.07998   0.00000  Uiso   1.00
C434   C     0.77561   0.82552   0.40434   0.00000  Uiso   1.00
C435   C     0.85691   0.98940   0.25244   0.00000  Uiso   1.00
C436   C     0.79896   0.82965   0.34753   0.00000  Uiso   1.00
C437   C     0.80960   0.67726   0.24799   0.00000  Uiso   1.00
C438   C     0.81815   0.73325   0.24860   0.00000  Uiso   1.00
C439   C     0.86743   0.83756   0.15268   0.00000  Uiso   1.00
C440   C     0.94658   0.91190   0.03134   0.00000  Uiso   1.00
C441   C     0.88806   0.84958   0.09757   0.00000  Uiso   1.00
C442   C     0.72002   0.78733   0.42414   0.00000  Uiso   1.00
C443   C     0.70125   0.77959   0.47723   0.00000  Uiso   1.00
C444   C     0.73920   0.80419   0.01105   0.00000  Uiso   1.00
Cu445  Cu    0.77377   0.82772   0.24435   0.00000  Uiso   1.00
Cu446  Cu    0.89290   0.83895   0.25564   0.00000  Uiso   1.00
H447   H     0.97127   0.90901   0.10463   0.00000  Uiso   1.00
H448   H     0.76408   0.98670   0.24373   0.00000  Uiso   1.00
H449   H     0.67011   0.87261   0.28997   0.00000  Uiso   1.00
H450   H     0.99655   0.79406   0.21003   0.00000  Uiso   1.00
H451   H     0.94311   0.95222   0.44376   0.00000  Uiso   1.00
H452   H     0.98624   0.94422   0.01824   0.00000  Uiso   1.00
H453   H     0.81341   0.79142   0.07733   0.00000  Uiso   1.00
H454   H     0.98949   0.75378   0.49274   0.00000  Uiso   1.00
H455   H     0.90241   0.67996   0.25679   0.00000  Uiso   1.00
N456   N     0.98241   0.84741   0.26416   0.00000  Uiso   1.00
N457   N     0.68426   0.81926   0.23584   0.00000  Uiso   1.00
O458   O     0.79464   0.90474   0.24633   0.00000  Uiso   1.00
O459   O     0.89524   0.91422   0.25586   0.00000  Uiso   1.00
O460   O     0.75848   0.82627   0.31839   0.00000  Uiso   1.00
O461   O     0.85908   0.83575   0.32793   0.00000  Uiso   1.00
O462   O     0.77142   0.75245   0.24413   0.00000  Uiso   1.00
O463   O     0.87203   0.76193   0.25367   0.00000  Uiso   1.00
O464   O     0.80758   0.83092   0.17207   0.00000  Uiso   1.00
O465   O     0.90819   0.84040   0.18160   0.00000  Uiso   1.00
C466   C     0.67935   0.75415   0.39001   0.00000  Uiso   1.00
H467   H     0.97435   0.72379   0.41222   0.00000  Uiso   1.00
H468   H     0.99000   0.77947   0.37181   0.00000  Uiso   1.00
H469   H     0.70830   0.73301   0.35980   0.00000  Uiso   1.00
C470   C     0.70815   0.80097   0.06790   0.00000  Uiso   1.00
H471   H     0.70989   0.76309   0.08357   0.00000  Uiso   1.00
H472   H     0.72925   0.83512   0.09047   0.00000  Uiso   1.00
H473   H     0.99101   0.80194   0.07349   0.00000  Uiso   1.00
C474   C     0.86195   0.93681   0.38294   0.00000  Uiso   1.00
H475   H     0.90312   0.93564   0.35086   0.00000  Uiso   1.00
H476   H     0.81765   0.92791   0.36857   0.00000  Uiso   1.00
H477   H     0.86691   0.97793   0.39850   0.00000  Uiso   1.00
C478   C     0.18182   0.26675   0.75146   0.00000  Uiso   1.00
C479   C     0.13328   0.16954   0.99075   0.00000  Uiso   1.00
C480   C     0.14568   0.18749   0.93915   0.00000  Uiso   1.00
C481   C     0.18157   0.18559   0.51961   0.00000  Uiso   1.00
C482   C     0.23410   0.22691   0.50159   0.00000  Uiso   1.00
C483   C     0.23874   0.25132   0.95548   0.00000  Uiso   1.00
C484   C     0.19416   0.23360   0.92497   0.00000  Uiso   1.00
C485   C     0.18051   0.16067   0.56513   0.00000  Uiso   1.00
C486   C     0.27242   0.22448   0.57998   0.00000  Uiso   1.00
C487   C     0.10894   0.15885   0.90434   0.00000  Uiso   1.00
C488   C     0.19024   0.32274   0.75244   0.00000  Uiso   1.00
C489   C     0.13229   0.16298   0.84753   0.00000  Uiso   1.00
C490   C     0.14294   0.01059   0.74799   0.00000  Uiso   1.00
C491   C     0.15148   0.06659   0.74860   0.00000  Uiso   1.00
C492   C     0.20076   0.17089   0.65268   0.00000  Uiso   1.00
C493   C     0.27991   0.24524   0.53134   0.00000  Uiso   1.00
C494   C     0.22140   0.18291   0.59757   0.00000  Uiso   1.00
C495   C     0.05335   0.12066   0.92414   0.00000  Uiso   1.00
C496   C     0.03458   0.11293   0.97723   0.00000  Uiso   1.00
C497   C     0.07253   0.13753   0.51105   0.00000  Uiso   1.00
Cu498  Cu    0.10710   0.16105   0.74435   0.00000  Uiso   1.00
Cu499  Cu    0.22623   0.17228   0.75564   0.00000  Uiso   1.00
H500   H     0.30460   0.24234   0.60463   0.00000  Uiso   1.00
H501   H     0.09741   0.32003   0.74373   0.00000  Uiso   1.00
H502   H     0.00344   0.20594   0.78997   0.00000  Uiso   1.00
H503   H     0.32989   0.12739   0.71003   0.00000  Uiso   1.00
H504   H     0.27645   0.28556   0.94376   0.00000  Uiso   1.00
H505   H     0.31957   0.27755   0.51824   0.00000  Uiso   1.00
H506   H     0.14674   0.12476   0.57733   0.00000  Uiso   1.00
H507   H     0.32283   0.08711   0.99274   0.00000  Uiso   1.00
H508   H     0.23574   0.01329   0.75679   0.00000  Uiso   1.00
N509   N     0.31574   0.18074   0.76416   0.00000  Uiso   1.00
N510   N     0.01759   0.15259   0.73584   0.00000  Uiso   1.00
O511   O     0.12797   0.23807   0.74633   0.00000  Uiso   1.00
O512   O     0.22858   0.24755   0.75586   0.00000  Uiso   1.00
O513   O     0.09181   0.15960   0.81839   0.00000  Uiso   1.00
O514   O     0.19242   0.16908   0.82793   0.00000  Uiso   1.00
O515   O     0.10476   0.08578   0.74413   0.00000  Uiso   1.00
O516   O     0.20536   0.09526   0.75367   0.00000  Uiso   1.00
O517   O     0.14092   0.16425   0.67207   0.00000  Uiso   1.00
O518   O     0.24152   0.17373   0.68160   0.00000  Uiso   1.00
C519   C     0.01268   0.08748   0.89001   0.00000  Uiso   1.00
H520   H     0.30768   0.05713   0.91222   0.00000  Uiso   1.00
H521   H     0.32333   0.11280   0.87181   0.00000  Uiso   1.00
H522   H     0.04164   0.06635   0.85980   0.00000  Uiso   1.00
C523   C     0.04148   0.13431   0.56790   0.00000  Uiso   1.00
H524   H     0.04322   0.09643   0.58357   0.00000  Uiso   1.00
H525   H     0.06258   0.16846   0.59047   0.00000  Uiso   1.00
H526   H     0.32434   0.13527   0.57349   0.00000  Uiso   1.00
C527   C     0.19529   0.27014   0.88294   0.00000  Uiso   1.00
H528   H     0.23645   0.26898   0.85086   0.00000  Uiso   1.00
H529   H     0.15098   0.26125   0.86857   0.00000  Uiso   1.00
H530   H     0.20025   0.31126   0.89850   0.00000  Uiso   1.00
C531   C     0.51516   0.26675   0.75146   0.00000  Uiso   1.00
C532   C     0.46661   0.16954   0.99075   0.00000  Uiso   1.00
C533   C     0.47901   0.18749   0.93915   0.00000  Uiso   1.00
C534   C     0.51490   0.18559   0.51961   0.00000  Uiso   1.00
C535   C     0.56743   0.22691   0.50159   0.00000  Uiso   1.00
C536   C     0.57207   0.25132   0.95548   0.00000  Uiso   1.00
C537   C     0.52750   0.23360   0.92497   0.00000  Uiso   1.00
C538   C     0.51384   0.16067   0.56513   0.00000  Uiso   1.00
C539   C     0.60575   0.22448   0.57998   0.00000  Uiso   1.00
C540   C     0.44228   0.15885   0.90434   0.00000  Uiso   1.00
C541   C     0.52357   0.32274   0.75244   0.00000  Uiso   1.00
C542   C     0.46563   0.16298   0.84753   0.00000  Uiso   1.00
C543   C     0.47627   0.01059   0.74799   0.00000  Uiso   1.00
C544   C     0.48482   0.06659   0.74860   0.00000  Uiso   1.00
C545   C     0.53410   0.17089   0.65268   0.00000  Uiso   1.00
C546   C     0.61324   0.24524   0.53134   0.00000  Uiso   1.00
C547   C     0.55473   0.18291   0.59757   0.00000  Uiso   1.00
C548   C     0.38669   0.12066   0.92414   0.00000  Uiso   1.00
C549   C     0.36792   0.11293   0.97723   0.00000  Uiso   1.00
C550   C     0.40587   0.13753   0.51105   0.00000  Uiso   1.00
Cu551  Cu    0.44043   0.16105   0.74435   0.00000  Uiso   1.00
Cu552  Cu    0.55957   0.17228   0.75564   0.00000  Uiso   1.00
H553   H     0.63793   0.24234   0.60463   0.00000  Uiso   1.00
H554   H     0.43074   0.32003   0.74373   0.00000  Uiso   1.00
H555   H     0.33678   0.20594   0.78997   0.00000  Uiso   1.00
H556   H     0.66322   0.12739   0.71003   0.00000  Uiso   1.00
H557   H     0.60978   0.28556   0.94376   0.00000  Uiso   1.00
H558   H     0.65290   0.27755   0.51824   0.00000  Uiso   1.00
H559   H     0.48008   0.12476   0.57733   0.00000  Uiso   1.00
H560   H     0.65616   0.08711   0.99274   0.00000  Uiso   1.00
H561   H     0.56907   0.01329   0.75679   0.00000  Uiso   1.00
N562   N     0.64908   0.18074   0.76416   0.00000  Uiso   1.00
N563   N     0.35092   0.15259   0.73584   0.00000  Uiso   1.00
O564   O     0.46131   0.23807   0.74633   0.00000  Uiso   1.00
O565   O     0.56191   0.24755   0.75586   0.00000  Uiso   1.00
O566   O     0.42515   0.15960   0.81839   0.00000  Uiso   1.00
O567   O     0.52575   0.16908   0.82793   0.00000  Uiso   1.00
O568   O     0.43809   0.08578   0.74413   0.00000  Uiso   1.00
O569   O     0.53869   0.09526   0.75367   0.00000  Uiso   1.00
O570   O     0.47425   0.16425   0.67207   0.00000  Uiso   1.00
O571   O     0.57485   0.17373   0.68160   0.00000  Uiso   1.00
C572   C     0.34601   0.08748   0.89001   0.00000  Uiso   1.00
H573   H     0.64101   0.05713   0.91222   0.00000  Uiso   1.00
H574   H     0.65667   0.11280   0.87181   0.00000  Uiso   1.00
H575   H     0.37497   0.06635   0.85980   0.00000  Uiso   1.00
C576   C     0.37481   0.13431   0.56790   0.00000  Uiso   1.00
H577   H     0.37656   0.09643   0.58357   0.00000  Uiso   1.00
H578   H     0.39592   0.16846   0.59047   0.00000  Uiso   1.00
H579   H     0.65768   0.13527   0.57349   0.00000  Uiso   1.00
C580   C     0.52862   0.27014   0.88294   0.00000  Uiso   1.00
H581   H     0.56979   0.26898   0.85086   0.00000  Uiso   1.00
H582   H     0.48431   0.26125   0.86857   0.00000  Uiso   1.00
H583   H     0.53358   0.31126   0.89850   0.00000  Uiso   1.00
C584   C     0.84849   0.26675   0.75146   0.00000  Uiso   1.00
C585   C     0.79995   0.16954   0.99075   0.00000  Uiso   1.00
C586   C     0.81234   0.18749   0.93915   0.00000  Uiso   1.00
C587   C     0.84823   0.18559   0.51961   0.00000  Uiso   1.00
C588   C     0.90076   0.22691   0.50159   0.00000  Uiso   1.00
C589   C     0.90541   0.25132   0.95548   0.00000  Uiso   1.00
C590   C     0.86083   0.23360   0.92497   0.00000  Uiso   1.00
C591   C     0.84717   0.16067   0.56513   0.00000  Uiso   1.00
C592   C     0.93909   0.22448   0.57998   0.00000  Uiso   1.00
C593   C     0.77561   0.15885   0.90434   0.00000  Uiso   1.00
C594   C     0.85691   0.32274   0.75244   0.00000  Uiso   1.00
C595   C     0.79896   0.16298   0.84753   0.00000  Uiso   1.00
C596   C     0.80960   0.01059   0.74799   0.00000  Uiso   1.00
C597   C     0.81815   0.06659   0.74860   0.00000  Uiso   1.00
C598   C     0.86743   0.17089   0.65268   0.00000  Uiso   1.00
C599   C     0.94658   0.24524   0.53134   0.00000  Uiso   1.00
C600   C     0.88806   0.18291   0.59757   0.00000  Uiso   1.00
C601   C     0.72002   0.12066   0.92414   0.00000  Uiso   1.00
C602   C     0.70125   0.11293   0.97723   0.00000  Uiso   1.00
C603   C     0.73920   0.13753   0.51105   0.00000  Uiso   1.00
Cu604  Cu    0.77377   0.16105   0.74435   0.00000  Uiso   1.00
Cu605  Cu    0.89290   0.17228   0.75564   0.00000  Uiso   1.00
H606   H     0.97127   0.24234   0.60463   0.00000  Uiso   1.00
H607   H     0.76408   0.32003   0.74373   0.00000  Uiso   1.00
H608   H     0.67011   0.20594   0.78997   0.00000  Uiso   1.00
H609   H     0.99655   0.12739   0.71003   0.00000  Uiso   1.00
H610   H     0.94311   0.28556   0.94376   0.00000  Uiso   1.00
H611   H     0.98624   0.27755   0.51824   0.00000  Uiso   1.00
H612   H     0.81341   0.12476   0.57733   0.00000  Uiso   1.00
H613   H     0.98949   0.08711   0.99274   0.00000  Uiso   1.00
H614   H     0.90241   0.01329   0.75679   0.00000  Uiso   1.00
N615   N     0.98241   0.18074   0.76416   0.00000  Uiso   1.00
N616   N     0.68426   0.15259   0.73584   0.00000  Uiso   1.00
O617   O     0.79464   0.23807   0.74633   0.00000  Uiso   1.00
O618   O     0.89524   0.24755   0.75586   0.00000  Uiso   1.00
O619   O     0.75848   0.15960   0.81839   0.00000  Uiso   1.00
O620   O     0.85908   0.16908   0.82793   0.00000  Uiso   1.00
O621   O     0.77142   0.08578   0.74413   0.00000  Uiso   1.00
O622   O     0.87203   0.09526   0.75367   0.00000  Uiso   1.00
O623   O     0.80758   0.16425   0.67207   0.00000  Uiso   1.00
O624   O     0.90819   0.17373   0.68160   0.00000  Uiso   1.00
C625   C     0.67935   0.08748   0.89001   0.00000  Uiso   1.00
H626   H     0.97435   0.05713   0.91222   0.00000  Uiso   1.00
H627   H     0.99000   0.11280   0.87181   0.00000  Uiso   1.00
H628   H     0.70830   0.06635   0.85980   0.00000  Uiso   1.00
C629   C     0.70815   0.13431   0.56790   0.00000  Uiso   1.00
H630   H     0.70989   0.09643   0.58357   0.00000  Uiso   1.00
H631   H     0.72925   0.16846   0.59047   0.00000  Uiso   1.00
H632   H     0.99101   0.13527   0.57349   0.00000  Uiso   1.00
C633   C     0.86195   0.27014   0.88294   0.00000  Uiso   1.00
H634   H     0.90312   0.26898   0.85086   0.00000  Uiso   1.00
H635   H     0.81765   0.26125   0.86857   0.00000  Uiso   1.00
H636   H     0.86691   0.31126   0.89850   0.00000  Uiso   1.00
C637   C     0.18182   0.60008   0.75146   0.00000  Uiso   1.00
C638   C     0.13328   0.50288   0.99075   0.00000  Uiso   1.00
C639   C     0.14568   0.52083   0.93915   0.00000  Uiso   1.00
C640   C     0.18157   0.51893   0.51961   0.00000  Uiso   1.00
C641   C     0.23410   0.56024   0.50159   0.00000  Uiso   1.00
C642   C     0.23874   0.58465   0.95548   0.00000  Uiso   1.00
C643   C     0.19416   0.56693   0.92497   0.00000  Uiso   1.00
C644   C     0.18051   0.49400   0.56513   0.00000  Uiso   1.00
C645   C     0.27242   0.55782   0.57998   0.00000  Uiso   1.00
C646   C     0.10894   0.49218   0.90434   0.00000  Uiso   1.00
C647   C     0.19024   0.65607   0.75244   0.00000  Uiso   1.00
C648   C     0.13229   0.49632   0.84753   0.00000  Uiso   1.00
C649   C     0.14294   0.34392   0.74799   0.00000  Uiso   1.00
C650   C     0.15148   0.39992   0.74860   0.00000  Uiso   1.00
C651   C     0.20076   0.50423   0.65268   0.00000  Uiso   1.00
C652   C     0.27991   0.57857   0.53134   0.00000  Uiso   1.00
C653   C     0.22140   0.51624   0.59757   0.00000  Uiso   1.00
C654   C     0.05335   0.45400   0.92414   0.00000  Uiso   1.00
C655   C     0.03458   0.44626   0.97723   0.00000  Uiso   1.00
C656   C     0.07253   0.47086   0.51105   0.00000  Uiso   1.00
Cu657  Cu    0.10710   0.49439   0.74435   0.00000  Uiso   1.00
Cu658  Cu    0.22623   0.50561   0.75564   0.00000  Uiso   1.00
H659   H     0.30460   0.57567   0.60463   0.00000  Uiso   1.00
H660   H     0.09741   0.65336   0.74373   0.00000  Uiso   1.00
H661   H     0.00344   0.53928   0.78997   0.00000  Uiso   1.00
H662   H     0.32989   0.46072   0.71003   0.00000  Uiso   1.00
H663   H     0.27645   0.61889   0.94376   0.00000  Uiso   1.00
H664   H     0.31957   0.61088   0.51824   0.00000  Uiso   1.00
H665   H     0.14674   0.45809   0.57733   0.00000  Uiso   1.00
H666   H     0.32283   0.42044   0.99274   0.00000  Uiso   1.00
H667   H     0.23574   0.34662   0.75679   0.00000  Uiso   1.00
N668   N     0.31574   0.51407   0.76416   0.00000  Uiso   1.00
N669   N     0.01759   0.48593   0.73584   0.00000  Uiso   1.00
O670   O     0.12797   0.57141   0.74633   0.00000  Uiso   1.00
O671   O     0.22858   0.58089   0.75586   0.00000  Uiso   1.00
O672   O     0.09181   0.49293   0.81839   0.00000  Uiso   1.00
O673   O     0.19242   0.50241   0.82793   0.00000  Uiso   1.00
O674   O     0.10476   0.41911   0.74413   0.00000  Uiso   1.00
O675   O     0.20536   0.42859   0.75367   0.00000  Uiso   1.00
O676   O     0.14092   0.49759   0.67207   0.00000  Uiso   1.00
O677   O     0.24152   0.50707   0.68160   0.00000  Uiso   1.00
C678   C     0.01268   0.42082   0.89001   0.00000  Uiso   1.00
H679   H     0.30768   0.39046   0.91222   0.00000  Uiso   1.00
H680   H     0.32333   0.44613   0.87181   0.00000  Uiso   1.00
H681   H     0.04164   0.39968   0.85980   0.00000  Uiso   1.00
C682   C     0.04148   0.46764   0.56790   0.00000  Uiso   1.00
H683   H     0.04322   0.42976   0.58357   0.00000  Uiso   1.00
H684   H     0.06258   0.50179   0.59047   0.00000  Uiso   1.00
H685   H     0.32434   0.46861   0.57349   0.00000  Uiso   1.00
C686   C     0.19529   0.60347   0.88294   0.00000  Uiso   1.00
H687   H     0.23645   0.60231   0.85086   0.00000  Uiso   1.00
H688   H     0.15098   0.59458   0.86857   0.00000  Uiso   1.00
H689   H     0.20025   0.64460   0.89850   0.00000  Uiso   1.00
C690   C     0.51516   0.60008   0.75146   0.00000  Uiso   1.00
C691   C     0.46661   0.50288   0.99075   0.00000  Uiso   1.00
C692   C     0.47901   0.52083   0.93915   0.00000  Uiso   1.00
C693   C     0.51490   0.51893   0.51961   0.00000  Uiso   1.00
C694   C     0.56743   0.56024   0.50159   0.00000  Uiso   1.00
C695   C     0.57207   0.58465   0.95548   0.00000  Uiso   1.00
C696   C     0.52750   0.56693   0.92497   0.00000  Uiso   1.00
C697   C     0.51384   0.49400   0.56513   0.00000  Uiso   1.00
C698   C     0.60575   0.55782   0.57998   0.00000  Uiso   1.00
C699   C     0.44228   0.49218   0.90434   0.00000  Uiso   1.00
C700   C     0.52357   0.65607   0.75244   0.00000  Uiso   1.00
C701   C     0.46563   0.49632   0.84753   0.00000  Uiso   1.00
C702   C     0.47627   0.34392   0.74799   0.00000  Uiso   1.00
C703   C     0.48482   0.39992   0.74860   0.00000  Uiso   1.00
C704   C     0.53410   0.50423   0.65268   0.00000  Uiso   1.00
C705   C     0.61324   0.57857   0.53134   0.00000  Uiso   1.00
C706   C     0.55473   0.51624   0.59757   0.00000  Uiso   1.00
C707   C     0.38669   0.45400   0.92414   0.00000  Uiso   1.00
C708   C     0.36792   0.44626   0.97723   0.00000  Uiso   1.00
C709   C     0.40587   0.47086   0.51105   0.00000  Uiso   1.00
Cu710  Cu    0.44043   0.49439   0.74435   0.00000  Uiso   1.00
Cu711  Cu    0.55957   0.50561   0.75564   0.00000  Uiso   1.00
H712   H     0.63793   0.57567   0.60463   0.00000  Uiso   1.00
H713   H     0.43074   0.65336   0.74373   0.00000  Uiso   1.00
H714   H     0.33678   0.53928   0.78997   0.00000  Uiso   1.00
H715   H     0.66322   0.46072   0.71003   0.00000  Uiso   1.00
H716   H     0.60978   0.61889   0.94376   0.00000  Uiso   1.00
H717   H     0.65290   0.61088   0.51824   0.00000  Uiso   1.00
H718   H     0.48008   0.45809   0.57733   0.00000  Uiso   1.00
H719   H     0.65616   0.42044   0.99274   0.00000  Uiso   1.00
H720   H     0.56907   0.34662   0.75679   0.00000  Uiso   1.00
N721   N     0.64908   0.51407   0.76416   0.00000  Uiso   1.00
N722   N     0.35092   0.48593   0.73584   0.00000  Uiso   1.00
O723   O     0.46131   0.57141   0.74633   0.00000  Uiso   1.00
O724   O     0.56191   0.58089   0.75586   0.00000  Uiso   1.00
O725   O     0.42515   0.49293   0.81839   0.00000  Uiso   1.00
O726   O     0.52575   0.50241   0.82793   0.00000  Uiso   1.00
O727   O     0.43809   0.41911   0.74413   0.00000  Uiso   1.00
O728   O     0.53869   0.42859   0.75367   0.00000  Uiso   1.00
O729   O     0.47425   0.49759   0.67207   0.00000  Uiso   1.00
O730   O     0.57485   0.50707   0.68160   0.00000  Uiso   1.00
C731   C     0.34601   0.42082   0.89001   0.00000  Uiso   1.00
H732   H     0.64101   0.39046   0.91222   0.00000  Uiso   1.00
H733   H     0.65667   0.44613   0.87181   0.00000  Uiso   1.00
H734   H     0.37497   0.39968   0.85980   0.00000  Uiso   1.00
C735   C     0.37481   0.46764   0.56790   0.00000  Uiso   1.00
H736   H     0.37656   0.42976   0.58357   0.00000  Uiso   1.00
H737   H     0.39592   0.50179   0.59047   0.00000  Uiso   1.00
H738   H     0.65768   0.46861   0.57349   0.00000  Uiso   1.00
C739   C     0.52862   0.60347   0.88294   0.00000  Uiso   1.00
H740   H     0.56979   0.60231   0.85086   0.00000  Uiso   1.00
H741   H     0.48431   0.59458   0.86857   0.00000  Uiso   1.00
H742   H     0.53358   0.64460   0.89850   0.00000  Uiso   1.00
C743   C     0.84849   0.60008   0.75146   0.00000  Uiso   1.00
C744   C     0.79995   0.50288   0.99075   0.00000  Uiso   1.00
C745   C     0.81234   0.52083   0.93915   0.00000  Uiso   1.00
C746   C     0.84823   0.51893   0.51961   0.00000  Uiso   1.00
C747   C     0.90076   0.56024   0.50159   0.00000  Uiso   1.00
C748   C     0.90541   0.58465   0.95548   0.00000  Uiso   1.00
C749   C     0.86083   0.56693   0.92497   0.00000  Uiso   1.00
C750   C     0.84717   0.49400   0.56513   0.00000  Uiso   1.00
C751   C     0.93909   0.55782   0.57998   0.00000  Uiso   1.00
C752   C     0.77561   0.49218   0.90434   0.00000  Uiso   1.00
C753   C     0.85691   0.65607   0.75244   0.00000  Uiso   1.00
C754   C     0.79896   0.49632   0.84753   0.00000  Uiso   1.00
C755   C     0.80960   0.34392   0.74799   0.00000  Uiso   1.00
C756   C     0.81815   0.39992   0.74860   0.00000  Uiso   1.00
C757   C     0.86743   0.50423   0.65268   0.00000  Uiso   1.00
C758   C     0.94658   0.57857   0.53134   0.00000  Uiso   1.00
C759   C     0.88806   0.51624   0.59757   0.00000  Uiso   1.00
C760   C     0.72002   0.45400   0.92414   0.00000  Uiso   1.00
C761   C     0.70125   0.44626   0.97723   0.00000  Uiso   1.00
C762   C     0.73920   0.47086   0.51105   0.00000  Uiso   1.00
Cu763  Cu    0.77377   0.49439   0.74435   0.00000  Uiso   1.00
Cu764  Cu    0.89290   0.50561   0.75564   0.00000  Uiso   1.00
H765   H     0.97127   0.57567   0.60463   0.00000  Uiso   1.00
H766   H     0.76408   0.65336   0.74373   0.00000  Uiso   1.00
H767   H     0.67011   0.53928   0.78997   0.00000  Uiso   1.00
H768   H     0.99655   0.46072   0.71003   0.00000  Uiso   1.00
H769   H     0.94311   0.61889   0.94376   0.00000  Uiso   1.00
H770   H     0.98624   0.61088   0.51824   0.00000  Uiso   1.00
H771   H     0.81341   0.45809   0.57733   0.00000  Uiso   1.00
H772   H     0.98949   0.42044   0.99274   0.00000  Uiso   1.00
H773   H     0.90241   0.34662   0.75679   0.00000  Uiso   1.00
N774   N     0.98241   0.51407   0.76416   0.00000  Uiso   1.00
N775   N     0.68426   0.48593   0.73584   0.00000  Uiso   1.00
O776   O     0.79464   0.57141   0.74633   0.00000  Uiso   1.00
O777   O     0.89524   0.58089   0.75586   0.00000  Uiso   1.00
O778   O     0.75848   0.49293   0.81839   0.00000  Uiso   1.00
O779   O     0.85908   0.50241   0.82793   0.00000  Uiso   1.00
O780   O     0.77142   0.41911   0.74413   0.00000  Uiso   1.00
O781   O     0.87203   0.42859   0.75367   0.00000  Uiso   1.00
O782   O     0.80758   0.49759   0.67207   0.00000  Uiso   1.00
O783   O     0.90819   0.50707   0.68160   0.00000  Uiso   1.00
C784   C     0.67935   0.42082   0.89001   0.00000  Uiso   1.00
H785   H     0.97435   0.39046   0.91222   0.00000  Uiso   1.00
H786   H     0.99000   0.44613   0.87181   0.00000  Uiso   1.00
H787   H     0.70830   0.39968   0.85980   0.00000  Uiso   1.00
C788   C     0.70815   0.46764   0.56790   0.00000  Uiso   1.00
H789   H     0.70989   0.42976   0.58357   0.00000  Uiso   1.00
H790   H     0.72925   0.50179   0.59047   0.00000  Uiso   1.00
H791   H     0.99101   0.46861   0.57349   0.00000  Uiso   1.00
C792   C     0.86195   0.60347   0.88294   0.00000  Uiso   1.00
H793   H     0.90312   0.60231   0.85086   0.00000  Uiso   1.00
H794   H     0.81765   0.59458   0.86857   0.00000  Uiso   1.00
H795   H     0.86691   0.64460   0.89850   0.00000  Uiso   1.00
C796   C     0.18182   0.93341   0.75146   0.00000  Uiso   1.00
C797   C     0.13328   0.83621   0.99075   0.00000  Uiso   1.00
C798   C     0.14568   0.85416   0.93915   0.00000  Uiso   1.00
C799   C     0.18157   0.85226   0.51961   0.00000  Uiso   1.00
C800   C     0.23410   0.89358   0.50159   0.00000  Uiso   1.00
C801   C     0.23874   0.91798   0.95548   0.00000  Uiso   1.00
C802   C     0.19416   0.90027   0.92497   0.00000  Uiso   1.00
C803   C     0.18051   0.82734   0.56513   0.00000  Uiso   1.00
C804   C     0.27242   0.89115   0.57998   0.00000  Uiso   1.00
C805   C     0.10894   0.82552   0.90434   0.00000  Uiso   1.00
C806   C     0.19024   0.98940   0.75244   0.00000  Uiso   1.00
C807   C     0.13229   0.82965   0.84753   0.00000  Uiso   1.00
C808   C     0.14294   0.67726   0.74799   0.00000  Uiso   1.00
C809   C     0.15148   0.73325   0.74860   0.00000  Uiso   1.00
C810   C     0.20076   0.83756   0.65268   0.00000  Uiso   1.00
C811   C     0.27991   0.91190   0.53134   0.00000  Uiso   1.00
C812   C     0.22140   0.84958   0.59757   0.00000  Uiso   1.00
C813   C     0.05335   0.78733   0.92414   0.00000  Uiso   1.00
C814   C     0.03458   0.77959   0.97723   0.00000  Uiso   1.00
C815   C     0.07253   0.80419   0.51105   0.00000  Uiso   1.00
Cu816  Cu    0.10710   0.82772   0.74435   0.00000  Uiso   1.00
Cu817  Cu    0.22623   0.83895   0.75564   0.00000  Uiso   1.00
H818   H     0.30460   0.90901   0.60463   0.00000  Uiso   1.00
H819   H     0.09741   0.98670   0.74373   0.00000  Uiso   1.00
H820   H     0.00344   0.87261   0.78997   0.00000  Uiso   1.00
H821   H     0.32989   0.79406   0.71003   0.00000  Uiso   1.00
H822   H     0.27645   0.95222   0.94376   0.00000  Uiso   1.00
H823   H     0.31957   0.94422   0.51824   0.00000  Uiso   1.00
H824   H     0.14674   0.79142   0.57733   0.00000  Uiso   1.00
H825   H     0.32283   0.75378   0.99274   0.00000  Uiso   1.00
H826   H     0.23574   0.67996   0.75679   0.00000  Uiso   1.00
N827   N     0.31574   0.84741   0.76416   0.00000  Uiso   1.00
N828   N     0.01759   0.81926   0.73584   0.00000  Uiso   1.00
O829   O     0.12797   0.90474   0.74633   0.00000  Uiso   1.00
O830   O     0.22858   0.91422   0.75586   0.00000  Uiso   1.00
O831   O     0.09181   0.82627   0.81839   0.00000  Uiso   1.00
O832   O     0.19242   0.83575   0.82793   0.00000  Uiso   1.00
O833   O     0.10476   0.75245   0.74413   0.00000  Uiso   1.00
O834   O     0.20536   0.76193   0.75367   0.00000  Uiso   1.00
O835   O     0.14092   0.83092   0.67207   0.00000  Uiso   1.00
O836   O     0.24152   0.84040   0.68160   0.00000  Uiso   1.00
C837   C     0.01268   0.75415   0.89001   0.00000  Uiso   1.00
H838   H     0.30768   0.72379   0.91222   0.00000  Uiso   1.00
H839   H     0.32333   0.77947   0.87181   0.00000  Uiso   1.00
H840   H     0.04164   0.73301   0.85980   0.00000  Uiso   1.00
C841   C     0.04148   0.80097   0.56790   0.00000  Uiso   1.00
H842   H     0.04322   0.76309   0.58357   0.00000  Uiso   1.00
H843   H     0.06258   0.83512   0.59047   0.00000  Uiso   1.00
H844   H     0.32434   0.80194   0.57349   0.00000  Uiso   1.00
C845   C     0.19529   0.93681   0.88294   0.00000  Uiso   1.00
H846   H     0.23645   0.93564   0.85086   0.00000  Uiso   1.00
H847   H     0.15098   0.92791   0.86857   0.00000  Uiso   1.00
H848   H     0.20025   0.97793   0.89850   0.00000  Uiso   1.00
C849   C     0.51516   0.93341   0.75146   0.00000  Uiso   1.00
C850   C     0.46661   0.83621   0.99075   0.00000  Uiso   1.00
C851   C     0.47901   0.85416   0.93915   0.00000  Uiso   1.00
C852   C     0.51490   0.85226   0.51961   0.00000  Uiso   1.00
C853   C     0.56743   0.89358   0.50159   0.00000  Uiso   1.00
C854   C     0.57207   0.91798   0.95548   0.00000  Uiso   1.00
C855   C     0.52750   0.90027   0.92497   0.00000  Uiso   1.00
C856   C     0.51384   0.82734   0.56513   0.00000  Uiso   1.00
C857   C     0.60575   0.89115   0.57998   0.00000  Uiso   1.00
C858   C     0.44228   0.82552   0.90434   0.00000  Uiso   1.00
C859   C     0.52357   0.98940   0.75244   0.00000  Uiso   1.00
C860   C     0.46563   0.82965   0.84753   0.00000  Uiso   1.00
C861   C     0.47627   0.67726   0.74799   0.00000  Uiso   1.00
C862   C     0.48482   0.73325   0.74860   0.00000  Uiso   1.00
C863   C     0.53410   0.83756   0.65268   0.00000  Uiso   1.00
C864   C     0.61324   0.91190   0.53134   0.00000  Uiso   1.00
C865   C     0.55473   0.84958   0.59757   0.00000  Uiso   1.00
C866   C     0.38669   0.78733   0.92414   0.00000  Uiso   1.00
C867   C     0.36792   0.77959   0.97723   0.00000  Uiso   1.00
C868   C     0.40587   0.80419   0.51105   0.00000  Uiso   1.00
Cu869  Cu    0.44043   0.82772   0.74435   0.00000  Uiso   1.00
Cu870  Cu    0.55957   0.83895   0.75564   0.00000  Uiso   1.00
H871   H     0.63793   0.90901   0.60463   0.00000  Uiso   1.00
H872   H     0.43074   0.98670   0.74373   0.00000  Uiso   1.00
H873   H     0.33678   0.87261   0.78997   0.00000  Uiso   1.00
H874   H     0.66322   0.79406   0.71003   0.00000  Uiso   1.00
H875   H     0.60978   0.95222   0.94376   0.00000  Uiso   1.00
H876   H     0.65290   0.94422   0.51824   0.00000  Uiso   1.00
H877   H     0.48008   0.79142   0.57733   0.00000  Uiso   1.00
H878   H     0.65616   0.75378   0.99274   0.00000  Uiso   1.00
H879   H     0.56907   0.67996   0.75679   0.00000  Uiso   1.00
N880   N     0.64908   0.84741   0.76416   0.00000  Uiso   1.00
N881   N     0.35092   0.81926   0.73584   0.00000  Uiso   1.00
O882   O     0.46131   0.90474   0.74633   0.00000  Uiso   1.00
O883   O     0.56191   0.91422   0.75586   0.00000  Uiso   1.00
O884   O     0.42515   0.82627   0.81839   0.00000  Uiso   1.00
O885   O     0.52575   0.83575   0.82793   0.00000  Uiso   1.00
O886   O     0.43809   0.75245   0.74413   0.00000  Uiso   1.00
O887   O     0.53869   0.76193   0.75367   0.00000  Uiso   1.00
O888   O     0.47425   0.83092   0.67207   0.00000  Uiso   1.00
O889   O     0.57485   0.84040   0.68160   0.00000  Uiso   1.00
C890   C     0.34601   0.75415   0.89001   0.00000  Uiso   1.00
H891   H     0.64101   0.72379   0.91222   0.00000  Uiso   1.00
H892   H     0.65667   0.77947   0.87181   0.00000  Uiso   1.00
H893   H     0.37497   0.73301   0.85980   0.00000  Uiso   1.00
C894   C     0.37481   0.80097   0.56790   0.00000  Uiso   1.00
H895   H     0.37656   0.76309   0.58357   0.00000  Uiso   1.00
H896   H     0.39592   0.83512   0.59047   0.00000  Uiso   1.00
H897   H     0.65768   0.80194   0.57349   0.00000  Uiso   1.00
C898   C     0.52862   0.93681   0.88294   0.00000  Uiso   1.00
H899   H     0.56979   0.93564   0.85086   0.00000  Uiso   1.00
H900   H     0.48431   0.92791   0.86857   0.00000  Uiso   1.00
H901   H     0.53358   0.97793   0.89850   0.00000  Uiso   1.00
C902   C     0.84849   0.93341   0.75146   0.00000  Uiso   1.00
C903   C     0.79995   0.83621   0.99075   0.00000  Uiso   1.00
C904   C     0.81234   0.85416   0.93915   0.00000  Uiso   1.00
C905   C     0.84823   0.85226   0.51961   0.00000  Uiso   1.00
C906   C     0.90076   0.89358   0.50159   0.00000  Uiso   1.00
C907   C     0.90541   0.91798   0.95548   0.00000  Uiso   1.00
C908   C     0.86083   0.90027   0.92497   0.00000  Uiso   1.00
C909   C     0.84717   0.82734   0.56513   0.00000  Uiso   1.00
C910   C     0.93909   0.89115   0.57998   0.00000  Uiso   1.00
C911   C     0.77561   0.82552   0.90434   0.00000  Uiso   1.00
C912   C     0.85691   0.98940   0.75244   0.00000  Uiso   1.00
C913   C     0.79896   0.82965   0.84753   0.00000  Uiso   1.00
C914   C     0.80960   0.67726   0.74799   0.00000  Uiso   1.00
C915   C     0.81815   0.73325   0.74860   0.00000  Uiso   1.00
C916   C     0.86743   0.83756   0.65268   0.00000  Uiso   1.00
C917   C     0.94658   0.91190   0.53134   0.00000  Uiso   1.00
C918   C     0.88806   0.84958   0.59757   0.00000  Uiso   1.00
C919   C     0.72002   0.78733   0.92414   0.00000  Uiso   1.00
C920   C     0.70125   0.77959   0.97723   0.00000  Uiso   1.00
C921   C     0.73920   0.80419   0.51105   0.00000  Uiso   1.00
Cu922  Cu    0.77377   0.82772   0.74435   0.00000  Uiso   1.00
Cu923  Cu    0.89290   0.83895   0.75564   0.00000  Uiso   1.00
H924   H     0.97127   0.90901   0.60463   0.00000  Uiso   1.00
H925   H     0.76408   0.98670   0.74373   0.00000  Uiso   1.00
H926   H     0.67011   0.87261   0.78997   0.00000  Uiso   1.00
H927   H     0.99655   0.79406   0.71003   0.00000  Uiso   1.00
H928   H     0.94311   0.95222   0.94376   0.00000  Uiso   1.00
H929   H     0.98624   0.94422   0.51824   0.00000  Uiso   1.00
H930   H     0.81341   0.79142   0.57733   0.00000  Uiso   1.00
H931   H     0.98949   0.75378   0.99274   0.00000  Uiso   1.00
H932   H     0.90241   0.67996   0.75679   0.00000  Uiso   1.00
N933   N     0.98241   0.84741   0.76416   0.00000  Uiso   1.00
N934   N     0.68426   0.81926   0.73584   0.00000  Uiso   1.00
O935   O     0.79464   0.90474   0.74633   0.00000  Uiso   1.00
O936   O     0.89524   0.91422   0.75586   0.00000  Uiso   1.00
O937   O     0.75848   0.82627   0.81839   0.00000  Uiso   1.00
O938   O     0.85908   0.83575   0.82793   0.00000  Uiso   1.00
O939   O     0.77142   0.75245   0.74413   0.00000  Uiso   1.00
O940   O     0.87203   0.76193   0.75367   0.00000  Uiso   1.00
O941   O     0.80758   0.83092   0.67207   0.00000  Uiso   1.00
O942   O     0.90819   0.84040   0.68160   0.00000  Uiso   1.00
C943   C     0.67935   0.75415   0.89001   0.00000  Uiso   1.00
H944   H     0.97435   0.72379   0.91222   0.00000  Uiso   1.00
H945   H     0.99000   0.77947   0.87181   0.00000  Uiso   1.00
H946   H     0.70830   0.73301   0.85980   0.00000  Uiso   1.00
C947   C     0.70815   0.80097   0.56790   0.00000  Uiso   1.00
H948   H     0.70989   0.76309   0.58357   0.00000  Uiso   1.00
H949   H     0.72925   0.83512   0.59047   0.00000  Uiso   1.00
H950   H     0.99101   0.80194   0.57349   0.00000  Uiso   1.00
C951   C     0.86195   0.93681   0.88294   0.00000  Uiso   1.00
H952   H     0.90312   0.93564   0.85086   0.00000  Uiso   1.00
H953   H     0.81765   0.92791   0.86857   0.00000  Uiso   1.00
H954   H     0.86691   0.97793   0.89850   0.00000  Uiso   1.00
loop_
_geom_bond_atom_site_label_1
_geom_bond_atom_site_label_2
_geom_bond_distance
_geom_bond_site_symmetry_2
_ccdc_geom_bond_type
C1     C11     1.427   .     S
C1     O34     1.291   .     A
C1     O35     1.286   .     A
C2     C3      1.426   .     A
C2     C481    1.428   .     S
C2     C497    1.429   .     S
C3     C10     1.429   .     A
C3     C7      1.429   .     A
C4     C8      1.404   .     A
C4     C5      1.416   .     A
C4     C479    1.428   1_554 S
C5     C16     1.407   .     A
C5     C483    1.391   1_554 S
C6     C7      1.398   .     A
C6     H27     1.086   .     S
C6     C482    1.391   .     S
C7     C50     1.509   .     S
C8     C17     1.395   .     A
C8     H29     1.076   .     S
C9     C17     1.398   .     A
C9     C16     1.395   .     A
C9     H23     1.083   .     S
C10    C18     1.421   .     A
C10    C12     1.484   .     S
C11    C172    1.329   .     S
C11    H190    1.088   .     S
C12    O36     1.299   .     A
C12    O37     1.303   .     A
C13    C14     1.427   .     S
C13    C329    1.329   1_545 S
C13    H342    1.088   1_545 S
C14    O38     1.286   .     A
C14    O39     1.291   .     A
C15    O41     1.302   .     A
C15    O40     1.295   .     A
C15    C17     1.465   .     S
C16    H28     1.084   .     S
C18    C42     1.513   .     S
C18    C19     1.392   .     A
C19    C497    1.394   .     S
C19    H136    1.085   1_455 S
C20    C46     1.512   .     S
C20    C479    1.429   1_554 S
C20    C496    1.394   1_554 S
Cu21   O36     1.919   .     S
Cu21   O40     1.898   .     S
Cu21   N33     2.020   .     S
Cu21   O34     1.954   .     S
Cu21   Cu22    2.688   .     S
Cu21   O38     1.950   .     S
Cu22   O37     1.898   .     S
Cu22   N32     2.020   .     S
Cu22   O35     1.950   .     S
Cu22   O39     1.954   .     S
Cu22   O41     1.919   .     S
H24    C172    1.088   .     S
H25    N138    1.029   1_455 S
H26    N86     1.029   .     S
H30    C72     1.085   .     S
H31    C329    1.088   1_545 S
N32    H78     1.029   .     S
N32    N86     1.282   .     S
N33    N138    1.282   1_455 S
N33    H132    1.029   1_455 S
C42    H45     1.111   .     S
C42    H149    1.111   1_455 S
C42    H150    1.110   1_455 S
H43    C95     1.111   .     S
H44    C95     1.110   .     S
C46    H48     1.110   .     S
C46    H47     1.110   .     S
C46    H155    1.108   1_455 S
H49    C99     1.108   .     S
C50    H52     1.108   .     S
C50    H51     1.109   .     S
C50    H53     1.111   .     S
C54    C64     1.427   .     S
C54    O87     1.291   .     A
C54    O88     1.286   .     A
C55    C56     1.426   .     A
C55    C534    1.428   .     S
C55    C550    1.429   .     S
C56    C63     1.429   .     A
C56    C60     1.429   .     A
C57    C61     1.404   .     A
C57    C58     1.416   .     A
C57    C532    1.428   1_554 S
C58    C69     1.407   .     A
C58    C536    1.391   1_554 S
C59    C60     1.398   .     A
C59    H80     1.086   .     S
C59    C535    1.391   .     S
C60    C103    1.509   .     S
C61    C70     1.395   .     A
C61    H82     1.076   .     S
C62    C70     1.398   .     A
C62    C69     1.395   .     A
C62    H76     1.083   .     S
C63    C71     1.421   .     A
C63    C65     1.484   .     S
C64    C225    1.329   .     S
C64    H243    1.088   .     S
C65    O89     1.299   .     A
C65    O90     1.303   .     A
C66    C67     1.427   .     S
C66    C382    1.329   1_545 S
C66    H395    1.088   1_545 S
C67    O91     1.286   .     A
C67    O92     1.291   .     A
C68    O94     1.302   .     A
C68    O93     1.295   .     A
C68    C70     1.465   .     S
C69    H81     1.084   .     S
C71    C95     1.513   .     S
C71    C72     1.392   .     A
C72    C550    1.394   .     S
C73    C99     1.512   .     S
C73    C532    1.429   1_554 S
C73    C549    1.394   1_554 S
Cu74   O89     1.919   .     S
Cu74   O93     1.898   .     S
Cu74   N86     2.020   .     S
Cu74   O87     1.954   .     S
Cu74   Cu75    2.688   .     S
Cu74   O91     1.950   .     S
Cu75   O90     1.898   .     S
Cu75   N85     2.020   .     S
Cu75   O88     1.950   .     S
Cu75   O92     1.954   .     S
Cu75   O94     1.919   .     S
H77    C225    1.088   .     S
H79    N139    1.029   .     S
H83    C125    1.085   .     S
H84    C382    1.088   1_545 S
N85    H131    1.029   .     S
N85    N139    1.282   .     S
C95    H98     1.111   .     S
H96    C148    1.111   .     S
H97    C148    1.110   .     S
C99    H101    1.110   .     S
C99    H100    1.110   .     S
H102   C152    1.108   .     S
C103   H105    1.108   .     S
C103   H104    1.109   .     S
C103   H106    1.111   .     S
C107   C117    1.427   .     S
C107   O140    1.291   .     A
C107   O141    1.286   .     A
C108   C109    1.426   .     A
C108   C587    1.428   .     S
C108   C603    1.429   .     S
C109   C116    1.429   .     A
C109   C113    1.429   .     A
C110   C114    1.404   .     A
C110   C111    1.416   .     A
C110   C585    1.428   1_554 S
C111   C122    1.407   .     A
C111   C589    1.391   1_554 S
C112   C113    1.398   .     A
C112   H133    1.086   .     S
C112   C588    1.391   .     S
C113   C156    1.509   .     S
C114   C123    1.395   .     A
C114   H135    1.076   .     S
C115   C123    1.398   .     A
C115   C122    1.395   .     A
C115   H129    1.083   .     S
C116   C124    1.421   .     A
C116   C118    1.484   .     S
C117   C278    1.329   .     S
C117   H296    1.088   .     S
C118   O142    1.299   .     A
C118   O143    1.303   .     A
C119   C120    1.427   .     S
C119   C435    1.329   1_545 S
C119   H448    1.088   1_545 S
C120   O144    1.286   .     A
C120   O145    1.291   .     A
C121   O147    1.302   .     A
C121   O146    1.295   .     A
C121   C123    1.465   .     S
C122   H134    1.084   .     S
C124   C148    1.513   .     S
C124   C125    1.392   .     A
C125   C603    1.394   .     S
C126   C152    1.512   .     S
C126   C585    1.429   1_554 S
C126   C602    1.394   1_554 S
Cu127  O142    1.919   .     S
Cu127  O146    1.898   .     S
Cu127  N139    2.020   .     S
Cu127  O140    1.954   .     S
Cu127  Cu128   2.688   .     S
Cu127  O144    1.950   .     S
Cu128  O143    1.898   .     S
Cu128  N138    2.020   .     S
Cu128  O141    1.950   .     S
Cu128  O145    1.954   .     S
Cu128  O147    1.919   .     S
H130   C278    1.088   .     S
H132   N33     1.029   1_655 S
H136   C19     1.085   1_655 S
H137   C435    1.088   1_545 S
N138   H25     1.029   1_655 S
N138   N33     1.282   1_655 S
C148   H151    1.111   .     S
H149   C42     1.111   1_655 S
H150   C42     1.110   1_655 S
C152   H154    1.110   .     S
C152   H153    1.110   .     S
H155   C46     1.108   1_655 S
C156   H158    1.108   .     S
C156   H157    1.109   .     S
C156   H159    1.111   .     S
C160   C170    1.427   .     S
C160   O193    1.291   .     A
C160   O194    1.286   .     A
C161   C162    1.426   .     A
C161   C640    1.428   .     S
C161   C656    1.429   .     S
C162   C169    1.429   .     A
C162   C166    1.429   .     A
C163   C167    1.404   .     A
C163   C164    1.416   .     A
C163   C638    1.428   1_554 S
C164   C175    1.407   .     A
C164   C642    1.391   1_554 S
C165   C166    1.398   .     A
C165   H186    1.086   .     S
C165   C641    1.391   .     S
C166   C209    1.509   .     S
C167   C176    1.395   .     A
C167   H188    1.076   .     S
C168   C176    1.398   .     A
C168   C175    1.395   .     A
C168   H182    1.083   .     S
C169   C177    1.421   .     A
C169   C171    1.484   .     S
C170   C331    1.329   .     S
C170   H349    1.088   .     S
C171   O195    1.299   .     A
C171   O196    1.303   .     A
C172   C173    1.427   .     S
C173   O197    1.286   .     A
C173   O198    1.291   .     A
C174   O200    1.302   .     A
C174   O199    1.295   .     A
C174   C176    1.465   .     S
C175   H187    1.084   .     S
C177   C201    1.513   .     S
C177   C178    1.392   .     A
C178   C656    1.394   .     S
C178   H295    1.085   1_455 S
C179   C205    1.512   .     S
C179   C638    1.429   1_554 S
C179   C655    1.394   1_554 S
Cu180  O195    1.919   .     S
Cu180  O199    1.898   .     S
Cu180  N192    2.020   .     S
Cu180  O193    1.954   .     S
Cu180  Cu181   2.688   .     S
Cu180  O197    1.950   .     S
Cu181  O196    1.898   .     S
Cu181  N191    2.020   .     S
Cu181  O194    1.950   .     S
Cu181  O198    1.954   .     S
Cu181  O200    1.919   .     S
H183   C331    1.088   .     S
H184   N297    1.029   1_455 S
H185   N245    1.029   .     S
H189   C231    1.085   .     S
N191   H237    1.029   .     S
N191   N245    1.282   .     S
N192   N297    1.282   1_455 S
N192   H291    1.029   1_455 S
C201   H204    1.111   .     S
C201   H308    1.111   1_455 S
C201   H309    1.110   1_455 S
H202   C254    1.111   .     S
H203   C254    1.110   .     S
C205   H207    1.110   .     S
C205   H206    1.110   .     S
C205   H314    1.108   1_455 S
H208   C258    1.108   .     S
C209   H211    1.108   .     S
C209   H210    1.109   .     S
C209   H212    1.111   .     S
C213   C223    1.427   .     S
C213   O246    1.291   .     A
C213   O247    1.286   .     A
C214   C215    1.426   .     A
C214   C693    1.428   .     S
C214   C709    1.429   .     S
C215   C222    1.429   .     A
C215   C219    1.429   .     A
C216   C220    1.404   .     A
C216   C217    1.416   .     A
C216   C691    1.428   1_554 S
C217   C228    1.407   .     A
C217   C695    1.391   1_554 S
C218   C219    1.398   .     A
C218   H239    1.086   .     S
C218   C694    1.391   .     S
C219   C262    1.509   .     S
C220   C229    1.395   .     A
C220   H241    1.076   .     S
C221   C229    1.398   .     A
C221   C228    1.395   .     A
C221   H235    1.083   .     S
C222   C230    1.421   .     A
C222   C224    1.484   .     S
C223   C384    1.329   .     S
C223   H402    1.088   .     S
C224   O248    1.299   .     A
C224   O249    1.303   .     A
C225   C226    1.427   .     S
C226   O250    1.286   .     A
C226   O251    1.291   .     A
C227   O253    1.302   .     A
C227   O252    1.295   .     A
C227   C229    1.465   .     S
C228   H240    1.084   .     S
C230   C254    1.513   .     S
C230   C231    1.392   .     A
C231   C709    1.394   .     S
C232   C258    1.512   .     S
C232   C691    1.429   1_554 S
C232   C708    1.394   1_554 S
Cu233  O248    1.919   .     S
Cu233  O252    1.898   .     S
Cu233  N245    2.020   .     S
Cu233  O246    1.954   .     S
Cu233  Cu234   2.688   .     S
Cu233  O250    1.950   .     S
Cu234  O249    1.898   .     S
Cu234  N244    2.020   .     S
Cu234  O247    1.950   .     S
Cu234  O251    1.954   .     S
Cu234  O253    1.919   .     S
H236   C384    1.088   .     S
H238   N298    1.029   .     S
H242   C284    1.085   .     S
N244   H290    1.029   .     S
N244   N298    1.282   .     S
C254   H257    1.111   .     S
H255   C307    1.111   .     S
H256   C307    1.110   .     S
C258   H260    1.110   .     S
C258   H259    1.110   .     S
H261   C311    1.108   .     S
C262   H264    1.108   .     S
C262   H263    1.109   .     S
C262   H265    1.111   .     S
C266   C276    1.427   .     S
C266   O299    1.291   .     A
C266   O300    1.286   .     A
C267   C268    1.426   .     A
C267   C746    1.428   .     S
C267   C762    1.429   .     S
C268   C275    1.429   .     A
C268   C272    1.429   .     A
C269   C273    1.404   .     A
C269   C270    1.416   .     A
C269   C744    1.428   1_554 S
C270   C281    1.407   .     A
C270   C748    1.391   1_554 S
C271   C272    1.398   .     A
C271   H292    1.086   .     S
C271   C747    1.391   .     S
C272   C315    1.509   .     S
C273   C282    1.395   .     A
C273   H294    1.076   .     S
C274   C282    1.398   .     A
C274   C281    1.395   .     A
C274   H288    1.083   .     S
C275   C283    1.421   .     A
C275   C277    1.484   .     S
C276   C437    1.329   .     S
C276   H455    1.088   .     S
C277   O301    1.299   .     A
C277   O302    1.303   .     A
C278   C279    1.427   .     S
C279   O303    1.286   .     A
C279   O304    1.291   .     A
C280   O306    1.302   .     A
C280   O305    1.295   .     A
C280   C282    1.465   .     S
C281   H293    1.084   .     S
C283   C307    1.513   .     S
C283   C284    1.392   .     A
C284   C762    1.394   .     S
C285   C311    1.512   .     S
C285   C744    1.429   1_554 S
C285   C761    1.394   1_554 S
Cu286  O301    1.919   .     S
Cu286  O305    1.898   .     S
Cu286  N298    2.020   .     S
Cu286  O299    1.954   .     S
Cu286  Cu287   2.688   .     S
Cu286  O303    1.950   .     S
Cu287  O302    1.898   .     S
Cu287  N297    2.020   .     S
Cu287  O300    1.950   .     S
Cu287  O304    1.954   .     S
Cu287  O306    1.919   .     S
H289   C437    1.088   .     S
H291   N192    1.029   1_655 S
H295   C178    1.085   1_655 S
N297   H184    1.029   1_655 S
N297   N192    1.282   1_655 S
C307   H310    1.111   .     S
H308   C201    1.111   1_655 S
H309   C201    1.110   1_655 S
C311   H313    1.110   .     S
C311   H312    1.110   .     S
H314   C205    1.108   1_655 S
C315   H317    1.108   .     S
C315   H316    1.109   .     S
C315   H318    1.111   .     S
C319   C329    1.427   .     S
C319   O352    1.291   .     A
C319   O353    1.286   .     A
C320   C321    1.426   .     A
C320   C799    1.428   .     S
C320   C815    1.429   .     S
C321   C328    1.429   .     A
C321   C325    1.429   .     A
C322   C326    1.404   .     A
C322   C323    1.416   .     A
C322   C797    1.428   1_554 S
C323   C334    1.407   .     A
C323   C801    1.391   1_554 S
C324   C325    1.398   .     A
C324   H345    1.086   .     S
C324   C800    1.391   .     S
C325   C368    1.509   .     S
C326   C335    1.395   .     A
C326   H347    1.076   .     S
C327   C335    1.398   .     A
C327   C334    1.395   .     A
C327   H341    1.083   .     S
C328   C336    1.421   .     A
C328   C330    1.484   .     S
C329   C13     1.329   1_565 S
C329   H31     1.088   1_565 S
C330   O354    1.299   .     A
C330   O355    1.303   .     A
C331   C332    1.427   .     S
C332   O356    1.286   .     A
C332   O357    1.291   .     A
C333   O359    1.302   .     A
C333   O358    1.295   .     A
C333   C335    1.465   .     S
C334   H346    1.084   .     S
C336   C360    1.513   .     S
C336   C337    1.392   .     A
C337   C815    1.394   .     S
C337   H454    1.085   1_455 S
C338   C364    1.512   .     S
C338   C797    1.429   1_554 S
C338   C814    1.394   1_554 S
Cu339  O354    1.919   .     S
Cu339  O358    1.898   .     S
Cu339  N351    2.020   .     S
Cu339  O352    1.954   .     S
Cu339  Cu340   2.688   .     S
Cu339  O356    1.950   .     S
Cu340  O355    1.898   .     S
Cu340  N350    2.020   .     S
Cu340  O353    1.950   .     S
Cu340  O357    1.954   .     S
Cu340  O359    1.919   .     S
H342   C13     1.088   1_565 S
H343   N456    1.029   1_455 S
H344   N404    1.029   .     S
H348   C390    1.085   .     S
N350   H396    1.029   .     S
N350   N404    1.282   .     S
N351   N456    1.282   1_455 S
N351   H450    1.029   1_455 S
C360   H363    1.111   .     S
C360   H467    1.111   1_455 S
C360   H468    1.110   1_455 S
H361   C413    1.111   .     S
H362   C413    1.110   .     S
C364   H366    1.110   .     S
C364   H365    1.110   .     S
C364   H473    1.108   1_455 S
H367   C417    1.108   .     S
C368   H370    1.108   .     S
C368   H369    1.109   .     S
C368   H371    1.111   .     S
C372   C382    1.427   .     S
C372   O405    1.291   .     A
C372   O406    1.286   .     A
C373   C374    1.426   .     A
C373   C852    1.428   .     S
C373   C868    1.429   .     S
C374   C381    1.429   .     A
C374   C378    1.429   .     A
C375   C379    1.404   .     A
C375   C376    1.416   .     A
C375   C850    1.428   1_554 S
C376   C387    1.407   .     A
C376   C854    1.391   1_554 S
C377   C378    1.398   .     A
C377   H398    1.086   .     S
C377   C853    1.391   .     S
C378   C421    1.509   .     S
C379   C388    1.395   .     A
C379   H400    1.076   .     S
C380   C388    1.398   .     A
C380   C387    1.395   .     A
C380   H394    1.083   .     S
C381   C389    1.421   .     A
C381   C383    1.484   .     S
C382   C66     1.329   1_565 S
C382   H84     1.088   1_565 S
C383   O407    1.299   .     A
C383   O408    1.303   .     A
C384   C385    1.427   .     S
C385   O409    1.286   .     A
C385   O410    1.291   .     A
C386   O412    1.302   .     A
C386   O411    1.295   .     A
C386   C388    1.465   .     S
C387   H399    1.084   .     S
C389   C413    1.513   .     S
C389   C390    1.392   .     A
C390   C868    1.394   .     S
C391   C417    1.512   .     S
C391   C850    1.429   1_554 S
C391   C867    1.394   1_554 S
Cu392  O407    1.919   .     S
Cu392  O411    1.898   .     S
Cu392  N404    2.020   .     S
Cu392  O405    1.954   .     S
Cu392  Cu393   2.688   .     S
Cu392  O409    1.950   .     S
Cu393  O408    1.898   .     S
Cu393  N403    2.020   .     S
Cu393  O406    1.950   .     S
Cu393  O410    1.954   .     S
Cu393  O412    1.919   .     S
H395   C66     1.088   1_565 S
H397   N457    1.029   .     S
H401   C443    1.085   .     S
N403   H449    1.029   .     S
N403   N457    1.282   .     S
C413   H416    1.111   .     S
H414   C466    1.111   .     S
H415   C466    1.110   .     S
C417   H419    1.110   .     S
C417   H418    1.110   .     S
H420   C470    1.108   .     S
C421   H423    1.108   .     S
C421   H422    1.109   .     S
C421   H424    1.111   .     S
C425   C435    1.427   .     S
C425   O458    1.291   .     A
C425   O459    1.286   .     A
C426   C427    1.426   .     A
C426   C905    1.428   .     S
C426   C921    1.429   .     S
C427   C434    1.429   .     A
C427   C431    1.429   .     A
C428   C432    1.404   .     A
C428   C429    1.416   .     A
C428   C903    1.428   1_554 S
C429   C440    1.407   .     A
C429   C907    1.391   1_554 S
C430   C431    1.398   .     A
C430   H451    1.086   .     S
C430   C906    1.391   .     S
C431   C474    1.509   .     S
C432   C441    1.395   .     A
C432   H453    1.076   .     S
C433   C441    1.398   .     A
C433   C440    1.395   .     A
C433   H447    1.083   .     S
C434   C442    1.421   .     A
C434   C436    1.484   .     S
C435   C119    1.329   1_565 S
C435   H137    1.088   1_565 S
C436   O460    1.299   .     A
C436   O461    1.303   .     A
C437   C438    1.427   .     S
C438   O462    1.286   .     A
C438   O463    1.291   .     A
C439   O465    1.302   .     A
C439   O464    1.295   .     A
C439   C441    1.465   .     S
C440   H452    1.084   .     S
C442   C466    1.513   .     S
C442   C443    1.392   .     A
C443   C921    1.394   .     S
C444   C470    1.512   .     S
C444   C903    1.429   1_554 S
C444   C920    1.394   1_554 S
Cu445  O460    1.919   .     S
Cu445  O464    1.898   .     S
Cu445  N457    2.020   .     S
Cu445  O458    1.954   .     S
Cu445  Cu446   2.688   .     S
Cu445  O462    1.950   .     S
Cu446  O461    1.898   .     S
Cu446  N456    2.020   .     S
Cu446  O459    1.950   .     S
Cu446  O463    1.954   .     S
Cu446  O465    1.919   .     S
H448   C119    1.088   1_565 S
H450   N351    1.029   1_655 S
H454   C337    1.085   1_655 S
N456   H343    1.029   1_655 S
N456   N351    1.282   1_655 S
C466   H469    1.111   .     S
H467   C360    1.111   1_655 S
H468   C360    1.110   1_655 S
C470   H472    1.110   .     S
C470   H471    1.110   .     S
H473   C364    1.108   1_655 S
C474   H476    1.108   .     S
C474   H475    1.109   .     S
C474   H477    1.111   .     S
C478   C488    1.427   .     S
C478   O511    1.291   .     A
C478   O512    1.286   .     A
C479   C480    1.426   .     A
C479   C4      1.428   1_556 S
C479   C20     1.429   1_556 S
C480   C487    1.429   .     A
C480   C484    1.429   .     A
C481   C485    1.404   .     A
C481   C482    1.416   .     A
C482   C493    1.407   .     A
C483   C484    1.398   .     A
C483   H504    1.086   .     S
C483   C5      1.391   1_556 S
C484   C527    1.509   .     S
C485   C494    1.395   .     A
C485   H506    1.076   .     S
C486   C494    1.398   .     A
C486   C493    1.395   .     A
C486   H500    1.083   .     S
C487   C495    1.421   .     A
C487   C489    1.484   .     S
C488   C649    1.329   .     S
C488   H667    1.088   .     S
C489   O513    1.299   .     A
C489   O514    1.303   .     A
C490   C491    1.427   .     S
C490   C806    1.329   1_545 S
C490   H819    1.088   1_545 S
C491   O515    1.286   .     A
C491   O516    1.291   .     A
C492   O518    1.302   .     A
C492   O517    1.295   .     A
C492   C494    1.465   .     S
C493   H505    1.084   .     S
C495   C519    1.513   .     S
C495   C496    1.392   .     A
C496   C20     1.394   1_556 S
C496   H613    1.085   1_455 S
C497   C523    1.512   .     S
Cu498  O513    1.919   .     S
Cu498  O517    1.898   .     S
Cu498  N510    2.020   .     S
Cu498  O511    1.954   .     S
Cu498  Cu499   2.688   .     S
Cu498  O515    1.950   .     S
Cu499  O514    1.898   .     S
Cu499  N509    2.020   .     S
Cu499  O512    1.950   .     S
Cu499  O516    1.954   .     S
Cu499  O518    1.919   .     S
H501   C649    1.088   .     S
H502   N615    1.029   1_455 S
H503   N563    1.029   .     S
H507   C549    1.085   .     S
H508   C806    1.088   1_545 S
N509   H555    1.029   .     S
N509   N563    1.282   .     S
N510   N615    1.282   1_455 S
N510   H609    1.029   1_455 S
C519   H522    1.111   .     S
C519   H626    1.111   1_455 S
C519   H627    1.110   1_455 S
H520   C572    1.111   .     S
H521   C572    1.110   .     S
C523   H525    1.110   .     S
C523   H524    1.110   .     S
C523   H632    1.108   1_455 S
H526   C576    1.108   .     S
C527   H529    1.108   .     S
C527   H528    1.109   .     S
C527   H530    1.111   .     S
C531   C541    1.427   .     S
C531   O564    1.291   .     A
C531   O565    1.286   .     A
C532   C533    1.426   .     A
C532   C57     1.428   1_556 S
C532   C73     1.429   1_556 S
C533   C540    1.429   .     A
C533   C537    1.429   .     A
C534   C538    1.404   .     A
C534   C535    1.416   .     A
C535   C546    1.407   .     A
C536   C537    1.398   .     A
C536   H557    1.086   .     S
C536   C58     1.391   1_556 S
C537   C580    1.509   .     S
C538   C547    1.395   .     A
C538   H559    1.076   .     S
C539   C547    1.398   .     A
C539   C546    1.395   .     A
C539   H553    1.083   .     S
C540   C548    1.421   .     A
C540   C542    1.484   .     S
C541   C702    1.329   .     S
C541   H720    1.088   .     S
C542   O566    1.299   .     A
C542   O567    1.303   .     A
C543   C544    1.427   .     S
C543   C859    1.329   1_545 S
C543   H872    1.088   1_545 S
C544   O568    1.286   .     A
C544   O569    1.291   .     A
C545   O571    1.302   .     A
C545   O570    1.295   .     A
C545   C547    1.465   .     S
C546   H558    1.084   .     S
C548   C572    1.513   .     S
C548   C549    1.392   .     A
C549   C73     1.394   1_556 S
C550   C576    1.512   .     S
Cu551  O566    1.919   .     S
Cu551  O570    1.898   .     S
Cu551  N563    2.020   .     S
Cu551  O564    1.954   .     S
Cu551  Cu552   2.688   .     S
Cu551  O568    1.950   .     S
Cu552  O567    1.898   .     S
Cu552  N562    2.020   .     S
Cu552  O565    1.950   .     S
Cu552  O569    1.954   .     S
Cu552  O571    1.919   .     S
H554   C702    1.088   .     S
H556   N616    1.029   .     S
H560   C602    1.085   .     S
H561   C859    1.088   1_545 S
N562   H608    1.029   .     S
N562   N616    1.282   .     S
C572   H575    1.111   .     S
H573   C625    1.111   .     S
H574   C625    1.110   .     S
C576   H578    1.110   .     S
C576   H577    1.110   .     S
H579   C629    1.108   .     S
C580   H582    1.108   .     S
C580   H581    1.109   .     S
C580   H583    1.111   .     S
C584   C594    1.427   .     S
C584   O617    1.291   .     A
C584   O618    1.286   .     A
C585   C586    1.426   .     A
C585   C110    1.428   1_556 S
C585   C126    1.429   1_556 S
C586   C593    1.429   .     A
C586   C590    1.429   .     A
C587   C591    1.404   .     A
C587   C588    1.416   .     A
C588   C599    1.407   .     A
C589   C590    1.398   .     A
C589   H610    1.086   .     S
C589   C111    1.391   1_556 S
C590   C633    1.509   .     S
C591   C600    1.395   .     A
C591   H612    1.076   .     S
C592   C600    1.398   .     A
C592   C599    1.395   .     A
C592   H606    1.083   .     S
C593   C601    1.421   .     A
C593   C595    1.484   .     S
C594   C755    1.329   .     S
C594   H773    1.088   .     S
C595   O619    1.299   .     A
C595   O620    1.303   .     A
C596   C597    1.427   .     S
C596   C912    1.329   1_545 S
C596   H925    1.088   1_545 S
C597   O621    1.286   .     A
C597   O622    1.291   .     A
C598   O624    1.302   .     A
C598   O623    1.295   .     A
C598   C600    1.465   .     S
C599   H611    1.084   .     S
C601   C625    1.513   .     S
C601   C602    1.392   .     A
C602   C126    1.394   1_556 S
C603   C629    1.512   .     S
Cu604  O619    1.919   .     S
Cu604  O623    1.898   .     S
Cu604  N616    2.020   .     S
Cu604  O617    1.954   .     S
Cu604  Cu605   2.688   .     S
Cu604  O621    1.950   .     S
Cu605  O620    1.898   .     S
Cu605  N615    2.020   .     S
Cu605  O618    1.950   .     S
Cu605  O622    1.954   .     S
Cu605  O624    1.919   .     S
H607   C755    1.088   .     S
H609   N510    1.029   1_655 S
H613   C496    1.085   1_655 S
H614   C912    1.088   1_545 S
N615   H502    1.029   1_655 S
N615   N510    1.282   1_655 S
C625   H628    1.111   .     S
H626   C519    1.111   1_655 S
H627   C519    1.110   1_655 S
C629   H631    1.110   .     S
C629   H630    1.110   .     S
H632   C523    1.108   1_655 S
C633   H635    1.108   .     S
C633   H634    1.109   .     S
C633   H636    1.111   .     S
C637   C647    1.427   .     S
C637   O670    1.291   .     A
C637   O671    1.286   .     A
C638   C639    1.426   .     A
C638   C163    1.428   1_556 S
C638   C179    1.429   1_556 S
C639   C646    1.429   .     A
C639   C643    1.429   .     A
C640   C644    1.404   .     A
C640   C641    1.416   .     A
C641   C652    1.407   .     A
C642   C643    1.398   .     A
C642   H663    1.086   .     S
C642   C164    1.391   1_556 S
C643   C686    1.509   .     S
C644   C653    1.395   .     A
C644   H665    1.076   .     S
C645   C653    1.398   .     A
C645   C652    1.395   .     A
C645   H659    1.083   .     S
C646   C654    1.421   .     A
C646   C648    1.484   .     S
C647   C808    1.329   .     S
C647   H826    1.088   .     S
C648   O672    1.299   .     A
C648   O673    1.303   .     A
C649   C650    1.427   .     S
C650   O674    1.286   .     A
C650   O675    1.291   .     A
C651   O677    1.302   .     A
C651   O676    1.295   .     A
C651   C653    1.465   .     S
C652   H664    1.084   .     S
C654   C678    1.513   .     S
C654   C655    1.392   .     A
C655   C179    1.394   1_556 S
C655   H772    1.085   1_455 S
C656   C682    1.512   .     S
Cu657  O672    1.919   .     S
Cu657  O676    1.898   .     S
Cu657  N669    2.020   .     S
Cu657  O670    1.954   .     S
Cu657  Cu658   2.688   .     S
Cu657  O674    1.950   .     S
Cu658  O673    1.898   .     S
Cu658  N668    2.020   .     S
Cu658  O671    1.950   .     S
Cu658  O675    1.954   .     S
Cu658  O677    1.919   .     S
H660   C808    1.088   .     S
H661   N774    1.029   1_455 S
H662   N722    1.029   .     S
H666   C708    1.085   .     S
N668   H714    1.029   .     S
N668   N722    1.282   .     S
N669   N774    1.282   1_455 S
N669   H768    1.029   1_455 S
C678   H681    1.111   .     S
C678   H785    1.111   1_455 S
C678   H786    1.110   1_455 S
H679   C731    1.111   .     S
H680   C731    1.110   .     S
C682   H684    1.110   .     S
C682   H683    1.110   .     S
C682   H791    1.108   1_455 S
H685   C735    1.108   .     S
C686   H688    1.108   .     S
C686   H687    1.109   .     S
C686   H689    1.111   .     S
C690   C700    1.427   .     S
C690   O723    1.291   .     A
C690   O724    1.286   .     A
C691   C692    1.426   .     A
C691   C216    1.428   1_556 S
C691   C232    1.429   1_556 S
C692   C699    1.429   .     A
C692   C696    1.429   .     A
C693   C697    1.404   .     A
C693   C694    1.416   .     A
C694   C705    1.407   .     A
C695   C696    1.398   .     A
C695   H716    1.086   .     S
C695   C217    1.391   1_556 S
C696   C739    1.509   .     S
C697   C706    1.395   .     A
C697   H718    1.076   .     S
C698   C706    1.398   .     A
C698   C705    1.395   .     A
C698   H712    1.083   .     S
C699   C707    1.421   .     A
C699   C701    1.484   .     S
C700   C861    1.329   .     S
C700   H879    1.088   .     S
C701   O725    1.299   .     A
C701   O726    1.303   .     A
C702   C703    1.427   .     S
C703   O727    1.286   .     A
C703   O728    1.291   .     A
C704   O730    1.302   .     A
C704   O729    1.295   .     A
C704   C706    1.465   .     S
C705   H717    1.084   .     S
C707   C731    1.513   .     S
C707   C708    1.392   .     A
C708   C232    1.394   1_556 S
C709   C735    1.512   .     S
Cu710  O725    1.919   .     S
Cu710  O729    1.898   .     S
Cu710  N722    2.020   .     S
Cu710  O723    1.954   .     S
Cu710  Cu711   2.688   .     S
Cu710  O727    1.950   .     S
Cu711  O726    1.898   .     S
Cu711  N721    2.020   .     S
Cu711  O724    1.950   .     S
Cu711  O728    1.954   .     S
Cu711  O730    1.919   .     S
H713   C861    1.088   .     S
H715   N775    1.029   .     S
H719   C761    1.085   .     S
N721   H767    1.029   .     S
N721   N775    1.282   .     S
C731   H734    1.111   .     S
H732   C784    1.111   .     S
H733   C784    1.110   .     S
C735   H737    1.110   .     S
C735   H736    1.110   .     S
H738   C788    1.108   .     S
C739   H741    1.108   .     S
C739   H740    1.109   .     S
C739   H742    1.111   .     S
C743   C753    1.427   .     S
C743   O776    1.291   .     A
C743   O777    1.286   .     A
C744   C745    1.426   .     A
C744   C269    1.428   1_556 S
C744   C285    1.429   1_556 S
C745   C752    1.429   .     A
C745   C749    1.429   .     A
C746   C750    1.404   .     A
C746   C747    1.416   .     A
C747   C758    1.407   .     A
C748   C749    1.398   .     A
C748   H769    1.086   .     S
C748   C270    1.391   1_556 S
C749   C792    1.509   .     S
C750   C759    1.395   .     A
C750   H771    1.076   .     S
C751   C759    1.398   .     A
C751   C758    1.395   .     A
C751   H765    1.083   .     S
C752   C760    1.421   .     A
C752   C754    1.484   .     S
C753   C914    1.329   .     S
C753   H932    1.088   .     S
C754   O778    1.299   .     A
C754   O779    1.303   .     A
C755   C756    1.427   .     S
C756   O780    1.286   .     A
C756   O781    1.291   .     A
C757   O783    1.302   .     A
C757   O782    1.295   .     A
C757   C759    1.465   .     S
C758   H770    1.084   .     S
C760   C784    1.513   .     S
C760   C761    1.392   .     A
C761   C285    1.394   1_556 S
C762   C788    1.512   .     S
Cu763  O778    1.919   .     S
Cu763  O782    1.898   .     S
Cu763  N775    2.020   .     S
Cu763  O776    1.954   .     S
Cu763  Cu764   2.688   .     S
Cu763  O780    1.950   .     S
Cu764  O779    1.898   .     S
Cu764  N774    2.020   .     S
Cu764  O777    1.950   .     S
Cu764  O781    1.954   .     S
Cu764  O783    1.919   .     S
H766   C914    1.088   .     S
H768   N669    1.029   1_655 S
H772   C655    1.085   1_655 S
N774   H661    1.029   1_655 S
N774   N669    1.282   1_655 S
C784   H787    1.111   .     S
H785   C678    1.111   1_655 S
H786   C678    1.110   1_655 S
C788   H790    1.110   .     S
C788   H789    1.110   .     S
H791   C682    1.108   1_655 S
C792   H794    1.108   .     S
C792   H793    1.109   .     S
C792   H795    1.111   .     S
C796   C806    1.427   .     S
C796   O829    1.291   .     A
C796   O830    1.286   .     A
C797   C798    1.426   .     A
C797   C322    1.428   1_556 S
C797   C338    1.429   1_556 S
C798   C805    1.429   .     A
C798   C802    1.429   .     A
C799   C803    1.404   .     A
C799   C800    1.416   .     A
C800   C811    1.407   .     A
C801   C802    1.398   .     A
C801   H822    1.086   .     S
C801   C323    1.391   1_556 S
C802   C845    1.509   .     S
C803   C812    1.395   .     A
C803   H824    1.076   .     S
C804   C812    1.398   .     A
C804   C811    1.395   .     A
C804   H818    1.083   .     S
C805   C813    1.421   .     A
C805   C807    1.484   .     S
C806   C490    1.329   1_565 S
C806   H508    1.088   1_565 S
C807   O831    1.299   .     A
C807   O832    1.303   .     A
C808   C809    1.427   .     S
C809   O833    1.286   .     A
C809   O834    1.291   .     A
C810   O836    1.302   .     A
C810   O835    1.295   .     A
C810   C812    1.465   .     S
C811   H823    1.084   .     S
C813   C837    1.513   .     S
C813   C814    1.392   .     A
C814   C338    1.394   1_556 S
C814   H931    1.085   1_455 S
C815   C841    1.512   .     S
Cu816  O831    1.919   .     S
Cu816  O835    1.898   .     S
Cu816  N828    2.020   .     S
Cu816  O829    1.954   .     S
Cu816  Cu817   2.688   .     S
Cu816  O833    1.950   .     S
Cu817  O832    1.898   .     S
Cu817  N827    2.020   .     S
Cu817  O830    1.950   .     S
Cu817  O834    1.954   .     S
Cu817  O836    1.919   .     S
H819   C490    1.088   1_565 S
H820   N933    1.029   1_455 S
H821   N881    1.029   .     S
H825   C867    1.085   .     S
N827   H873    1.029   .     S
N827   N881    1.282   .     S
N828   N933    1.282   1_455 S
N828   H927    1.029   1_455 S
C837   H840    1.111   .     S
C837   H944    1.111   1_455 S
C837   H945    1.110   1_455 S
H838   C890    1.111   .     S
H839   C890    1.110   .     S
C841   H843    1.110   .     S
C841   H842    1.110   .     S
C841   H950    1.108   1_455 S
H844   C894    1.108   .     S
C845   H847    1.108   .     S
C845   H846    1.109   .     S
C845   H848    1.111   .     S
C849   C859    1.427   .     S
C849   O882    1.291   .     A
C849   O883    1.286   .     A
C850   C851    1.426   .     A
C850   C375    1.428   1_556 S
C850   C391    1.429   1_556 S
C851   C858    1.429   .     A
C851   C855    1.429   .     A
C852   C856    1.404   .     A
C852   C853    1.416   .     A
C853   C864    1.407   .     A
C854   C855    1.398   .     A
C854   H875    1.086   .     S
C854   C376    1.391   1_556 S
C855   C898    1.509   .     S
C856   C865    1.395   .     A
C856   H877    1.076   .     S
C857   C865    1.398   .     A
C857   C864    1.395   .     A
C857   H871    1.083   .     S
C858   C866    1.421   .     A
C858   C860    1.484   .     S
C859   C543    1.329   1_565 S
C859   H561    1.088   1_565 S
C860   O884    1.299   .     A
C860   O885    1.303   .     A
C861   C862    1.427   .     S
C862   O886    1.286   .     A
C862   O887    1.291   .     A
C863   O889    1.302   .     A
C863   O888    1.295   .     A
C863   C865    1.465   .     S
C864   H876    1.084   .     S
C866   C890    1.513   .     S
C866   C867    1.392   .     A
C867   C391    1.394   1_556 S
C868   C894    1.512   .     S
Cu869  O884    1.919   .     S
Cu869  O888    1.898   .     S
Cu869  N881    2.020   .     S
Cu869  O882    1.954   .     S
Cu869  Cu870   2.688   .     S
Cu869  O886    1.950   .     S
Cu870  O885    1.898   .     S
Cu870  N880    2.020   .     S
Cu870  O883    1.950   .     S
Cu870  O887    1.954   .     S
Cu870  O889    1.919   .     S
H872   C543    1.088   1_565 S
H874   N934    1.029   .     S
H878   C920    1.085   .     S
N880   H926    1.029   .     S
N880   N934    1.282   .     S
C890   H893    1.111   .     S
H891   C943    1.111   .     S
H892   C943    1.110   .     S
C894   H896    1.110   .     S
C894   H895    1.110   .     S
H897   C947    1.108   .     S
C898   H900    1.108   .     S
C898   H899    1.109   .     S
C898   H901    1.111   .     S
C902   C912    1.427   .     S
C902   O935    1.291   .     A
C902   O936    1.286   .     A
C903   C904    1.426   .     A
C903   C428    1.428   1_556 S
C903   C444    1.429   1_556 S
C904   C911    1.429   .     A
C904   C908    1.429   .     A
C905   C909    1.404   .     A
C905   C906    1.416   .     A
C906   C917    1.407   .     A
C907   C908    1.398   .     A
C907   H928    1.086   .     S
C907   C429    1.391   1_556 S
C908   C951    1.509   .     S
C909   C918    1.395   .     A
C909   H930    1.076   .     S
C910   C918    1.398   .     A
C910   C917    1.395   .     A
C910   H924    1.083   .     S
C911   C919    1.421   .     A
C911   C913    1.484   .     S
C912   C596    1.329   1_565 S
C912   H614    1.088   1_565 S
C913   O937    1.299   .     A
C913   O938    1.303   .     A
C914   C915    1.427   .     S
C915   O939    1.286   .     A
C915   O940    1.291   .     A
C916   O942    1.302   .     A
C916   O941    1.295   .     A
C916   C918    1.465   .     S
C917   H929    1.084   .     S
C919   C943    1.513   .     S
C919   C920    1.392   .     A
C920   C444    1.394   1_556 S
C921   C947    1.512   .     S
Cu922  O937    1.919   .     S
Cu922  O941    1.898   .     S
Cu922  N934    2.020   .     S
Cu922  O935    1.954   .     S
Cu922  Cu923   2.688   .     S
Cu922  O939    1.950   .     S
Cu923  O938    1.898   .     S
Cu923  N933    2.020   .     S
Cu923  O936    1.950   .     S
Cu923  O940    1.954   .     S
Cu923  O942    1.919   .     S
H925   C596    1.088   1_565 S
H927   N828    1.029   1_655 S
H931   C814    1.085   1_655 S
N933   H820    1.029   1_655 S
N933   N828    1.282   1_655 S
C943   H946    1.111   .     S
H944   C837    1.111   1_655 S
H945   C837    1.110   1_655 S
C947   H949    1.110   .     S
C947   H948    1.110   .     S
H950   C841    1.108   1_655 S
C951   H953    1.108   .     S
C951   H952    1.109   .     S
C951   H954    1.111   .     S
