data_str_m2_o1_o18_pcu_sym.126
_audit_creation_date              2020-01-03
_audit_creation_method            'Materials Studio'
_symmetry_space_group_name_H-M    'P1'
_symmetry_Int_Tables_number       1
_symmetry_cell_setting            triclinic
loop_
_symmetry_equiv_pos_as_xyz
  x,y,z
_cell_length_a                    28.5913
_cell_length_b                    32.4930
_cell_length_c                    30.8128
_cell_angle_alpha                 89.6323
_cell_angle_beta                  74.8031
_cell_angle_gamma                 89.8609
loop_
_atom_site_label
_atom_site_type_symbol
_atom_site_fract_x
_atom_site_fract_y
_atom_site_fract_z
_atom_site_U_iso_or_equiv
_atom_site_adp_type
_atom_site_occupancy
C1     C     0.00000   0.08740   0.25010   0.00000  Uiso   1.00
C2     C    -0.00000   0.24593   0.24991   0.00000  Uiso   1.00
C3     C     0.18963   0.19498   0.04417   0.00000  Uiso   1.00
C4     C     0.14006   0.15504   0.45238   0.00000  Uiso   1.00
C5     C     0.23776   0.20224   0.02196   0.00000  Uiso   1.00
C6     C     0.09176   0.14842   0.47438   0.00000  Uiso   1.00
C7     C     0.29016   0.02127   0.26868   0.00000  Uiso   1.00
C8     C     0.04317   0.31206   0.23134   0.00000  Uiso   1.00
C9     C     0.29012   0.31200   0.26853   0.00000  Uiso   1.00
C10    C     0.04322   0.02133   0.23150   0.00000  Uiso   1.00
C11    C     0.33329   0.29054   0.24988   0.00000  Uiso   1.00
C12    C     0.00004   0.04279   0.25014   0.00000  Uiso   1.00
C13    C     0.18339   0.14228   0.27925   0.00000  Uiso   1.00
C14    C     0.14994   0.19107   0.22077   0.00000  Uiso   1.00
C15    C     0.13367   0.14221   0.27939   0.00000  Uiso   1.00
C16    C     0.19965   0.19116   0.22064   0.00000  Uiso   1.00
C17    C     0.30624   0.16749   0.33615   0.00000  Uiso   1.00
C18    C     0.02710   0.16623   0.16379   0.00000  Uiso   1.00
C19    C     0.29139   0.17251   0.38522   0.00000  Uiso   1.00
C20    C     0.04180   0.16429   0.11435   0.00000  Uiso   1.00
C21    C     0.30457   0.19962   0.45400   0.00000  Uiso   1.00
C22    C     0.02608   0.14684   0.04325   0.00000  Uiso   1.00
C23    C     0.32213   0.19024   0.40856   0.00000  Uiso   1.00
C24    C     0.00959   0.15200   0.08960   0.00000  Uiso   1.00
C25    C     0.24354   0.16330   0.40799   0.00000  Uiso   1.00
C26    C     0.09005   0.17277   0.09201   0.00000  Uiso   1.00
C27    C     0.22399   0.17432   0.45321   0.00000  Uiso   1.00
C28    C     0.10757   0.16890   0.04509   0.00000  Uiso   1.00
C29    C     0.25565   0.19199   0.47663   0.00000  Uiso   1.00
C30    C     0.07494   0.15476   0.02070   0.00000  Uiso   1.00
C31    C     0.17393   0.16845   0.47550   0.00000  Uiso   1.00
C32    C     0.15693   0.17734   0.02214   0.00000  Uiso   1.00
Cu33   Cu    0.04689   0.16667   0.25000   0.00000  Uiso   1.00
Cu34   Cu    0.28645   0.16666   0.25000   0.00000  Uiso   1.00
H35    H     0.11366   0.18109   0.11251   0.00000  Uiso   1.00
H36    H     0.22234   0.14749   0.38918   0.00000  Uiso   1.00
H37    H     0.17903   0.20493   0.07860   0.00000  Uiso   1.00
H38    H     0.14924   0.15017   0.41664   0.00000  Uiso   1.00
H39    H     0.19572   0.12274   0.30260   0.00000  Uiso   1.00
H40    H     0.13760   0.21063   0.19744   0.00000  Uiso   1.00
N41    N     0.11736   0.16668   0.24999   0.00000  Uiso   1.00
N42    N     0.21597   0.16666   0.25001   0.00000  Uiso   1.00
O43    O     0.03958   0.10655   0.25000   0.00000  Uiso   1.00
O44    O     0.29375   0.22678   0.25000   0.00000  Uiso   1.00
O45    O     0.29372   0.10654   0.25000   0.00000  Uiso   1.00
O46    O     0.03961   0.22679   0.24999   0.00000  Uiso   1.00
O47    O     0.01852   0.16668   0.31492   0.00000  Uiso   1.00
O48    O     0.31481   0.16666   0.18508   0.00000  Uiso   1.00
O49    O     0.27267   0.16667   0.31492   0.00000  Uiso   1.00
O50    O     0.06067   0.16667   0.18508   0.00000  Uiso   1.00
F51    F     0.26670   0.21954   0.04546   0.00000  Uiso   1.00
F52    F     0.06175   0.13504   0.44981   0.00000  Uiso   1.00
F53    F     0.29595   0.14315   0.11032   0.00000  Uiso   1.00
F54    F     0.03535   0.19995   0.38718   0.00000  Uiso   1.00
F55    F     0.00198   0.21739   0.47527   0.00000  Uiso   1.00
F56    F     0.32756   0.13301   0.02083   0.00000  Uiso   1.00
F57    F     0.24820   0.04135   0.28800   0.00000  Uiso   1.00
F58    F     0.08513   0.29198   0.21202   0.00000  Uiso   1.00
F59    F     0.24813   0.29184   0.28768   0.00000  Uiso   1.00
F60    F     0.08521   0.04149   0.21235   0.00000  Uiso   1.00
N61    N     0.10038   0.11634   0.31039   0.00000  Uiso   1.00
H62    H     0.11241   0.08595   0.30475   0.00000  Uiso   1.00
H63    H     0.10156   0.12427   0.34292   0.00000  Uiso   1.00
N64    N     0.23291   0.21713   0.18974   0.00000  Uiso   1.00
H65    H     0.22089   0.24751   0.19557   0.00000  Uiso   1.00
H66    H     0.23163   0.20939   0.15718   0.00000  Uiso   1.00
C67    C     0.33334   0.08740   0.25010   0.00000  Uiso   1.00
C68    C     0.33333   0.24593   0.24991   0.00000  Uiso   1.00
C69    C     0.52297   0.19498   0.04417   0.00000  Uiso   1.00
C70    C     0.47339   0.15504   0.45238   0.00000  Uiso   1.00
C71    C     0.57109   0.20224   0.02196   0.00000  Uiso   1.00
C72    C     0.42509   0.14842   0.47438   0.00000  Uiso   1.00
C73    C     0.62349   0.02127   0.26868   0.00000  Uiso   1.00
C74    C     0.37651   0.31206   0.23134   0.00000  Uiso   1.00
C75    C     0.62345   0.31200   0.26853   0.00000  Uiso   1.00
C76    C     0.37655   0.02133   0.23150   0.00000  Uiso   1.00
C77    C     0.66663   0.29054   0.24988   0.00000  Uiso   1.00
C78    C     0.33337   0.04279   0.25014   0.00000  Uiso   1.00
C79    C     0.51672   0.14228   0.27925   0.00000  Uiso   1.00
C80    C     0.48327   0.19107   0.22077   0.00000  Uiso   1.00
C81    C     0.46700   0.14221   0.27939   0.00000  Uiso   1.00
C82    C     0.53299   0.19116   0.22064   0.00000  Uiso   1.00
C83    C     0.63957   0.16749   0.33615   0.00000  Uiso   1.00
C84    C     0.36044   0.16623   0.16379   0.00000  Uiso   1.00
C85    C     0.62472   0.17251   0.38522   0.00000  Uiso   1.00
C86    C     0.37514   0.16429   0.11435   0.00000  Uiso   1.00
C87    C     0.63790   0.19962   0.45400   0.00000  Uiso   1.00
C88    C     0.35941   0.14684   0.04325   0.00000  Uiso   1.00
C89    C     0.65547   0.19024   0.40856   0.00000  Uiso   1.00
C90    C     0.34292   0.15200   0.08960   0.00000  Uiso   1.00
C91    C     0.57688   0.16330   0.40799   0.00000  Uiso   1.00
C92    C     0.42338   0.17277   0.09201   0.00000  Uiso   1.00
C93    C     0.55732   0.17432   0.45321   0.00000  Uiso   1.00
C94    C     0.44090   0.16890   0.04509   0.00000  Uiso   1.00
C95    C     0.58898   0.19199   0.47663   0.00000  Uiso   1.00
C96    C     0.40827   0.15476   0.02070   0.00000  Uiso   1.00
C97    C     0.50726   0.16845   0.47550   0.00000  Uiso   1.00
C98    C     0.49026   0.17734   0.02214   0.00000  Uiso   1.00
Cu99   Cu    0.38022   0.16667   0.25000   0.00000  Uiso   1.00
Cu100  Cu    0.61978   0.16666   0.25000   0.00000  Uiso   1.00
H101   H     0.44699   0.18109   0.11251   0.00000  Uiso   1.00
H102   H     0.55568   0.14749   0.38918   0.00000  Uiso   1.00
H103   H     0.51237   0.20493   0.07860   0.00000  Uiso   1.00
H104   H     0.48257   0.15017   0.41664   0.00000  Uiso   1.00
H105   H     0.52905   0.12274   0.30260   0.00000  Uiso   1.00
H106   H     0.47094   0.21063   0.19744   0.00000  Uiso   1.00
N107   N     0.45069   0.16668   0.24999   0.00000  Uiso   1.00
N108   N     0.54931   0.16666   0.25001   0.00000  Uiso   1.00
O109   O     0.37291   0.10655   0.25000   0.00000  Uiso   1.00
O110   O     0.62709   0.22678   0.25000   0.00000  Uiso   1.00
O111   O     0.62706   0.10654   0.25000   0.00000  Uiso   1.00
O112   O     0.37294   0.22679   0.24999   0.00000  Uiso   1.00
O113   O     0.35186   0.16668   0.31492   0.00000  Uiso   1.00
O114   O     0.64814   0.16666   0.18508   0.00000  Uiso   1.00
O115   O     0.60600   0.16667   0.31492   0.00000  Uiso   1.00
O116   O     0.39400   0.16667   0.18508   0.00000  Uiso   1.00
F117   F     0.60003   0.21954   0.04546   0.00000  Uiso   1.00
F118   F     0.39508   0.13504   0.44981   0.00000  Uiso   1.00
F119   F     0.62928   0.14315   0.11032   0.00000  Uiso   1.00
F120   F     0.36868   0.19995   0.38718   0.00000  Uiso   1.00
F121   F     0.33531   0.21739   0.47527   0.00000  Uiso   1.00
F122   F     0.66089   0.13301   0.02083   0.00000  Uiso   1.00
F123   F     0.58153   0.04135   0.28800   0.00000  Uiso   1.00
F124   F     0.41847   0.29198   0.21202   0.00000  Uiso   1.00
F125   F     0.58146   0.29184   0.28768   0.00000  Uiso   1.00
F126   F     0.41854   0.04149   0.21235   0.00000  Uiso   1.00
N127   N     0.43371   0.11634   0.31039   0.00000  Uiso   1.00
H128   H     0.44574   0.08595   0.30475   0.00000  Uiso   1.00
H129   H     0.43490   0.12427   0.34292   0.00000  Uiso   1.00
N130   N     0.56624   0.21713   0.18974   0.00000  Uiso   1.00
H131   H     0.55423   0.24751   0.19557   0.00000  Uiso   1.00
H132   H     0.56496   0.20939   0.15718   0.00000  Uiso   1.00
C133   C     0.66667   0.08740   0.25010   0.00000  Uiso   1.00
C134   C     0.66666   0.24593   0.24991   0.00000  Uiso   1.00
C135   C     0.85630   0.19498   0.04417   0.00000  Uiso   1.00
C136   C     0.80673   0.15504   0.45238   0.00000  Uiso   1.00
C137   C     0.90443   0.20224   0.02196   0.00000  Uiso   1.00
C138   C     0.75843   0.14842   0.47438   0.00000  Uiso   1.00
C139   C     0.95683   0.02127   0.26868   0.00000  Uiso   1.00
C140   C     0.70984   0.31206   0.23134   0.00000  Uiso   1.00
C141   C     0.95678   0.31200   0.26853   0.00000  Uiso   1.00
C142   C     0.70988   0.02133   0.23150   0.00000  Uiso   1.00
C143   C     0.99996   0.29054   0.24988   0.00000  Uiso   1.00
C144   C     0.66670   0.04279   0.25014   0.00000  Uiso   1.00
C145   C     0.85005   0.14228   0.27925   0.00000  Uiso   1.00
C146   C     0.81661   0.19107   0.22077   0.00000  Uiso   1.00
C147   C     0.80034   0.14221   0.27939   0.00000  Uiso   1.00
C148   C     0.86632   0.19116   0.22064   0.00000  Uiso   1.00
C149   C     0.97291   0.16749   0.33615   0.00000  Uiso   1.00
C150   C     0.69377   0.16623   0.16379   0.00000  Uiso   1.00
C151   C     0.95805   0.17251   0.38522   0.00000  Uiso   1.00
C152   C     0.70847   0.16429   0.11435   0.00000  Uiso   1.00
C153   C     0.97124   0.19962   0.45400   0.00000  Uiso   1.00
C154   C     0.69275   0.14684   0.04325   0.00000  Uiso   1.00
C155   C     0.98880   0.19024   0.40856   0.00000  Uiso   1.00
C156   C     0.67625   0.15200   0.08960   0.00000  Uiso   1.00
C157   C     0.91021   0.16330   0.40799   0.00000  Uiso   1.00
C158   C     0.75672   0.17277   0.09201   0.00000  Uiso   1.00
C159   C     0.89066   0.17432   0.45321   0.00000  Uiso   1.00
C160   C     0.77424   0.16890   0.04509   0.00000  Uiso   1.00
C161   C     0.92232   0.19199   0.47663   0.00000  Uiso   1.00
C162   C     0.74160   0.15476   0.02070   0.00000  Uiso   1.00
C163   C     0.84059   0.16845   0.47550   0.00000  Uiso   1.00
C164   C     0.82359   0.17734   0.02214   0.00000  Uiso   1.00
Cu165  Cu    0.71355   0.16667   0.25000   0.00000  Uiso   1.00
Cu166  Cu    0.95311   0.16666   0.25000   0.00000  Uiso   1.00
H167   H     0.78032   0.18109   0.11251   0.00000  Uiso   1.00
H168   H     0.88901   0.14749   0.38918   0.00000  Uiso   1.00
H169   H     0.84570   0.20493   0.07860   0.00000  Uiso   1.00
H170   H     0.81590   0.15017   0.41664   0.00000  Uiso   1.00
H171   H     0.86238   0.12274   0.30260   0.00000  Uiso   1.00
H172   H     0.80427   0.21063   0.19744   0.00000  Uiso   1.00
N173   N     0.78403   0.16668   0.24999   0.00000  Uiso   1.00
N174   N     0.88264   0.16666   0.25001   0.00000  Uiso   1.00
O175   O     0.70625   0.10655   0.25000   0.00000  Uiso   1.00
O176   O     0.96042   0.22678   0.25000   0.00000  Uiso   1.00
O177   O     0.96039   0.10654   0.25000   0.00000  Uiso   1.00
O178   O     0.70628   0.22679   0.24999   0.00000  Uiso   1.00
O179   O     0.68519   0.16668   0.31492   0.00000  Uiso   1.00
O180   O     0.98148   0.16666   0.18508   0.00000  Uiso   1.00
O181   O     0.93933   0.16667   0.31492   0.00000  Uiso   1.00
O182   O     0.72733   0.16667   0.18508   0.00000  Uiso   1.00
F183   F     0.93337   0.21954   0.04546   0.00000  Uiso   1.00
F184   F     0.72842   0.13504   0.44981   0.00000  Uiso   1.00
F185   F     0.96261   0.14315   0.11032   0.00000  Uiso   1.00
F186   F     0.70201   0.19995   0.38718   0.00000  Uiso   1.00
F187   F     0.66865   0.21739   0.47527   0.00000  Uiso   1.00
F188   F     0.99422   0.13301   0.02083   0.00000  Uiso   1.00
F189   F     0.91486   0.04135   0.28800   0.00000  Uiso   1.00
F190   F     0.75180   0.29198   0.21202   0.00000  Uiso   1.00
F191   F     0.91480   0.29184   0.28768   0.00000  Uiso   1.00
F192   F     0.75187   0.04149   0.21235   0.00000  Uiso   1.00
N193   N     0.76705   0.11634   0.31039   0.00000  Uiso   1.00
H194   H     0.77908   0.08595   0.30475   0.00000  Uiso   1.00
H195   H     0.76823   0.12427   0.34292   0.00000  Uiso   1.00
N196   N     0.89958   0.21713   0.18974   0.00000  Uiso   1.00
H197   H     0.88756   0.24751   0.19557   0.00000  Uiso   1.00
H198   H     0.89830   0.20939   0.15718   0.00000  Uiso   1.00
C199   C     0.00000   0.42073   0.25010   0.00000  Uiso   1.00
C200   C    -0.00000   0.57927   0.24991   0.00000  Uiso   1.00
C201   C     0.18963   0.52831   0.04417   0.00000  Uiso   1.00
C202   C     0.14006   0.48837   0.45238   0.00000  Uiso   1.00
C203   C     0.23776   0.53557   0.02196   0.00000  Uiso   1.00
C204   C     0.09176   0.48175   0.47438   0.00000  Uiso   1.00
C205   C     0.29016   0.35460   0.26868   0.00000  Uiso   1.00
C206   C     0.04317   0.64539   0.23134   0.00000  Uiso   1.00
C207   C     0.29012   0.64533   0.26853   0.00000  Uiso   1.00
C208   C     0.04322   0.35467   0.23150   0.00000  Uiso   1.00
C209   C     0.33329   0.62387   0.24988   0.00000  Uiso   1.00
C210   C     0.00004   0.37612   0.25014   0.00000  Uiso   1.00
C211   C     0.18339   0.47562   0.27925   0.00000  Uiso   1.00
C212   C     0.14994   0.52440   0.22077   0.00000  Uiso   1.00
C213   C     0.13367   0.47554   0.27939   0.00000  Uiso   1.00
C214   C     0.19965   0.52450   0.22064   0.00000  Uiso   1.00
C215   C     0.30624   0.50082   0.33615   0.00000  Uiso   1.00
C216   C     0.02710   0.49956   0.16379   0.00000  Uiso   1.00
C217   C     0.29139   0.50584   0.38522   0.00000  Uiso   1.00
C218   C     0.04180   0.49762   0.11435   0.00000  Uiso   1.00
C219   C     0.30457   0.53295   0.45400   0.00000  Uiso   1.00
C220   C     0.02608   0.48017   0.04325   0.00000  Uiso   1.00
C221   C     0.32213   0.52358   0.40856   0.00000  Uiso   1.00
C222   C     0.00959   0.48533   0.08960   0.00000  Uiso   1.00
C223   C     0.24354   0.49663   0.40799   0.00000  Uiso   1.00
C224   C     0.09005   0.50611   0.09201   0.00000  Uiso   1.00
C225   C     0.22399   0.50765   0.45321   0.00000  Uiso   1.00
C226   C     0.10757   0.50223   0.04509   0.00000  Uiso   1.00
C227   C     0.25565   0.52533   0.47663   0.00000  Uiso   1.00
C228   C     0.07494   0.48809   0.02070   0.00000  Uiso   1.00
C229   C     0.17393   0.50178   0.47550   0.00000  Uiso   1.00
C230   C     0.15693   0.51067   0.02214   0.00000  Uiso   1.00
Cu231  Cu    0.04689   0.50001   0.25000   0.00000  Uiso   1.00
Cu232  Cu    0.28645   0.49999   0.25000   0.00000  Uiso   1.00
H233   H     0.11366   0.51443   0.11251   0.00000  Uiso   1.00
H234   H     0.22234   0.48083   0.38918   0.00000  Uiso   1.00
H235   H     0.17903   0.53827   0.07860   0.00000  Uiso   1.00
H236   H     0.14924   0.48350   0.41664   0.00000  Uiso   1.00
H237   H     0.19572   0.45608   0.30260   0.00000  Uiso   1.00
H238   H     0.13760   0.54396   0.19744   0.00000  Uiso   1.00
N239   N     0.11736   0.50001   0.24999   0.00000  Uiso   1.00
N240   N     0.21597   0.49999   0.25001   0.00000  Uiso   1.00
O241   O     0.03958   0.43989   0.25000   0.00000  Uiso   1.00
O242   O     0.29375   0.56011   0.25000   0.00000  Uiso   1.00
O243   O     0.29372   0.43988   0.25000   0.00000  Uiso   1.00
O244   O     0.03961   0.56012   0.24999   0.00000  Uiso   1.00
O245   O     0.01852   0.50001   0.31492   0.00000  Uiso   1.00
O246   O     0.31481   0.49999   0.18508   0.00000  Uiso   1.00
O247   O     0.27267   0.50000   0.31492   0.00000  Uiso   1.00
O248   O     0.06067   0.50000   0.18508   0.00000  Uiso   1.00
F249   F     0.26670   0.55287   0.04546   0.00000  Uiso   1.00
F250   F     0.06175   0.46837   0.44981   0.00000  Uiso   1.00
F251   F     0.29595   0.47648   0.11032   0.00000  Uiso   1.00
F252   F     0.03535   0.53329   0.38718   0.00000  Uiso   1.00
F253   F     0.00198   0.55072   0.47527   0.00000  Uiso   1.00
F254   F     0.32756   0.46634   0.02083   0.00000  Uiso   1.00
F255   F     0.24820   0.37468   0.28800   0.00000  Uiso   1.00
F256   F     0.08513   0.62531   0.21202   0.00000  Uiso   1.00
F257   F     0.24813   0.62517   0.28768   0.00000  Uiso   1.00
F258   F     0.08521   0.37482   0.21235   0.00000  Uiso   1.00
N259   N     0.10038   0.44968   0.31039   0.00000  Uiso   1.00
H260   H     0.11241   0.41928   0.30475   0.00000  Uiso   1.00
H261   H     0.10156   0.45760   0.34292   0.00000  Uiso   1.00
N262   N     0.23291   0.55046   0.18974   0.00000  Uiso   1.00
H263   H     0.22089   0.58084   0.19557   0.00000  Uiso   1.00
H264   H     0.23163   0.54272   0.15718   0.00000  Uiso   1.00
C265   C     0.33334   0.42073   0.25010   0.00000  Uiso   1.00
C266   C     0.33333   0.57927   0.24991   0.00000  Uiso   1.00
C267   C     0.52297   0.52831   0.04417   0.00000  Uiso   1.00
C268   C     0.47339   0.48837   0.45238   0.00000  Uiso   1.00
C269   C     0.57109   0.53557   0.02196   0.00000  Uiso   1.00
C270   C     0.42509   0.48175   0.47438   0.00000  Uiso   1.00
C271   C     0.62349   0.35460   0.26868   0.00000  Uiso   1.00
C272   C     0.37651   0.64539   0.23134   0.00000  Uiso   1.00
C273   C     0.62345   0.64533   0.26853   0.00000  Uiso   1.00
C274   C     0.37655   0.35467   0.23150   0.00000  Uiso   1.00
C275   C     0.66663   0.62387   0.24988   0.00000  Uiso   1.00
C276   C     0.33337   0.37612   0.25014   0.00000  Uiso   1.00
C277   C     0.51672   0.47562   0.27925   0.00000  Uiso   1.00
C278   C     0.48327   0.52440   0.22077   0.00000  Uiso   1.00
C279   C     0.46700   0.47554   0.27939   0.00000  Uiso   1.00
C280   C     0.53299   0.52450   0.22064   0.00000  Uiso   1.00
C281   C     0.63957   0.50082   0.33615   0.00000  Uiso   1.00
C282   C     0.36044   0.49956   0.16379   0.00000  Uiso   1.00
C283   C     0.62472   0.50584   0.38522   0.00000  Uiso   1.00
C284   C     0.37514   0.49762   0.11435   0.00000  Uiso   1.00
C285   C     0.63790   0.53295   0.45400   0.00000  Uiso   1.00
C286   C     0.35941   0.48017   0.04325   0.00000  Uiso   1.00
C287   C     0.65547   0.52358   0.40856   0.00000  Uiso   1.00
C288   C     0.34292   0.48533   0.08960   0.00000  Uiso   1.00
C289   C     0.57688   0.49663   0.40799   0.00000  Uiso   1.00
C290   C     0.42338   0.50611   0.09201   0.00000  Uiso   1.00
C291   C     0.55732   0.50765   0.45321   0.00000  Uiso   1.00
C292   C     0.44090   0.50223   0.04509   0.00000  Uiso   1.00
C293   C     0.58898   0.52533   0.47663   0.00000  Uiso   1.00
C294   C     0.40827   0.48809   0.02070   0.00000  Uiso   1.00
C295   C     0.50726   0.50178   0.47550   0.00000  Uiso   1.00
C296   C     0.49026   0.51067   0.02214   0.00000  Uiso   1.00
Cu297  Cu    0.38022   0.50001   0.25000   0.00000  Uiso   1.00
Cu298  Cu    0.61978   0.49999   0.25000   0.00000  Uiso   1.00
H299   H     0.44699   0.51443   0.11251   0.00000  Uiso   1.00
H300   H     0.55568   0.48083   0.38918   0.00000  Uiso   1.00
H301   H     0.51237   0.53827   0.07860   0.00000  Uiso   1.00
H302   H     0.48257   0.48350   0.41664   0.00000  Uiso   1.00
H303   H     0.52905   0.45608   0.30260   0.00000  Uiso   1.00
H304   H     0.47094   0.54396   0.19744   0.00000  Uiso   1.00
N305   N     0.45069   0.50001   0.24999   0.00000  Uiso   1.00
N306   N     0.54931   0.49999   0.25001   0.00000  Uiso   1.00
O307   O     0.37291   0.43989   0.25000   0.00000  Uiso   1.00
O308   O     0.62709   0.56011   0.25000   0.00000  Uiso   1.00
O309   O     0.62706   0.43988   0.25000   0.00000  Uiso   1.00
O310   O     0.37294   0.56012   0.24999   0.00000  Uiso   1.00
O311   O     0.35186   0.50001   0.31492   0.00000  Uiso   1.00
O312   O     0.64814   0.49999   0.18508   0.00000  Uiso   1.00
O313   O     0.60600   0.50000   0.31492   0.00000  Uiso   1.00
O314   O     0.39400   0.50000   0.18508   0.00000  Uiso   1.00
F315   F     0.60003   0.55287   0.04546   0.00000  Uiso   1.00
F316   F     0.39508   0.46837   0.44981   0.00000  Uiso   1.00
F317   F     0.62928   0.47648   0.11032   0.00000  Uiso   1.00
F318   F     0.36868   0.53329   0.38718   0.00000  Uiso   1.00
F319   F     0.33531   0.55072   0.47527   0.00000  Uiso   1.00
F320   F     0.66089   0.46634   0.02083   0.00000  Uiso   1.00
F321   F     0.58153   0.37468   0.28800   0.00000  Uiso   1.00
F322   F     0.41847   0.62531   0.21202   0.00000  Uiso   1.00
F323   F     0.58146   0.62517   0.28768   0.00000  Uiso   1.00
F324   F     0.41854   0.37482   0.21235   0.00000  Uiso   1.00
N325   N     0.43371   0.44968   0.31039   0.00000  Uiso   1.00
H326   H     0.44574   0.41928   0.30475   0.00000  Uiso   1.00
H327   H     0.43490   0.45760   0.34292   0.00000  Uiso   1.00
N328   N     0.56624   0.55046   0.18974   0.00000  Uiso   1.00
H329   H     0.55423   0.58084   0.19557   0.00000  Uiso   1.00
H330   H     0.56496   0.54272   0.15718   0.00000  Uiso   1.00
C331   C     0.66667   0.42073   0.25010   0.00000  Uiso   1.00
C332   C     0.66666   0.57927   0.24991   0.00000  Uiso   1.00
C333   C     0.85630   0.52831   0.04417   0.00000  Uiso   1.00
C334   C     0.80673   0.48837   0.45238   0.00000  Uiso   1.00
C335   C     0.90443   0.53557   0.02196   0.00000  Uiso   1.00
C336   C     0.75843   0.48175   0.47438   0.00000  Uiso   1.00
C337   C     0.95683   0.35460   0.26868   0.00000  Uiso   1.00
C338   C     0.70984   0.64539   0.23134   0.00000  Uiso   1.00
C339   C     0.95678   0.64533   0.26853   0.00000  Uiso   1.00
C340   C     0.70988   0.35467   0.23150   0.00000  Uiso   1.00
C341   C     0.99996   0.62387   0.24988   0.00000  Uiso   1.00
C342   C     0.66670   0.37612   0.25014   0.00000  Uiso   1.00
C343   C     0.85005   0.47562   0.27925   0.00000  Uiso   1.00
C344   C     0.81661   0.52440   0.22077   0.00000  Uiso   1.00
C345   C     0.80034   0.47554   0.27939   0.00000  Uiso   1.00
C346   C     0.86632   0.52450   0.22064   0.00000  Uiso   1.00
C347   C     0.97291   0.50082   0.33615   0.00000  Uiso   1.00
C348   C     0.69377   0.49956   0.16379   0.00000  Uiso   1.00
C349   C     0.95805   0.50584   0.38522   0.00000  Uiso   1.00
C350   C     0.70847   0.49762   0.11435   0.00000  Uiso   1.00
C351   C     0.97124   0.53295   0.45400   0.00000  Uiso   1.00
C352   C     0.69275   0.48017   0.04325   0.00000  Uiso   1.00
C353   C     0.98880   0.52358   0.40856   0.00000  Uiso   1.00
C354   C     0.67625   0.48533   0.08960   0.00000  Uiso   1.00
C355   C     0.91021   0.49663   0.40799   0.00000  Uiso   1.00
C356   C     0.75672   0.50611   0.09201   0.00000  Uiso   1.00
C357   C     0.89066   0.50765   0.45321   0.00000  Uiso   1.00
C358   C     0.77424   0.50223   0.04509   0.00000  Uiso   1.00
C359   C     0.92232   0.52533   0.47663   0.00000  Uiso   1.00
C360   C     0.74160   0.48809   0.02070   0.00000  Uiso   1.00
C361   C     0.84059   0.50178   0.47550   0.00000  Uiso   1.00
C362   C     0.82359   0.51067   0.02214   0.00000  Uiso   1.00
Cu363  Cu    0.71355   0.50001   0.25000   0.00000  Uiso   1.00
Cu364  Cu    0.95311   0.49999   0.25000   0.00000  Uiso   1.00
H365   H     0.78032   0.51443   0.11251   0.00000  Uiso   1.00
H366   H     0.88901   0.48083   0.38918   0.00000  Uiso   1.00
H367   H     0.84570   0.53827   0.07860   0.00000  Uiso   1.00
H368   H     0.81590   0.48350   0.41664   0.00000  Uiso   1.00
H369   H     0.86238   0.45608   0.30260   0.00000  Uiso   1.00
H370   H     0.80427   0.54396   0.19744   0.00000  Uiso   1.00
N371   N     0.78403   0.50001   0.24999   0.00000  Uiso   1.00
N372   N     0.88264   0.49999   0.25001   0.00000  Uiso   1.00
O373   O     0.70625   0.43989   0.25000   0.00000  Uiso   1.00
O374   O     0.96042   0.56011   0.25000   0.00000  Uiso   1.00
O375   O     0.96039   0.43988   0.25000   0.00000  Uiso   1.00
O376   O     0.70628   0.56012   0.24999   0.00000  Uiso   1.00
O377   O     0.68519   0.50001   0.31492   0.00000  Uiso   1.00
O378   O     0.98148   0.49999   0.18508   0.00000  Uiso   1.00
O379   O     0.93933   0.50000   0.31492   0.00000  Uiso   1.00
O380   O     0.72733   0.50000   0.18508   0.00000  Uiso   1.00
F381   F     0.93337   0.55287   0.04546   0.00000  Uiso   1.00
F382   F     0.72842   0.46837   0.44981   0.00000  Uiso   1.00
F383   F     0.96261   0.47648   0.11032   0.00000  Uiso   1.00
F384   F     0.70201   0.53329   0.38718   0.00000  Uiso   1.00
F385   F     0.66865   0.55072   0.47527   0.00000  Uiso   1.00
F386   F     0.99422   0.46634   0.02083   0.00000  Uiso   1.00
F387   F     0.91486   0.37468   0.28800   0.00000  Uiso   1.00
F388   F     0.75180   0.62531   0.21202   0.00000  Uiso   1.00
F389   F     0.91480   0.62517   0.28768   0.00000  Uiso   1.00
F390   F     0.75187   0.37482   0.21235   0.00000  Uiso   1.00
N391   N     0.76705   0.44968   0.31039   0.00000  Uiso   1.00
H392   H     0.77908   0.41928   0.30475   0.00000  Uiso   1.00
H393   H     0.76823   0.45760   0.34292   0.00000  Uiso   1.00
N394   N     0.89958   0.55046   0.18974   0.00000  Uiso   1.00
H395   H     0.88756   0.58084   0.19557   0.00000  Uiso   1.00
H396   H     0.89830   0.54272   0.15718   0.00000  Uiso   1.00
C397   C     0.00000   0.75407   0.25010   0.00000  Uiso   1.00
C398   C    -0.00000   0.91260   0.24991   0.00000  Uiso   1.00
C399   C     0.18963   0.86164   0.04417   0.00000  Uiso   1.00
C400   C     0.14006   0.82170   0.45238   0.00000  Uiso   1.00
C401   C     0.23776   0.86890   0.02196   0.00000  Uiso   1.00
C402   C     0.09176   0.81509   0.47438   0.00000  Uiso   1.00
C403   C     0.29016   0.68794   0.26868   0.00000  Uiso   1.00
C404   C     0.04317   0.97873   0.23134   0.00000  Uiso   1.00
C405   C     0.29012   0.97866   0.26853   0.00000  Uiso   1.00
C406   C     0.04322   0.68800   0.23150   0.00000  Uiso   1.00
C407   C     0.33329   0.95721   0.24988   0.00000  Uiso   1.00
C408   C     0.00004   0.70946   0.25014   0.00000  Uiso   1.00
C409   C     0.18339   0.80895   0.27925   0.00000  Uiso   1.00
C410   C     0.14994   0.85774   0.22077   0.00000  Uiso   1.00
C411   C     0.13367   0.80888   0.27939   0.00000  Uiso   1.00
C412   C     0.19965   0.85783   0.22064   0.00000  Uiso   1.00
C413   C     0.30624   0.83415   0.33615   0.00000  Uiso   1.00
C414   C     0.02710   0.83289   0.16379   0.00000  Uiso   1.00
C415   C     0.29139   0.83918   0.38522   0.00000  Uiso   1.00
C416   C     0.04180   0.83095   0.11435   0.00000  Uiso   1.00
C417   C     0.30457   0.86628   0.45400   0.00000  Uiso   1.00
C418   C     0.02608   0.81350   0.04325   0.00000  Uiso   1.00
C419   C     0.32213   0.85691   0.40856   0.00000  Uiso   1.00
C420   C     0.00959   0.81866   0.08960   0.00000  Uiso   1.00
C421   C     0.24354   0.82997   0.40799   0.00000  Uiso   1.00
C422   C     0.09005   0.83944   0.09201   0.00000  Uiso   1.00
C423   C     0.22399   0.84098   0.45321   0.00000  Uiso   1.00
C424   C     0.10757   0.83557   0.04509   0.00000  Uiso   1.00
C425   C     0.25565   0.85866   0.47663   0.00000  Uiso   1.00
C426   C     0.07494   0.82143   0.02070   0.00000  Uiso   1.00
C427   C     0.17393   0.83512   0.47550   0.00000  Uiso   1.00
C428   C     0.15693   0.84400   0.02214   0.00000  Uiso   1.00
Cu429  Cu    0.04689   0.83334   0.25000   0.00000  Uiso   1.00
Cu430  Cu    0.28645   0.83333   0.25000   0.00000  Uiso   1.00
H431   H     0.11366   0.84776   0.11251   0.00000  Uiso   1.00
H432   H     0.22234   0.81416   0.38918   0.00000  Uiso   1.00
H433   H     0.17903   0.87160   0.07860   0.00000  Uiso   1.00
H434   H     0.14924   0.81683   0.41664   0.00000  Uiso   1.00
H435   H     0.19572   0.78941   0.30260   0.00000  Uiso   1.00
H436   H     0.13760   0.87730   0.19744   0.00000  Uiso   1.00
N437   N     0.11736   0.83334   0.24999   0.00000  Uiso   1.00
N438   N     0.21597   0.83332   0.25001   0.00000  Uiso   1.00
O439   O     0.03958   0.77322   0.25000   0.00000  Uiso   1.00
O440   O     0.29375   0.89345   0.25000   0.00000  Uiso   1.00
O441   O     0.29372   0.77321   0.25000   0.00000  Uiso   1.00
O442   O     0.03961   0.89346   0.24999   0.00000  Uiso   1.00
O443   O     0.01852   0.83334   0.31492   0.00000  Uiso   1.00
O444   O     0.31481   0.83332   0.18508   0.00000  Uiso   1.00
O445   O     0.27267   0.83333   0.31492   0.00000  Uiso   1.00
O446   O     0.06067   0.83333   0.18508   0.00000  Uiso   1.00
F447   F     0.26670   0.88620   0.04546   0.00000  Uiso   1.00
F448   F     0.06175   0.80171   0.44981   0.00000  Uiso   1.00
F449   F     0.29595   0.80982   0.11032   0.00000  Uiso   1.00
F450   F     0.03535   0.86662   0.38718   0.00000  Uiso   1.00
F451   F     0.00198   0.88405   0.47527   0.00000  Uiso   1.00
F452   F     0.32756   0.79967   0.02083   0.00000  Uiso   1.00
F453   F     0.24820   0.70802   0.28800   0.00000  Uiso   1.00
F454   F     0.08513   0.95865   0.21202   0.00000  Uiso   1.00
F455   F     0.24813   0.95850   0.28768   0.00000  Uiso   1.00
F456   F     0.08521   0.70816   0.21235   0.00000  Uiso   1.00
N457   N     0.10038   0.78301   0.31039   0.00000  Uiso   1.00
H458   H     0.11241   0.75262   0.30475   0.00000  Uiso   1.00
H459   H     0.10156   0.79094   0.34292   0.00000  Uiso   1.00
N460   N     0.23291   0.88379   0.18974   0.00000  Uiso   1.00
H461   H     0.22089   0.91418   0.19557   0.00000  Uiso   1.00
H462   H     0.23163   0.87605   0.15718   0.00000  Uiso   1.00
C463   C     0.33334   0.75407   0.25010   0.00000  Uiso   1.00
C464   C     0.33333   0.91260   0.24991   0.00000  Uiso   1.00
C465   C     0.52297   0.86164   0.04417   0.00000  Uiso   1.00
C466   C     0.47339   0.82170   0.45238   0.00000  Uiso   1.00
C467   C     0.57109   0.86890   0.02196   0.00000  Uiso   1.00
C468   C     0.42509   0.81509   0.47438   0.00000  Uiso   1.00
C469   C     0.62349   0.68794   0.26868   0.00000  Uiso   1.00
C470   C     0.37651   0.97873   0.23134   0.00000  Uiso   1.00
C471   C     0.62345   0.97866   0.26853   0.00000  Uiso   1.00
C472   C     0.37655   0.68800   0.23150   0.00000  Uiso   1.00
C473   C     0.66663   0.95721   0.24988   0.00000  Uiso   1.00
C474   C     0.33337   0.70946   0.25014   0.00000  Uiso   1.00
C475   C     0.51672   0.80895   0.27925   0.00000  Uiso   1.00
C476   C     0.48327   0.85774   0.22077   0.00000  Uiso   1.00
C477   C     0.46700   0.80888   0.27939   0.00000  Uiso   1.00
C478   C     0.53299   0.85783   0.22064   0.00000  Uiso   1.00
C479   C     0.63957   0.83415   0.33615   0.00000  Uiso   1.00
C480   C     0.36044   0.83289   0.16379   0.00000  Uiso   1.00
C481   C     0.62472   0.83918   0.38522   0.00000  Uiso   1.00
C482   C     0.37514   0.83095   0.11435   0.00000  Uiso   1.00
C483   C     0.63790   0.86628   0.45400   0.00000  Uiso   1.00
C484   C     0.35941   0.81350   0.04325   0.00000  Uiso   1.00
C485   C     0.65547   0.85691   0.40856   0.00000  Uiso   1.00
C486   C     0.34292   0.81866   0.08960   0.00000  Uiso   1.00
C487   C     0.57688   0.82997   0.40799   0.00000  Uiso   1.00
C488   C     0.42338   0.83944   0.09201   0.00000  Uiso   1.00
C489   C     0.55732   0.84098   0.45321   0.00000  Uiso   1.00
C490   C     0.44090   0.83557   0.04509   0.00000  Uiso   1.00
C491   C     0.58898   0.85866   0.47663   0.00000  Uiso   1.00
C492   C     0.40827   0.82143   0.02070   0.00000  Uiso   1.00
C493   C     0.50726   0.83512   0.47550   0.00000  Uiso   1.00
C494   C     0.49026   0.84400   0.02214   0.00000  Uiso   1.00
Cu495  Cu    0.38022   0.83334   0.25000   0.00000  Uiso   1.00
Cu496  Cu    0.61978   0.83333   0.25000   0.00000  Uiso   1.00
H497   H     0.44699   0.84776   0.11251   0.00000  Uiso   1.00
H498   H     0.55568   0.81416   0.38918   0.00000  Uiso   1.00
H499   H     0.51237   0.87160   0.07860   0.00000  Uiso   1.00
H500   H     0.48257   0.81683   0.41664   0.00000  Uiso   1.00
H501   H     0.52905   0.78941   0.30260   0.00000  Uiso   1.00
H502   H     0.47094   0.87730   0.19744   0.00000  Uiso   1.00
N503   N     0.45069   0.83334   0.24999   0.00000  Uiso   1.00
N504   N     0.54931   0.83332   0.25001   0.00000  Uiso   1.00
O505   O     0.37291   0.77322   0.25000   0.00000  Uiso   1.00
O506   O     0.62709   0.89345   0.25000   0.00000  Uiso   1.00
O507   O     0.62706   0.77321   0.25000   0.00000  Uiso   1.00
O508   O     0.37294   0.89346   0.24999   0.00000  Uiso   1.00
O509   O     0.35186   0.83334   0.31492   0.00000  Uiso   1.00
O510   O     0.64814   0.83332   0.18508   0.00000  Uiso   1.00
O511   O     0.60600   0.83333   0.31492   0.00000  Uiso   1.00
O512   O     0.39400   0.83333   0.18508   0.00000  Uiso   1.00
F513   F     0.60003   0.88620   0.04546   0.00000  Uiso   1.00
F514   F     0.39508   0.80171   0.44981   0.00000  Uiso   1.00
F515   F     0.62928   0.80982   0.11032   0.00000  Uiso   1.00
F516   F     0.36868   0.86662   0.38718   0.00000  Uiso   1.00
F517   F     0.33531   0.88405   0.47527   0.00000  Uiso   1.00
F518   F     0.66089   0.79967   0.02083   0.00000  Uiso   1.00
F519   F     0.58153   0.70802   0.28800   0.00000  Uiso   1.00
F520   F     0.41847   0.95865   0.21202   0.00000  Uiso   1.00
F521   F     0.58146   0.95850   0.28768   0.00000  Uiso   1.00
F522   F     0.41854   0.70816   0.21235   0.00000  Uiso   1.00
N523   N     0.43371   0.78301   0.31039   0.00000  Uiso   1.00
H524   H     0.44574   0.75262   0.30475   0.00000  Uiso   1.00
H525   H     0.43490   0.79094   0.34292   0.00000  Uiso   1.00
N526   N     0.56624   0.88379   0.18974   0.00000  Uiso   1.00
H527   H     0.55423   0.91418   0.19557   0.00000  Uiso   1.00
H528   H     0.56496   0.87605   0.15718   0.00000  Uiso   1.00
C529   C     0.66667   0.75407   0.25010   0.00000  Uiso   1.00
C530   C     0.66666   0.91260   0.24991   0.00000  Uiso   1.00
C531   C     0.85630   0.86164   0.04417   0.00000  Uiso   1.00
C532   C     0.80673   0.82170   0.45238   0.00000  Uiso   1.00
C533   C     0.90443   0.86890   0.02196   0.00000  Uiso   1.00
C534   C     0.75843   0.81509   0.47438   0.00000  Uiso   1.00
C535   C     0.95683   0.68794   0.26868   0.00000  Uiso   1.00
C536   C     0.70984   0.97873   0.23134   0.00000  Uiso   1.00
C537   C     0.95678   0.97866   0.26853   0.00000  Uiso   1.00
C538   C     0.70988   0.68800   0.23150   0.00000  Uiso   1.00
C539   C     0.99996   0.95721   0.24988   0.00000  Uiso   1.00
C540   C     0.66670   0.70946   0.25014   0.00000  Uiso   1.00
C541   C     0.85005   0.80895   0.27925   0.00000  Uiso   1.00
C542   C     0.81661   0.85774   0.22077   0.00000  Uiso   1.00
C543   C     0.80034   0.80888   0.27939   0.00000  Uiso   1.00
C544   C     0.86632   0.85783   0.22064   0.00000  Uiso   1.00
C545   C     0.97291   0.83415   0.33615   0.00000  Uiso   1.00
C546   C     0.69377   0.83289   0.16379   0.00000  Uiso   1.00
C547   C     0.95805   0.83918   0.38522   0.00000  Uiso   1.00
C548   C     0.70847   0.83095   0.11435   0.00000  Uiso   1.00
C549   C     0.97124   0.86628   0.45400   0.00000  Uiso   1.00
C550   C     0.69275   0.81350   0.04325   0.00000  Uiso   1.00
C551   C     0.98880   0.85691   0.40856   0.00000  Uiso   1.00
C552   C     0.67625   0.81866   0.08960   0.00000  Uiso   1.00
C553   C     0.91021   0.82997   0.40799   0.00000  Uiso   1.00
C554   C     0.75672   0.83944   0.09201   0.00000  Uiso   1.00
C555   C     0.89066   0.84098   0.45321   0.00000  Uiso   1.00
C556   C     0.77424   0.83557   0.04509   0.00000  Uiso   1.00
C557   C     0.92232   0.85866   0.47663   0.00000  Uiso   1.00
C558   C     0.74160   0.82143   0.02070   0.00000  Uiso   1.00
C559   C     0.84059   0.83512   0.47550   0.00000  Uiso   1.00
C560   C     0.82359   0.84400   0.02214   0.00000  Uiso   1.00
Cu561  Cu    0.71355   0.83334   0.25000   0.00000  Uiso   1.00
Cu562  Cu    0.95311   0.83333   0.25000   0.00000  Uiso   1.00
H563   H     0.78032   0.84776   0.11251   0.00000  Uiso   1.00
H564   H     0.88901   0.81416   0.38918   0.00000  Uiso   1.00
H565   H     0.84570   0.87160   0.07860   0.00000  Uiso   1.00
H566   H     0.81590   0.81683   0.41664   0.00000  Uiso   1.00
H567   H     0.86238   0.78941   0.30260   0.00000  Uiso   1.00
H568   H     0.80427   0.87730   0.19744   0.00000  Uiso   1.00
N569   N     0.78403   0.83334   0.24999   0.00000  Uiso   1.00
N570   N     0.88264   0.83332   0.25001   0.00000  Uiso   1.00
O571   O     0.70625   0.77322   0.25000   0.00000  Uiso   1.00
O572   O     0.96042   0.89345   0.25000   0.00000  Uiso   1.00
O573   O     0.96039   0.77321   0.25000   0.00000  Uiso   1.00
O574   O     0.70628   0.89346   0.24999   0.00000  Uiso   1.00
O575   O     0.68519   0.83334   0.31492   0.00000  Uiso   1.00
O576   O     0.98148   0.83332   0.18508   0.00000  Uiso   1.00
O577   O     0.93933   0.83333   0.31492   0.00000  Uiso   1.00
O578   O     0.72733   0.83333   0.18508   0.00000  Uiso   1.00
F579   F     0.93337   0.88620   0.04546   0.00000  Uiso   1.00
F580   F     0.72842   0.80171   0.44981   0.00000  Uiso   1.00
F581   F     0.96261   0.80982   0.11032   0.00000  Uiso   1.00
F582   F     0.70201   0.86662   0.38718   0.00000  Uiso   1.00
F583   F     0.66865   0.88405   0.47527   0.00000  Uiso   1.00
F584   F     0.99422   0.79967   0.02083   0.00000  Uiso   1.00
F585   F     0.91486   0.70802   0.28800   0.00000  Uiso   1.00
F586   F     0.75180   0.95865   0.21202   0.00000  Uiso   1.00
F587   F     0.91480   0.95850   0.28768   0.00000  Uiso   1.00
F588   F     0.75187   0.70816   0.21235   0.00000  Uiso   1.00
N589   N     0.76705   0.78301   0.31039   0.00000  Uiso   1.00
H590   H     0.77908   0.75262   0.30475   0.00000  Uiso   1.00
H591   H     0.76823   0.79094   0.34292   0.00000  Uiso   1.00
N592   N     0.89958   0.88379   0.18974   0.00000  Uiso   1.00
H593   H     0.88756   0.91418   0.19557   0.00000  Uiso   1.00
H594   H     0.89830   0.87605   0.15718   0.00000  Uiso   1.00
C595   C     0.00000   0.08740   0.75010   0.00000  Uiso   1.00
C596   C    -0.00000   0.24593   0.74991   0.00000  Uiso   1.00
C597   C     0.18963   0.19498   0.54417   0.00000  Uiso   1.00
C598   C     0.14006   0.15504   0.95238   0.00000  Uiso   1.00
C599   C     0.23776   0.20224   0.52196   0.00000  Uiso   1.00
C600   C     0.09176   0.14842   0.97438   0.00000  Uiso   1.00
C601   C     0.29016   0.02127   0.76868   0.00000  Uiso   1.00
C602   C     0.04317   0.31206   0.73134   0.00000  Uiso   1.00
C603   C     0.29012   0.31200   0.76853   0.00000  Uiso   1.00
C604   C     0.04322   0.02133   0.73150   0.00000  Uiso   1.00
C605   C     0.33329   0.29054   0.74988   0.00000  Uiso   1.00
C606   C     0.00004   0.04279   0.75014   0.00000  Uiso   1.00
C607   C     0.18339   0.14228   0.77925   0.00000  Uiso   1.00
C608   C     0.14994   0.19107   0.72077   0.00000  Uiso   1.00
C609   C     0.13367   0.14221   0.77939   0.00000  Uiso   1.00
C610   C     0.19965   0.19116   0.72064   0.00000  Uiso   1.00
C611   C     0.30624   0.16749   0.83615   0.00000  Uiso   1.00
C612   C     0.02710   0.16623   0.66379   0.00000  Uiso   1.00
C613   C     0.29139   0.17251   0.88522   0.00000  Uiso   1.00
C614   C     0.04180   0.16429   0.61435   0.00000  Uiso   1.00
C615   C     0.30457   0.19962   0.95400   0.00000  Uiso   1.00
C616   C     0.02608   0.14684   0.54325   0.00000  Uiso   1.00
C617   C     0.32213   0.19024   0.90856   0.00000  Uiso   1.00
C618   C     0.00959   0.15200   0.58960   0.00000  Uiso   1.00
C619   C     0.24354   0.16330   0.90799   0.00000  Uiso   1.00
C620   C     0.09005   0.17277   0.59201   0.00000  Uiso   1.00
C621   C     0.22399   0.17432   0.95321   0.00000  Uiso   1.00
C622   C     0.10757   0.16890   0.54509   0.00000  Uiso   1.00
C623   C     0.25565   0.19199   0.97663   0.00000  Uiso   1.00
C624   C     0.07494   0.15476   0.52070   0.00000  Uiso   1.00
C625   C     0.17393   0.16845   0.97550   0.00000  Uiso   1.00
C626   C     0.15693   0.17734   0.52214   0.00000  Uiso   1.00
Cu627  Cu    0.04689   0.16667   0.75000   0.00000  Uiso   1.00
Cu628  Cu    0.28645   0.16666   0.75000   0.00000  Uiso   1.00
H629   H     0.11366   0.18109   0.61251   0.00000  Uiso   1.00
H630   H     0.22234   0.14749   0.88918   0.00000  Uiso   1.00
H631   H     0.17903   0.20493   0.57860   0.00000  Uiso   1.00
H632   H     0.14924   0.15017   0.91664   0.00000  Uiso   1.00
H633   H     0.19572   0.12274   0.80260   0.00000  Uiso   1.00
H634   H     0.13760   0.21063   0.69744   0.00000  Uiso   1.00
N635   N     0.11736   0.16668   0.74999   0.00000  Uiso   1.00
N636   N     0.21597   0.16666   0.75001   0.00000  Uiso   1.00
O637   O     0.03958   0.10655   0.75000   0.00000  Uiso   1.00
O638   O     0.29375   0.22678   0.75000   0.00000  Uiso   1.00
O639   O     0.29372   0.10654   0.75000   0.00000  Uiso   1.00
O640   O     0.03961   0.22679   0.74999   0.00000  Uiso   1.00
O641   O     0.01852   0.16668   0.81492   0.00000  Uiso   1.00
O642   O     0.31481   0.16666   0.68508   0.00000  Uiso   1.00
O643   O     0.27267   0.16667   0.81492   0.00000  Uiso   1.00
O644   O     0.06067   0.16667   0.68508   0.00000  Uiso   1.00
F645   F     0.26670   0.21954   0.54546   0.00000  Uiso   1.00
F646   F     0.06175   0.13504   0.94981   0.00000  Uiso   1.00
F647   F     0.29595   0.14315   0.61032   0.00000  Uiso   1.00
F648   F     0.03535   0.19995   0.88718   0.00000  Uiso   1.00
F649   F     0.00198   0.21739   0.97527   0.00000  Uiso   1.00
F650   F     0.32756   0.13301   0.52083   0.00000  Uiso   1.00
F651   F     0.24820   0.04135   0.78800   0.00000  Uiso   1.00
F652   F     0.08513   0.29198   0.71202   0.00000  Uiso   1.00
F653   F     0.24813   0.29184   0.78768   0.00000  Uiso   1.00
F654   F     0.08521   0.04149   0.71235   0.00000  Uiso   1.00
N655   N     0.10038   0.11634   0.81039   0.00000  Uiso   1.00
H656   H     0.11241   0.08595   0.80475   0.00000  Uiso   1.00
H657   H     0.10156   0.12427   0.84292   0.00000  Uiso   1.00
N658   N     0.23291   0.21713   0.68974   0.00000  Uiso   1.00
H659   H     0.22089   0.24751   0.69557   0.00000  Uiso   1.00
H660   H     0.23163   0.20939   0.65718   0.00000  Uiso   1.00
C661   C     0.33334   0.08740   0.75010   0.00000  Uiso   1.00
C662   C     0.33333   0.24593   0.74991   0.00000  Uiso   1.00
C663   C     0.52297   0.19498   0.54417   0.00000  Uiso   1.00
C664   C     0.47339   0.15504   0.95238   0.00000  Uiso   1.00
C665   C     0.57109   0.20224   0.52196   0.00000  Uiso   1.00
C666   C     0.42509   0.14842   0.97438   0.00000  Uiso   1.00
C667   C     0.62349   0.02127   0.76868   0.00000  Uiso   1.00
C668   C     0.37651   0.31206   0.73134   0.00000  Uiso   1.00
C669   C     0.62345   0.31200   0.76853   0.00000  Uiso   1.00
C670   C     0.37655   0.02133   0.73150   0.00000  Uiso   1.00
C671   C     0.66663   0.29054   0.74988   0.00000  Uiso   1.00
C672   C     0.33337   0.04279   0.75014   0.00000  Uiso   1.00
C673   C     0.51672   0.14228   0.77925   0.00000  Uiso   1.00
C674   C     0.48327   0.19107   0.72077   0.00000  Uiso   1.00
C675   C     0.46700   0.14221   0.77939   0.00000  Uiso   1.00
C676   C     0.53299   0.19116   0.72064   0.00000  Uiso   1.00
C677   C     0.63957   0.16749   0.83615   0.00000  Uiso   1.00
C678   C     0.36044   0.16623   0.66379   0.00000  Uiso   1.00
C679   C     0.62472   0.17251   0.88522   0.00000  Uiso   1.00
C680   C     0.37514   0.16429   0.61435   0.00000  Uiso   1.00
C681   C     0.63790   0.19962   0.95400   0.00000  Uiso   1.00
C682   C     0.35941   0.14684   0.54325   0.00000  Uiso   1.00
C683   C     0.65547   0.19024   0.90856   0.00000  Uiso   1.00
C684   C     0.34292   0.15200   0.58960   0.00000  Uiso   1.00
C685   C     0.57688   0.16330   0.90799   0.00000  Uiso   1.00
C686   C     0.42338   0.17277   0.59201   0.00000  Uiso   1.00
C687   C     0.55732   0.17432   0.95321   0.00000  Uiso   1.00
C688   C     0.44090   0.16890   0.54509   0.00000  Uiso   1.00
C689   C     0.58898   0.19199   0.97663   0.00000  Uiso   1.00
C690   C     0.40827   0.15476   0.52070   0.00000  Uiso   1.00
C691   C     0.50726   0.16845   0.97550   0.00000  Uiso   1.00
C692   C     0.49026   0.17734   0.52214   0.00000  Uiso   1.00
Cu693  Cu    0.38022   0.16667   0.75000   0.00000  Uiso   1.00
Cu694  Cu    0.61978   0.16666   0.75000   0.00000  Uiso   1.00
H695   H     0.44699   0.18109   0.61251   0.00000  Uiso   1.00
H696   H     0.55568   0.14749   0.88918   0.00000  Uiso   1.00
H697   H     0.51237   0.20493   0.57860   0.00000  Uiso   1.00
H698   H     0.48257   0.15017   0.91664   0.00000  Uiso   1.00
H699   H     0.52905   0.12274   0.80260   0.00000  Uiso   1.00
H700   H     0.47094   0.21063   0.69744   0.00000  Uiso   1.00
N701   N     0.45069   0.16668   0.74999   0.00000  Uiso   1.00
N702   N     0.54931   0.16666   0.75001   0.00000  Uiso   1.00
O703   O     0.37291   0.10655   0.75000   0.00000  Uiso   1.00
O704   O     0.62709   0.22678   0.75000   0.00000  Uiso   1.00
O705   O     0.62706   0.10654   0.75000   0.00000  Uiso   1.00
O706   O     0.37294   0.22679   0.74999   0.00000  Uiso   1.00
O707   O     0.35186   0.16668   0.81492   0.00000  Uiso   1.00
O708   O     0.64814   0.16666   0.68508   0.00000  Uiso   1.00
O709   O     0.60600   0.16667   0.81492   0.00000  Uiso   1.00
O710   O     0.39400   0.16667   0.68508   0.00000  Uiso   1.00
F711   F     0.60003   0.21954   0.54546   0.00000  Uiso   1.00
F712   F     0.39508   0.13504   0.94981   0.00000  Uiso   1.00
F713   F     0.62928   0.14315   0.61032   0.00000  Uiso   1.00
F714   F     0.36868   0.19995   0.88718   0.00000  Uiso   1.00
F715   F     0.33531   0.21739   0.97527   0.00000  Uiso   1.00
F716   F     0.66089   0.13301   0.52083   0.00000  Uiso   1.00
F717   F     0.58153   0.04135   0.78800   0.00000  Uiso   1.00
F718   F     0.41847   0.29198   0.71202   0.00000  Uiso   1.00
F719   F     0.58146   0.29184   0.78768   0.00000  Uiso   1.00
F720   F     0.41854   0.04149   0.71235   0.00000  Uiso   1.00
N721   N     0.43371   0.11634   0.81039   0.00000  Uiso   1.00
H722   H     0.44574   0.08595   0.80475   0.00000  Uiso   1.00
H723   H     0.43490   0.12427   0.84292   0.00000  Uiso   1.00
N724   N     0.56624   0.21713   0.68974   0.00000  Uiso   1.00
H725   H     0.55423   0.24751   0.69557   0.00000  Uiso   1.00
H726   H     0.56496   0.20939   0.65718   0.00000  Uiso   1.00
C727   C     0.66667   0.08740   0.75010   0.00000  Uiso   1.00
C728   C     0.66666   0.24593   0.74991   0.00000  Uiso   1.00
C729   C     0.85630   0.19498   0.54417   0.00000  Uiso   1.00
C730   C     0.80673   0.15504   0.95238   0.00000  Uiso   1.00
C731   C     0.90443   0.20224   0.52196   0.00000  Uiso   1.00
C732   C     0.75843   0.14842   0.97438   0.00000  Uiso   1.00
C733   C     0.95683   0.02127   0.76868   0.00000  Uiso   1.00
C734   C     0.70984   0.31206   0.73134   0.00000  Uiso   1.00
C735   C     0.95678   0.31200   0.76853   0.00000  Uiso   1.00
C736   C     0.70988   0.02133   0.73150   0.00000  Uiso   1.00
C737   C     0.99996   0.29054   0.74988   0.00000  Uiso   1.00
C738   C     0.66670   0.04279   0.75014   0.00000  Uiso   1.00
C739   C     0.85005   0.14228   0.77925   0.00000  Uiso   1.00
C740   C     0.81661   0.19107   0.72077   0.00000  Uiso   1.00
C741   C     0.80034   0.14221   0.77939   0.00000  Uiso   1.00
C742   C     0.86632   0.19116   0.72064   0.00000  Uiso   1.00
C743   C     0.97291   0.16749   0.83615   0.00000  Uiso   1.00
C744   C     0.69377   0.16623   0.66379   0.00000  Uiso   1.00
C745   C     0.95805   0.17251   0.88522   0.00000  Uiso   1.00
C746   C     0.70847   0.16429   0.61435   0.00000  Uiso   1.00
C747   C     0.97124   0.19962   0.95400   0.00000  Uiso   1.00
C748   C     0.69275   0.14684   0.54325   0.00000  Uiso   1.00
C749   C     0.98880   0.19024   0.90856   0.00000  Uiso   1.00
C750   C     0.67625   0.15200   0.58960   0.00000  Uiso   1.00
C751   C     0.91021   0.16330   0.90799   0.00000  Uiso   1.00
C752   C     0.75672   0.17277   0.59201   0.00000  Uiso   1.00
C753   C     0.89066   0.17432   0.95321   0.00000  Uiso   1.00
C754   C     0.77424   0.16890   0.54509   0.00000  Uiso   1.00
C755   C     0.92232   0.19199   0.97663   0.00000  Uiso   1.00
C756   C     0.74160   0.15476   0.52070   0.00000  Uiso   1.00
C757   C     0.84059   0.16845   0.97550   0.00000  Uiso   1.00
C758   C     0.82359   0.17734   0.52214   0.00000  Uiso   1.00
Cu759  Cu    0.71355   0.16667   0.75000   0.00000  Uiso   1.00
Cu760  Cu    0.95311   0.16666   0.75000   0.00000  Uiso   1.00
H761   H     0.78032   0.18109   0.61251   0.00000  Uiso   1.00
H762   H     0.88901   0.14749   0.88918   0.00000  Uiso   1.00
H763   H     0.84570   0.20493   0.57860   0.00000  Uiso   1.00
H764   H     0.81590   0.15017   0.91664   0.00000  Uiso   1.00
H765   H     0.86238   0.12274   0.80260   0.00000  Uiso   1.00
H766   H     0.80427   0.21063   0.69744   0.00000  Uiso   1.00
N767   N     0.78403   0.16668   0.74999   0.00000  Uiso   1.00
N768   N     0.88264   0.16666   0.75001   0.00000  Uiso   1.00
O769   O     0.70625   0.10655   0.75000   0.00000  Uiso   1.00
O770   O     0.96042   0.22678   0.75000   0.00000  Uiso   1.00
O771   O     0.96039   0.10654   0.75000   0.00000  Uiso   1.00
O772   O     0.70628   0.22679   0.74999   0.00000  Uiso   1.00
O773   O     0.68519   0.16668   0.81492   0.00000  Uiso   1.00
O774   O     0.98148   0.16666   0.68508   0.00000  Uiso   1.00
O775   O     0.93933   0.16667   0.81492   0.00000  Uiso   1.00
O776   O     0.72733   0.16667   0.68508   0.00000  Uiso   1.00
F777   F     0.93337   0.21954   0.54546   0.00000  Uiso   1.00
F778   F     0.72842   0.13504   0.94981   0.00000  Uiso   1.00
F779   F     0.96261   0.14315   0.61032   0.00000  Uiso   1.00
F780   F     0.70201   0.19995   0.88718   0.00000  Uiso   1.00
F781   F     0.66865   0.21739   0.97527   0.00000  Uiso   1.00
F782   F     0.99422   0.13301   0.52083   0.00000  Uiso   1.00
F783   F     0.91486   0.04135   0.78800   0.00000  Uiso   1.00
F784   F     0.75180   0.29198   0.71202   0.00000  Uiso   1.00
F785   F     0.91480   0.29184   0.78768   0.00000  Uiso   1.00
F786   F     0.75187   0.04149   0.71235   0.00000  Uiso   1.00
N787   N     0.76705   0.11634   0.81039   0.00000  Uiso   1.00
H788   H     0.77908   0.08595   0.80475   0.00000  Uiso   1.00
H789   H     0.76823   0.12427   0.84292   0.00000  Uiso   1.00
N790   N     0.89958   0.21713   0.68974   0.00000  Uiso   1.00
H791   H     0.88756   0.24751   0.69557   0.00000  Uiso   1.00
H792   H     0.89830   0.20939   0.65718   0.00000  Uiso   1.00
C793   C     0.00000   0.42073   0.75010   0.00000  Uiso   1.00
C794   C    -0.00000   0.57927   0.74991   0.00000  Uiso   1.00
C795   C     0.18963   0.52831   0.54417   0.00000  Uiso   1.00
C796   C     0.14006   0.48837   0.95238   0.00000  Uiso   1.00
C797   C     0.23776   0.53557   0.52196   0.00000  Uiso   1.00
C798   C     0.09176   0.48175   0.97438   0.00000  Uiso   1.00
C799   C     0.29016   0.35460   0.76868   0.00000  Uiso   1.00
C800   C     0.04317   0.64539   0.73134   0.00000  Uiso   1.00
C801   C     0.29012   0.64533   0.76853   0.00000  Uiso   1.00
C802   C     0.04322   0.35467   0.73150   0.00000  Uiso   1.00
C803   C     0.33329   0.62387   0.74988   0.00000  Uiso   1.00
C804   C     0.00004   0.37612   0.75014   0.00000  Uiso   1.00
C805   C     0.18339   0.47562   0.77925   0.00000  Uiso   1.00
C806   C     0.14994   0.52440   0.72077   0.00000  Uiso   1.00
C807   C     0.13367   0.47554   0.77939   0.00000  Uiso   1.00
C808   C     0.19965   0.52450   0.72064   0.00000  Uiso   1.00
C809   C     0.30624   0.50082   0.83615   0.00000  Uiso   1.00
C810   C     0.02710   0.49956   0.66379   0.00000  Uiso   1.00
C811   C     0.29139   0.50584   0.88522   0.00000  Uiso   1.00
C812   C     0.04180   0.49762   0.61435   0.00000  Uiso   1.00
C813   C     0.30457   0.53295   0.95400   0.00000  Uiso   1.00
C814   C     0.02608   0.48017   0.54325   0.00000  Uiso   1.00
C815   C     0.32213   0.52358   0.90856   0.00000  Uiso   1.00
C816   C     0.00959   0.48533   0.58960   0.00000  Uiso   1.00
C817   C     0.24354   0.49663   0.90799   0.00000  Uiso   1.00
C818   C     0.09005   0.50611   0.59201   0.00000  Uiso   1.00
C819   C     0.22399   0.50765   0.95321   0.00000  Uiso   1.00
C820   C     0.10757   0.50223   0.54509   0.00000  Uiso   1.00
C821   C     0.25565   0.52533   0.97663   0.00000  Uiso   1.00
C822   C     0.07494   0.48809   0.52070   0.00000  Uiso   1.00
C823   C     0.17393   0.50178   0.97550   0.00000  Uiso   1.00
C824   C     0.15693   0.51067   0.52214   0.00000  Uiso   1.00
Cu825  Cu    0.04689   0.50001   0.75000   0.00000  Uiso   1.00
Cu826  Cu    0.28645   0.49999   0.75000   0.00000  Uiso   1.00
H827   H     0.11366   0.51443   0.61251   0.00000  Uiso   1.00
H828   H     0.22234   0.48083   0.88918   0.00000  Uiso   1.00
H829   H     0.17903   0.53827   0.57860   0.00000  Uiso   1.00
H830   H     0.14924   0.48350   0.91664   0.00000  Uiso   1.00
H831   H     0.19572   0.45608   0.80260   0.00000  Uiso   1.00
H832   H     0.13760   0.54396   0.69744   0.00000  Uiso   1.00
N833   N     0.11736   0.50001   0.74999   0.00000  Uiso   1.00
N834   N     0.21597   0.49999   0.75001   0.00000  Uiso   1.00
O835   O     0.03958   0.43989   0.75000   0.00000  Uiso   1.00
O836   O     0.29375   0.56011   0.75000   0.00000  Uiso   1.00
O837   O     0.29372   0.43988   0.75000   0.00000  Uiso   1.00
O838   O     0.03961   0.56012   0.74999   0.00000  Uiso   1.00
O839   O     0.01852   0.50001   0.81492   0.00000  Uiso   1.00
O840   O     0.31481   0.49999   0.68508   0.00000  Uiso   1.00
O841   O     0.27267   0.50000   0.81492   0.00000  Uiso   1.00
O842   O     0.06067   0.50000   0.68508   0.00000  Uiso   1.00
F843   F     0.26670   0.55287   0.54546   0.00000  Uiso   1.00
F844   F     0.06175   0.46837   0.94981   0.00000  Uiso   1.00
F845   F     0.29595   0.47648   0.61032   0.00000  Uiso   1.00
F846   F     0.03535   0.53329   0.88718   0.00000  Uiso   1.00
F847   F     0.00198   0.55072   0.97527   0.00000  Uiso   1.00
F848   F     0.32756   0.46634   0.52083   0.00000  Uiso   1.00
F849   F     0.24820   0.37468   0.78800   0.00000  Uiso   1.00
F850   F     0.08513   0.62531   0.71202   0.00000  Uiso   1.00
F851   F     0.24813   0.62517   0.78768   0.00000  Uiso   1.00
F852   F     0.08521   0.37482   0.71235   0.00000  Uiso   1.00
N853   N     0.10038   0.44968   0.81039   0.00000  Uiso   1.00
H854   H     0.11241   0.41928   0.80475   0.00000  Uiso   1.00
H855   H     0.10156   0.45760   0.84292   0.00000  Uiso   1.00
N856   N     0.23291   0.55046   0.68974   0.00000  Uiso   1.00
H857   H     0.22089   0.58084   0.69557   0.00000  Uiso   1.00
H858   H     0.23163   0.54272   0.65718   0.00000  Uiso   1.00
C859   C     0.33334   0.42073   0.75010   0.00000  Uiso   1.00
C860   C     0.33333   0.57927   0.74991   0.00000  Uiso   1.00
C861   C     0.52297   0.52831   0.54417   0.00000  Uiso   1.00
C862   C     0.47339   0.48837   0.95238   0.00000  Uiso   1.00
C863   C     0.57109   0.53557   0.52196   0.00000  Uiso   1.00
C864   C     0.42509   0.48175   0.97438   0.00000  Uiso   1.00
C865   C     0.62349   0.35460   0.76868   0.00000  Uiso   1.00
C866   C     0.37651   0.64539   0.73134   0.00000  Uiso   1.00
C867   C     0.62345   0.64533   0.76853   0.00000  Uiso   1.00
C868   C     0.37655   0.35467   0.73150   0.00000  Uiso   1.00
C869   C     0.66663   0.62387   0.74988   0.00000  Uiso   1.00
C870   C     0.33337   0.37612   0.75014   0.00000  Uiso   1.00
C871   C     0.51672   0.47562   0.77925   0.00000  Uiso   1.00
C872   C     0.48327   0.52440   0.72077   0.00000  Uiso   1.00
C873   C     0.46700   0.47554   0.77939   0.00000  Uiso   1.00
C874   C     0.53299   0.52450   0.72064   0.00000  Uiso   1.00
C875   C     0.63957   0.50082   0.83615   0.00000  Uiso   1.00
C876   C     0.36044   0.49956   0.66379   0.00000  Uiso   1.00
C877   C     0.62472   0.50584   0.88522   0.00000  Uiso   1.00
C878   C     0.37514   0.49762   0.61435   0.00000  Uiso   1.00
C879   C     0.63790   0.53295   0.95400   0.00000  Uiso   1.00
C880   C     0.35941   0.48017   0.54325   0.00000  Uiso   1.00
C881   C     0.65547   0.52358   0.90856   0.00000  Uiso   1.00
C882   C     0.34292   0.48533   0.58960   0.00000  Uiso   1.00
C883   C     0.57688   0.49663   0.90799   0.00000  Uiso   1.00
C884   C     0.42338   0.50611   0.59201   0.00000  Uiso   1.00
C885   C     0.55732   0.50765   0.95321   0.00000  Uiso   1.00
C886   C     0.44090   0.50223   0.54509   0.00000  Uiso   1.00
C887   C     0.58898   0.52533   0.97663   0.00000  Uiso   1.00
C888   C     0.40827   0.48809   0.52070   0.00000  Uiso   1.00
C889   C     0.50726   0.50178   0.97550   0.00000  Uiso   1.00
C890   C     0.49026   0.51067   0.52214   0.00000  Uiso   1.00
Cu891  Cu    0.38022   0.50001   0.75000   0.00000  Uiso   1.00
Cu892  Cu    0.61978   0.49999   0.75000   0.00000  Uiso   1.00
H893   H     0.44699   0.51443   0.61251   0.00000  Uiso   1.00
H894   H     0.55568   0.48083   0.88918   0.00000  Uiso   1.00
H895   H     0.51237   0.53827   0.57860   0.00000  Uiso   1.00
H896   H     0.48257   0.48350   0.91664   0.00000  Uiso   1.00
H897   H     0.52905   0.45608   0.80260   0.00000  Uiso   1.00
H898   H     0.47094   0.54396   0.69744   0.00000  Uiso   1.00
N899   N     0.45069   0.50001   0.74999   0.00000  Uiso   1.00
N900   N     0.54931   0.49999   0.75001   0.00000  Uiso   1.00
O901   O     0.37291   0.43989   0.75000   0.00000  Uiso   1.00
O902   O     0.62709   0.56011   0.75000   0.00000  Uiso   1.00
O903   O     0.62706   0.43988   0.75000   0.00000  Uiso   1.00
O904   O     0.37294   0.56012   0.74999   0.00000  Uiso   1.00
O905   O     0.35186   0.50001   0.81492   0.00000  Uiso   1.00
O906   O     0.64814   0.49999   0.68508   0.00000  Uiso   1.00
O907   O     0.60600   0.50000   0.81492   0.00000  Uiso   1.00
O908   O     0.39400   0.50000   0.68508   0.00000  Uiso   1.00
F909   F     0.60003   0.55287   0.54546   0.00000  Uiso   1.00
F910   F     0.39508   0.46837   0.94981   0.00000  Uiso   1.00
F911   F     0.62928   0.47648   0.61032   0.00000  Uiso   1.00
F912   F     0.36868   0.53329   0.88718   0.00000  Uiso   1.00
F913   F     0.33531   0.55072   0.97527   0.00000  Uiso   1.00
F914   F     0.66089   0.46634   0.52083   0.00000  Uiso   1.00
F915   F     0.58153   0.37468   0.78800   0.00000  Uiso   1.00
F916   F     0.41847   0.62531   0.71202   0.00000  Uiso   1.00
F917   F     0.58146   0.62517   0.78768   0.00000  Uiso   1.00
F918   F     0.41854   0.37482   0.71235   0.00000  Uiso   1.00
N919   N     0.43371   0.44968   0.81039   0.00000  Uiso   1.00
H920   H     0.44574   0.41928   0.80475   0.00000  Uiso   1.00
H921   H     0.43490   0.45760   0.84292   0.00000  Uiso   1.00
N922   N     0.56624   0.55046   0.68974   0.00000  Uiso   1.00
H923   H     0.55423   0.58084   0.69557   0.00000  Uiso   1.00
H924   H     0.56496   0.54272   0.65718   0.00000  Uiso   1.00
C925   C     0.66667   0.42073   0.75010   0.00000  Uiso   1.00
C926   C     0.66666   0.57927   0.74991   0.00000  Uiso   1.00
C927   C     0.85630   0.52831   0.54417   0.00000  Uiso   1.00
C928   C     0.80673   0.48837   0.95238   0.00000  Uiso   1.00
C929   C     0.90443   0.53557   0.52196   0.00000  Uiso   1.00
C930   C     0.75843   0.48175   0.97438   0.00000  Uiso   1.00
C931   C     0.95683   0.35460   0.76868   0.00000  Uiso   1.00
C932   C     0.70984   0.64539   0.73134   0.00000  Uiso   1.00
C933   C     0.95678   0.64533   0.76853   0.00000  Uiso   1.00
C934   C     0.70988   0.35467   0.73150   0.00000  Uiso   1.00
C935   C     0.99996   0.62387   0.74988   0.00000  Uiso   1.00
C936   C     0.66670   0.37612   0.75014   0.00000  Uiso   1.00
C937   C     0.85005   0.47562   0.77925   0.00000  Uiso   1.00
C938   C     0.81661   0.52440   0.72077   0.00000  Uiso   1.00
C939   C     0.80034   0.47554   0.77939   0.00000  Uiso   1.00
C940   C     0.86632   0.52450   0.72064   0.00000  Uiso   1.00
C941   C     0.97291   0.50082   0.83615   0.00000  Uiso   1.00
C942   C     0.69377   0.49956   0.66379   0.00000  Uiso   1.00
C943   C     0.95805   0.50584   0.88522   0.00000  Uiso   1.00
C944   C     0.70847   0.49762   0.61435   0.00000  Uiso   1.00
C945   C     0.97124   0.53295   0.95400   0.00000  Uiso   1.00
C946   C     0.69275   0.48017   0.54325   0.00000  Uiso   1.00
C947   C     0.98880   0.52358   0.90856   0.00000  Uiso   1.00
C948   C     0.67625   0.48533   0.58960   0.00000  Uiso   1.00
C949   C     0.91021   0.49663   0.90799   0.00000  Uiso   1.00
C950   C     0.75672   0.50611   0.59201   0.00000  Uiso   1.00
C951   C     0.89066   0.50765   0.95321   0.00000  Uiso   1.00
C952   C     0.77424   0.50223   0.54509   0.00000  Uiso   1.00
C953   C     0.92232   0.52533   0.97663   0.00000  Uiso   1.00
C954   C     0.74160   0.48809   0.52070   0.00000  Uiso   1.00
C955   C     0.84059   0.50178   0.97550   0.00000  Uiso   1.00
C956   C     0.82359   0.51067   0.52214   0.00000  Uiso   1.00
Cu957  Cu    0.71355   0.50001   0.75000   0.00000  Uiso   1.00
Cu958  Cu    0.95311   0.49999   0.75000   0.00000  Uiso   1.00
H959   H     0.78032   0.51443   0.61251   0.00000  Uiso   1.00
H960   H     0.88901   0.48083   0.88918   0.00000  Uiso   1.00
H961   H     0.84570   0.53827   0.57860   0.00000  Uiso   1.00
H962   H     0.81590   0.48350   0.91664   0.00000  Uiso   1.00
H963   H     0.86238   0.45608   0.80260   0.00000  Uiso   1.00
H964   H     0.80427   0.54396   0.69744   0.00000  Uiso   1.00
N965   N     0.78403   0.50001   0.74999   0.00000  Uiso   1.00
N966   N     0.88264   0.49999   0.75001   0.00000  Uiso   1.00
O967   O     0.70625   0.43989   0.75000   0.00000  Uiso   1.00
O968   O     0.96042   0.56011   0.75000   0.00000  Uiso   1.00
O969   O     0.96039   0.43988   0.75000   0.00000  Uiso   1.00
O970   O     0.70628   0.56012   0.74999   0.00000  Uiso   1.00
O971   O     0.68519   0.50001   0.81492   0.00000  Uiso   1.00
O972   O     0.98148   0.49999   0.68508   0.00000  Uiso   1.00
O973   O     0.93933   0.50000   0.81492   0.00000  Uiso   1.00
O974   O     0.72733   0.50000   0.68508   0.00000  Uiso   1.00
F975   F     0.93337   0.55287   0.54546   0.00000  Uiso   1.00
F976   F     0.72842   0.46837   0.94981   0.00000  Uiso   1.00
F977   F     0.96261   0.47648   0.61032   0.00000  Uiso   1.00
F978   F     0.70201   0.53329   0.88718   0.00000  Uiso   1.00
F979   F     0.66865   0.55072   0.97527   0.00000  Uiso   1.00
F980   F     0.99422   0.46634   0.52083   0.00000  Uiso   1.00
F981   F     0.91486   0.37468   0.78800   0.00000  Uiso   1.00
F982   F     0.75180   0.62531   0.71202   0.00000  Uiso   1.00
F983   F     0.91480   0.62517   0.78768   0.00000  Uiso   1.00
F984   F     0.75187   0.37482   0.71235   0.00000  Uiso   1.00
N985   N     0.76705   0.44968   0.81039   0.00000  Uiso   1.00
H986   H     0.77908   0.41928   0.80475   0.00000  Uiso   1.00
H987   H     0.76823   0.45760   0.84292   0.00000  Uiso   1.00
N988   N     0.89958   0.55046   0.68974   0.00000  Uiso   1.00
H989   H     0.88756   0.58084   0.69557   0.00000  Uiso   1.00
H990   H     0.89830   0.54272   0.65718   0.00000  Uiso   1.00
C991   C     0.00000   0.75407   0.75010   0.00000  Uiso   1.00
C992   C    -0.00000   0.91260   0.74991   0.00000  Uiso   1.00
C993   C     0.18963   0.86164   0.54417   0.00000  Uiso   1.00
C994   C     0.14006   0.82170   0.95238   0.00000  Uiso   1.00
C995   C     0.23776   0.86890   0.52196   0.00000  Uiso   1.00
C996   C     0.09176   0.81509   0.97438   0.00000  Uiso   1.00
C997   C     0.29016   0.68794   0.76868   0.00000  Uiso   1.00
C998   C     0.04317   0.97873   0.73134   0.00000  Uiso   1.00
C999   C     0.29012   0.97866   0.76853   0.00000  Uiso   1.00
C1000  C     0.04322   0.68800   0.73150   0.00000  Uiso   1.00
C1001  C     0.33329   0.95721   0.74988   0.00000  Uiso   1.00
C1002  C     0.00004   0.70946   0.75014   0.00000  Uiso   1.00
C1003  C     0.18339   0.80895   0.77925   0.00000  Uiso   1.00
C1004  C     0.14994   0.85774   0.72077   0.00000  Uiso   1.00
C1005  C     0.13367   0.80888   0.77939   0.00000  Uiso   1.00
C1006  C     0.19965   0.85783   0.72064   0.00000  Uiso   1.00
C1007  C     0.30624   0.83415   0.83615   0.00000  Uiso   1.00
C1008  C     0.02710   0.83289   0.66379   0.00000  Uiso   1.00
C1009  C     0.29139   0.83918   0.88522   0.00000  Uiso   1.00
C1010  C     0.04180   0.83095   0.61435   0.00000  Uiso   1.00
C1011  C     0.30457   0.86628   0.95400   0.00000  Uiso   1.00
C1012  C     0.02608   0.81350   0.54325   0.00000  Uiso   1.00
C1013  C     0.32213   0.85691   0.90856   0.00000  Uiso   1.00
C1014  C     0.00959   0.81866   0.58960   0.00000  Uiso   1.00
C1015  C     0.24354   0.82997   0.90799   0.00000  Uiso   1.00
C1016  C     0.09005   0.83944   0.59201   0.00000  Uiso   1.00
C1017  C     0.22399   0.84098   0.95321   0.00000  Uiso   1.00
C1018  C     0.10757   0.83557   0.54509   0.00000  Uiso   1.00
C1019  C     0.25565   0.85866   0.97663   0.00000  Uiso   1.00
C1020  C     0.07494   0.82143   0.52070   0.00000  Uiso   1.00
C1021  C     0.17393   0.83512   0.97550   0.00000  Uiso   1.00
C1022  C     0.15693   0.84400   0.52214   0.00000  Uiso   1.00
Cu1023 Cu    0.04689   0.83334   0.75000   0.00000  Uiso   1.00
Cu1024 Cu    0.28645   0.83333   0.75000   0.00000  Uiso   1.00
H1025  H     0.11366   0.84776   0.61251   0.00000  Uiso   1.00
H1026  H     0.22234   0.81416   0.88918   0.00000  Uiso   1.00
H1027  H     0.17903   0.87160   0.57860   0.00000  Uiso   1.00
H1028  H     0.14924   0.81683   0.91664   0.00000  Uiso   1.00
H1029  H     0.19572   0.78941   0.80260   0.00000  Uiso   1.00
H1030  H     0.13760   0.87730   0.69744   0.00000  Uiso   1.00
N1031  N     0.11736   0.83334   0.74999   0.00000  Uiso   1.00
N1032  N     0.21597   0.83332   0.75001   0.00000  Uiso   1.00
O1033  O     0.03958   0.77322   0.75000   0.00000  Uiso   1.00
O1034  O     0.29375   0.89345   0.75000   0.00000  Uiso   1.00
O1035  O     0.29372   0.77321   0.75000   0.00000  Uiso   1.00
O1036  O     0.03961   0.89346   0.74999   0.00000  Uiso   1.00
O1037  O     0.01852   0.83334   0.81492   0.00000  Uiso   1.00
O1038  O     0.31481   0.83332   0.68508   0.00000  Uiso   1.00
O1039  O     0.27267   0.83333   0.81492   0.00000  Uiso   1.00
O1040  O     0.06067   0.83333   0.68508   0.00000  Uiso   1.00
F1041  F     0.26670   0.88620   0.54546   0.00000  Uiso   1.00
F1042  F     0.06175   0.80171   0.94981   0.00000  Uiso   1.00
F1043  F     0.29595   0.80982   0.61032   0.00000  Uiso   1.00
F1044  F     0.03535   0.86662   0.88718   0.00000  Uiso   1.00
F1045  F     0.00198   0.88405   0.97527   0.00000  Uiso   1.00
F1046  F     0.32756   0.79967   0.52083   0.00000  Uiso   1.00
F1047  F     0.24820   0.70802   0.78800   0.00000  Uiso   1.00
F1048  F     0.08513   0.95865   0.71202   0.00000  Uiso   1.00
F1049  F     0.24813   0.95850   0.78768   0.00000  Uiso   1.00
F1050  F     0.08521   0.70816   0.71235   0.00000  Uiso   1.00
N1051  N     0.10038   0.78301   0.81039   0.00000  Uiso   1.00
H1052  H     0.11241   0.75262   0.80475   0.00000  Uiso   1.00
H1053  H     0.10156   0.79094   0.84292   0.00000  Uiso   1.00
N1054  N     0.23291   0.88379   0.68974   0.00000  Uiso   1.00
H1055  H     0.22089   0.91418   0.69557   0.00000  Uiso   1.00
H1056  H     0.23163   0.87605   0.65718   0.00000  Uiso   1.00
C1057  C     0.33334   0.75407   0.75010   0.00000  Uiso   1.00
C1058  C     0.33333   0.91260   0.74991   0.00000  Uiso   1.00
C1059  C     0.52297   0.86164   0.54417   0.00000  Uiso   1.00
C1060  C     0.47339   0.82170   0.95238   0.00000  Uiso   1.00
C1061  C     0.57109   0.86890   0.52196   0.00000  Uiso   1.00
C1062  C     0.42509   0.81509   0.97438   0.00000  Uiso   1.00
C1063  C     0.62349   0.68794   0.76868   0.00000  Uiso   1.00
C1064  C     0.37651   0.97873   0.73134   0.00000  Uiso   1.00
C1065  C     0.62345   0.97866   0.76853   0.00000  Uiso   1.00
C1066  C     0.37655   0.68800   0.73150   0.00000  Uiso   1.00
C1067  C     0.66663   0.95721   0.74988   0.00000  Uiso   1.00
C1068  C     0.33337   0.70946   0.75014   0.00000  Uiso   1.00
C1069  C     0.51672   0.80895   0.77925   0.00000  Uiso   1.00
C1070  C     0.48327   0.85774   0.72077   0.00000  Uiso   1.00
C1071  C     0.46700   0.80888   0.77939   0.00000  Uiso   1.00
C1072  C     0.53299   0.85783   0.72064   0.00000  Uiso   1.00
C1073  C     0.63957   0.83415   0.83615   0.00000  Uiso   1.00
C1074  C     0.36044   0.83289   0.66379   0.00000  Uiso   1.00
C1075  C     0.62472   0.83918   0.88522   0.00000  Uiso   1.00
C1076  C     0.37514   0.83095   0.61435   0.00000  Uiso   1.00
C1077  C     0.63790   0.86628   0.95400   0.00000  Uiso   1.00
C1078  C     0.35941   0.81350   0.54325   0.00000  Uiso   1.00
C1079  C     0.65547   0.85691   0.90856   0.00000  Uiso   1.00
C1080  C     0.34292   0.81866   0.58960   0.00000  Uiso   1.00
C1081  C     0.57688   0.82997   0.90799   0.00000  Uiso   1.00
C1082  C     0.42338   0.83944   0.59201   0.00000  Uiso   1.00
C1083  C     0.55732   0.84098   0.95321   0.00000  Uiso   1.00
C1084  C     0.44090   0.83557   0.54509   0.00000  Uiso   1.00
C1085  C     0.58898   0.85866   0.97663   0.00000  Uiso   1.00
C1086  C     0.40827   0.82143   0.52070   0.00000  Uiso   1.00
C1087  C     0.50726   0.83512   0.97550   0.00000  Uiso   1.00
C1088  C     0.49026   0.84400   0.52214   0.00000  Uiso   1.00
Cu1089 Cu    0.38022   0.83334   0.75000   0.00000  Uiso   1.00
Cu1090 Cu    0.61978   0.83333   0.75000   0.00000  Uiso   1.00
H1091  H     0.44699   0.84776   0.61251   0.00000  Uiso   1.00
H1092  H     0.55568   0.81416   0.88918   0.00000  Uiso   1.00
H1093  H     0.51237   0.87160   0.57860   0.00000  Uiso   1.00
H1094  H     0.48257   0.81683   0.91664   0.00000  Uiso   1.00
H1095  H     0.52905   0.78941   0.80260   0.00000  Uiso   1.00
H1096  H     0.47094   0.87730   0.69744   0.00000  Uiso   1.00
N1097  N     0.45069   0.83334   0.74999   0.00000  Uiso   1.00
N1098  N     0.54931   0.83332   0.75001   0.00000  Uiso   1.00
O1099  O     0.37291   0.77322   0.75000   0.00000  Uiso   1.00
O1100  O     0.62709   0.89345   0.75000   0.00000  Uiso   1.00
O1101  O     0.62706   0.77321   0.75000   0.00000  Uiso   1.00
O1102  O     0.37294   0.89346   0.74999   0.00000  Uiso   1.00
O1103  O     0.35186   0.83334   0.81492   0.00000  Uiso   1.00
O1104  O     0.64814   0.83332   0.68508   0.00000  Uiso   1.00
O1105  O     0.60600   0.83333   0.81492   0.00000  Uiso   1.00
O1106  O     0.39400   0.83333   0.68508   0.00000  Uiso   1.00
F1107  F     0.60003   0.88620   0.54546   0.00000  Uiso   1.00
F1108  F     0.39508   0.80171   0.94981   0.00000  Uiso   1.00
F1109  F     0.62928   0.80982   0.61032   0.00000  Uiso   1.00
F1110  F     0.36868   0.86662   0.88718   0.00000  Uiso   1.00
F1111  F     0.33531   0.88405   0.97527   0.00000  Uiso   1.00
F1112  F     0.66089   0.79967   0.52083   0.00000  Uiso   1.00
F1113  F     0.58153   0.70802   0.78800   0.00000  Uiso   1.00
F1114  F     0.41847   0.95865   0.71202   0.00000  Uiso   1.00
F1115  F     0.58146   0.95850   0.78768   0.00000  Uiso   1.00
F1116  F     0.41854   0.70816   0.71235   0.00000  Uiso   1.00
N1117  N     0.43371   0.78301   0.81039   0.00000  Uiso   1.00
H1118  H     0.44574   0.75262   0.80475   0.00000  Uiso   1.00
H1119  H     0.43490   0.79094   0.84292   0.00000  Uiso   1.00
N1120  N     0.56624   0.88379   0.68974   0.00000  Uiso   1.00
H1121  H     0.55423   0.91418   0.69557   0.00000  Uiso   1.00
H1122  H     0.56496   0.87605   0.65718   0.00000  Uiso   1.00
C1123  C     0.66667   0.75407   0.75010   0.00000  Uiso   1.00
C1124  C     0.66666   0.91260   0.74991   0.00000  Uiso   1.00
C1125  C     0.85630   0.86164   0.54417   0.00000  Uiso   1.00
C1126  C     0.80673   0.82170   0.95238   0.00000  Uiso   1.00
C1127  C     0.90443   0.86890   0.52196   0.00000  Uiso   1.00
C1128  C     0.75843   0.81509   0.97438   0.00000  Uiso   1.00
C1129  C     0.95683   0.68794   0.76868   0.00000  Uiso   1.00
C1130  C     0.70984   0.97873   0.73134   0.00000  Uiso   1.00
C1131  C     0.95678   0.97866   0.76853   0.00000  Uiso   1.00
C1132  C     0.70988   0.68800   0.73150   0.00000  Uiso   1.00
C1133  C     0.99996   0.95721   0.74988   0.00000  Uiso   1.00
C1134  C     0.66670   0.70946   0.75014   0.00000  Uiso   1.00
C1135  C     0.85005   0.80895   0.77925   0.00000  Uiso   1.00
C1136  C     0.81661   0.85774   0.72077   0.00000  Uiso   1.00
C1137  C     0.80034   0.80888   0.77939   0.00000  Uiso   1.00
C1138  C     0.86632   0.85783   0.72064   0.00000  Uiso   1.00
C1139  C     0.97291   0.83415   0.83615   0.00000  Uiso   1.00
C1140  C     0.69377   0.83289   0.66379   0.00000  Uiso   1.00
C1141  C     0.95805   0.83918   0.88522   0.00000  Uiso   1.00
C1142  C     0.70847   0.83095   0.61435   0.00000  Uiso   1.00
C1143  C     0.97124   0.86628   0.95400   0.00000  Uiso   1.00
C1144  C     0.69275   0.81350   0.54325   0.00000  Uiso   1.00
C1145  C     0.98880   0.85691   0.90856   0.00000  Uiso   1.00
C1146  C     0.67625   0.81866   0.58960   0.00000  Uiso   1.00
C1147  C     0.91021   0.82997   0.90799   0.00000  Uiso   1.00
C1148  C     0.75672   0.83944   0.59201   0.00000  Uiso   1.00
C1149  C     0.89066   0.84098   0.95321   0.00000  Uiso   1.00
C1150  C     0.77424   0.83557   0.54509   0.00000  Uiso   1.00
C1151  C     0.92232   0.85866   0.97663   0.00000  Uiso   1.00
C1152  C     0.74160   0.82143   0.52070   0.00000  Uiso   1.00
C1153  C     0.84059   0.83512   0.97550   0.00000  Uiso   1.00
C1154  C     0.82359   0.84400   0.52214   0.00000  Uiso   1.00
Cu1155 Cu    0.71355   0.83334   0.75000   0.00000  Uiso   1.00
Cu1156 Cu    0.95311   0.83333   0.75000   0.00000  Uiso   1.00
H1157  H     0.78032   0.84776   0.61251   0.00000  Uiso   1.00
H1158  H     0.88901   0.81416   0.88918   0.00000  Uiso   1.00
H1159  H     0.84570   0.87160   0.57860   0.00000  Uiso   1.00
H1160  H     0.81590   0.81683   0.91664   0.00000  Uiso   1.00
H1161  H     0.86238   0.78941   0.80260   0.00000  Uiso   1.00
H1162  H     0.80427   0.87730   0.69744   0.00000  Uiso   1.00
N1163  N     0.78403   0.83334   0.74999   0.00000  Uiso   1.00
N1164  N     0.88264   0.83332   0.75001   0.00000  Uiso   1.00
O1165  O     0.70625   0.77322   0.75000   0.00000  Uiso   1.00
O1166  O     0.96042   0.89345   0.75000   0.00000  Uiso   1.00
O1167  O     0.96039   0.77321   0.75000   0.00000  Uiso   1.00
O1168  O     0.70628   0.89346   0.74999   0.00000  Uiso   1.00
O1169  O     0.68519   0.83334   0.81492   0.00000  Uiso   1.00
O1170  O     0.98148   0.83332   0.68508   0.00000  Uiso   1.00
O1171  O     0.93933   0.83333   0.81492   0.00000  Uiso   1.00
O1172  O     0.72733   0.83333   0.68508   0.00000  Uiso   1.00
F1173  F     0.93337   0.88620   0.54546   0.00000  Uiso   1.00
F1174  F     0.72842   0.80171   0.94981   0.00000  Uiso   1.00
F1175  F     0.96261   0.80982   0.61032   0.00000  Uiso   1.00
F1176  F     0.70201   0.86662   0.88718   0.00000  Uiso   1.00
F1177  F     0.66865   0.88405   0.97527   0.00000  Uiso   1.00
F1178  F     0.99422   0.79967   0.52083   0.00000  Uiso   1.00
F1179  F     0.91486   0.70802   0.78800   0.00000  Uiso   1.00
F1180  F     0.75180   0.95865   0.71202   0.00000  Uiso   1.00
F1181  F     0.91480   0.95850   0.78768   0.00000  Uiso   1.00
F1182  F     0.75187   0.70816   0.71235   0.00000  Uiso   1.00
N1183  N     0.76705   0.78301   0.81039   0.00000  Uiso   1.00
H1184  H     0.77908   0.75262   0.80475   0.00000  Uiso   1.00
H1185  H     0.76823   0.79094   0.84292   0.00000  Uiso   1.00
N1186  N     0.89958   0.88379   0.68974   0.00000  Uiso   1.00
H1187  H     0.88756   0.91418   0.69557   0.00000  Uiso   1.00
H1188  H     0.89830   0.87605   0.65718   0.00000  Uiso   1.00
loop_
_geom_bond_atom_site_label_1
_geom_bond_atom_site_label_2
_geom_bond_distance
_geom_bond_site_symmetry_2
_ccdc_geom_bond_type
C1     C12     1.449   .     S
C1     O43     1.292   .     A
C1     O177    1.291   1_455 S
C2     C143    1.449   1_455 S
C2     O176    1.292   1_455 A
C2     O46     1.291   .     S
C3     C5      1.387   .     A
C3     C32     1.416   .     A
C3     H37     1.076   .     S
C4     C31     1.415   .     A
C4     C6      1.386   .     A
C4     H38     1.076   .     S
C5     F51     1.359   .     S
C5     C623    1.398   1_554 S
C6     F52     1.358   .     S
C6     C624    1.398   .     S
C7     F57     1.359   .     S
C7     C405    1.384   1_545 S
C7     C78     1.404   .     S
C8     F58     1.359   .     S
C8     C208    1.384   .     S
C8     C143    1.404   1_455 S
C9     C11     1.403   .     A
C9     F59     1.359   .     S
C9     C205    1.384   .     S
C10    F60     1.359   .     S
C10    C12     1.403   .     A
C10    C404    1.384   1_545 S
C11    C68     1.449   .     S
C11    C74     1.404   .     S
C12    C139    1.404   1_455 S
C13    N42     1.364   .     A
C13    C15     1.420   .     A
C13    H39     1.082   .     S
C14    H40     1.082   .     S
C14    N41     1.364   .     A
C14    C16     1.420   .     A
C15    N61     1.429   .     S
C15    N41     1.371   .     A
C16    N42     1.371   .     A
C16    N64     1.429   .     S
C17    C19     1.469   .     S
C17    O49     1.296   .     A
C17    O113    1.297   .     S
C18    C20     1.472   .     S
C18    O50     1.297   .     A
C18    O180    1.298   1_455 S
C19    C25     1.396   .     A
C19    C23     1.400   .     A
C20    C26     1.398   .     A
C20    C24     1.401   .     A
C21    C23     1.393   .     A
C21    C29     1.411   .     A
C21    F121    1.358   .     S
C22    C30     1.411   .     A
C22    C24     1.393   .     A
C22    F188    1.358   1_455 S
C23    F120    1.358   .     S
C24    F185    1.358   1_455 S
C25    H36     1.075   .     S
C25    C27     1.407   .     A
C26    C28     1.407   .     A
C26    H35     1.074   .     S
C27    C29     1.421   .     A
C27    C31     1.429   .     A
C28    C30     1.421   .     A
C28    C32     1.429   .     A
C29    C599    1.398   .     S
C30    C600    1.398   1_554 S
C31    C626    1.422   .     S
C32    C625    1.422   1_554 S
Cu33   N41     2.015   .     S
Cu33   O46     1.964   .     S
Cu33   O47     1.951   .     S
Cu33   O43     1.965   .     S
Cu33   O50     1.935   .     S
Cu33   Cu166   2.681   1_455 S
Cu34   N42     2.015   .     S
Cu34   O44     1.965   .     S
Cu34   O45     1.964   .     S
Cu34   O48     1.951   .     S
Cu34   O49     1.935   .     S
Cu34   Cu99    2.681   .     S
O44    C68     1.292   .     A
O45    C67     1.291   .     S
O47    C149    1.297   1_455 S
O48    C84     1.298   .     S
F53    C90     1.358   .     S
F54    C155    1.358   1_455 S
F55    C153    1.358   1_455 S
F56    C88     1.358   .     S
N61    H62     1.046   .     S
N61    H63     1.046   .     S
N64    H65     1.046   .     S
N64    H66     1.046   .     S
C67    C78     1.449   .     S
C67    O109    1.292   .     A
C68    O112    1.291   .     S
C69    C71     1.387   .     A
C69    C98     1.416   .     A
C69    H103    1.076   .     S
C70    C97     1.415   .     A
C70    C72     1.386   .     A
C70    H104    1.076   .     S
C71    F117    1.359   .     S
C71    C689    1.398   1_554 S
C72    F118    1.358   .     S
C72    C690    1.398   .     S
C73    F123    1.359   .     S
C73    C471    1.384   1_545 S
C73    C144    1.404   .     S
C74    F124    1.359   .     S
C74    C274    1.384   .     S
C75    C77     1.403   .     A
C75    F125    1.359   .     S
C75    C271    1.384   .     S
C76    F126    1.359   .     S
C76    C78     1.403   .     A
C76    C470    1.384   1_545 S
C77    C134    1.449   .     S
C77    C140    1.404   .     S
C79    N108    1.364   .     A
C79    C81     1.420   .     A
C79    H105    1.082   .     S
C80    H106    1.082   .     S
C80    N107    1.364   .     A
C80    C82     1.420   .     A
C81    N127    1.429   .     S
C81    N107    1.371   .     A
C82    N108    1.371   .     A
C82    N130    1.429   .     S
C83    C85     1.469   .     S
C83    O115    1.296   .     A
C83    O179    1.297   .     S
C84    C86     1.472   .     S
C84    O116    1.297   .     A
C85    C91     1.396   .     A
C85    C89     1.400   .     A
C86    C92     1.398   .     A
C86    C90     1.401   .     A
C87    C89     1.393   .     A
C87    C95     1.411   .     A
C87    F187    1.358   .     S
C88    C96     1.411   .     A
C88    C90     1.393   .     A
C89    F186    1.358   .     S
C91    H102    1.075   .     S
C91    C93     1.407   .     A
C92    C94     1.407   .     A
C92    H101    1.074   .     S
C93    C95     1.421   .     A
C93    C97     1.429   .     A
C94    C96     1.421   .     A
C94    C98     1.429   .     A
C95    C665    1.398   .     S
C96    C666    1.398   1_554 S
C97    C692    1.422   .     S
C98    C691    1.422   1_554 S
Cu99   N107    2.015   .     S
Cu99   O112    1.964   .     S
Cu99   O113    1.951   .     S
Cu99   O109    1.965   .     S
Cu99   O116    1.935   .     S
Cu100  N108    2.015   .     S
Cu100  O110    1.965   .     S
Cu100  O111    1.964   .     S
Cu100  O114    1.951   .     S
Cu100  O115    1.935   .     S
Cu100  Cu165   2.681   .     S
O110   C134    1.292   .     A
O111   C133    1.291   .     S
O114   C150    1.298   .     S
F119   C156    1.358   .     S
F122   C154    1.358   .     S
N127   H128    1.046   .     S
N127   H129    1.046   .     S
N130   H131    1.046   .     S
N130   H132    1.046   .     S
C133   C144    1.449   .     S
C133   O175    1.292   .     A
C134   O178    1.291   .     S
C135   C137    1.387   .     A
C135   C164    1.416   .     A
C135   H169    1.076   .     S
C136   C163    1.415   .     A
C136   C138    1.386   .     A
C136   H170    1.076   .     S
C137   F183    1.359   .     S
C137   C755    1.398   1_554 S
C138   F184    1.358   .     S
C138   C756    1.398   .     S
C139   F189    1.359   .     S
C139   C537    1.384   1_545 S
C139   C12     1.404   1_655 S
C140   F190    1.359   .     S
C140   C340    1.384   .     S
C141   C143    1.403   .     A
C141   F191    1.359   .     S
C141   C337    1.384   .     S
C142   F192    1.359   .     S
C142   C144    1.403   .     A
C142   C536    1.384   1_545 S
C143   C2      1.449   1_655 S
C143   C8      1.404   1_655 S
C145   N174    1.364   .     A
C145   C147    1.420   .     A
C145   H171    1.082   .     S
C146   H172    1.082   .     S
C146   N173    1.364   .     A
C146   C148    1.420   .     A
C147   N193    1.429   .     S
C147   N173    1.371   .     A
C148   N174    1.371   .     A
C148   N196    1.429   .     S
C149   C151    1.469   .     S
C149   O181    1.296   .     A
C149   O47     1.297   1_655 S
C150   C152    1.472   .     S
C150   O182    1.297   .     A
C151   C157    1.396   .     A
C151   C155    1.400   .     A
C152   C158    1.398   .     A
C152   C156    1.401   .     A
C153   C155    1.393   .     A
C153   C161    1.411   .     A
C153   F55     1.358   1_655 S
C154   C162    1.411   .     A
C154   C156    1.393   .     A
C155   F54     1.358   1_655 S
C157   H168    1.075   .     S
C157   C159    1.407   .     A
C158   C160    1.407   .     A
C158   H167    1.074   .     S
C159   C161    1.421   .     A
C159   C163    1.429   .     A
C160   C162    1.421   .     A
C160   C164    1.429   .     A
C161   C731    1.398   .     S
C162   C732    1.398   1_554 S
C163   C758    1.422   .     S
C164   C757    1.422   1_554 S
Cu165  N173    2.015   .     S
Cu165  O178    1.964   .     S
Cu165  O179    1.951   .     S
Cu165  O175    1.965   .     S
Cu165  O182    1.935   .     S
Cu166  N174    2.015   .     S
Cu166  O176    1.965   .     S
Cu166  O177    1.964   .     S
Cu166  O180    1.951   .     S
Cu166  O181    1.935   .     S
Cu166  Cu33    2.681   1_655 S
O176   C2      1.292   1_655 A
O177   C1      1.291   1_655 S
O180   C18     1.298   1_655 S
F185   C24     1.358   1_655 S
F188   C22     1.358   1_655 S
N193   H194    1.046   .     S
N193   H195    1.046   .     S
N196   H197    1.046   .     S
N196   H198    1.046   .     S
C199   C210    1.449   .     S
C199   O241    1.292   .     A
C199   O375    1.291   1_455 S
C200   C341    1.449   1_455 S
C200   O374    1.292   1_455 A
C200   O244    1.291   .     S
C201   C203    1.387   .     A
C201   C230    1.416   .     A
C201   H235    1.076   .     S
C202   C229    1.415   .     A
C202   C204    1.386   .     A
C202   H236    1.076   .     S
C203   F249    1.359   .     S
C203   C821    1.398   1_554 S
C204   F250    1.358   .     S
C204   C822    1.398   .     S
C205   F255    1.359   .     S
C205   C276    1.404   .     S
C206   F256    1.359   .     S
C206   C406    1.384   .     S
C206   C341    1.404   1_455 S
C207   C209    1.403   .     A
C207   F257    1.359   .     S
C207   C403    1.384   .     S
C208   F258    1.359   .     S
C208   C210    1.403   .     A
C209   C266    1.449   .     S
C209   C272    1.404   .     S
C210   C337    1.404   1_455 S
C211   N240    1.364   .     A
C211   C213    1.420   .     A
C211   H237    1.082   .     S
C212   H238    1.082   .     S
C212   N239    1.364   .     A
C212   C214    1.420   .     A
C213   N259    1.429   .     S
C213   N239    1.371   .     A
C214   N240    1.371   .     A
C214   N262    1.429   .     S
C215   C217    1.469   .     S
C215   O247    1.296   .     A
C215   O311    1.297   .     S
C216   C218    1.472   .     S
C216   O248    1.297   .     A
C216   O378    1.298   1_455 S
C217   C223    1.396   .     A
C217   C221    1.400   .     A
C218   C224    1.398   .     A
C218   C222    1.401   .     A
C219   C221    1.393   .     A
C219   C227    1.411   .     A
C219   F319    1.358   .     S
C220   C228    1.411   .     A
C220   C222    1.393   .     A
C220   F386    1.358   1_455 S
C221   F318    1.358   .     S
C222   F383    1.358   1_455 S
C223   H234    1.075   .     S
C223   C225    1.407   .     A
C224   C226    1.407   .     A
C224   H233    1.074   .     S
C225   C227    1.421   .     A
C225   C229    1.429   .     A
C226   C228    1.421   .     A
C226   C230    1.429   .     A
C227   C797    1.398   .     S
C228   C798    1.398   1_554 S
C229   C824    1.422   .     S
C230   C823    1.422   1_554 S
Cu231  N239    2.015   .     S
Cu231  O244    1.964   .     S
Cu231  O245    1.951   .     S
Cu231  O241    1.965   .     S
Cu231  O248    1.935   .     S
Cu231  Cu364   2.681   1_455 S
Cu232  N240    2.015   .     S
Cu232  O242    1.965   .     S
Cu232  O243    1.964   .     S
Cu232  O246    1.951   .     S
Cu232  O247    1.935   .     S
Cu232  Cu297   2.681   .     S
O242   C266    1.292   .     A
O243   C265    1.291   .     S
O245   C347    1.297   1_455 S
O246   C282    1.298   .     S
F251   C288    1.358   .     S
F252   C353    1.358   1_455 S
F253   C351    1.358   1_455 S
F254   C286    1.358   .     S
N259   H260    1.046   .     S
N259   H261    1.046   .     S
N262   H263    1.046   .     S
N262   H264    1.046   .     S
C265   C276    1.449   .     S
C265   O307    1.292   .     A
C266   O310    1.291   .     S
C267   C269    1.387   .     A
C267   C296    1.416   .     A
C267   H301    1.076   .     S
C268   C295    1.415   .     A
C268   C270    1.386   .     A
C268   H302    1.076   .     S
C269   F315    1.359   .     S
C269   C887    1.398   1_554 S
C270   F316    1.358   .     S
C270   C888    1.398   .     S
C271   F321    1.359   .     S
C271   C342    1.404   .     S
C272   F322    1.359   .     S
C272   C472    1.384   .     S
C273   C275    1.403   .     A
C273   F323    1.359   .     S
C273   C469    1.384   .     S
C274   F324    1.359   .     S
C274   C276    1.403   .     A
C275   C332    1.449   .     S
C275   C338    1.404   .     S
C277   N306    1.364   .     A
C277   C279    1.420   .     A
C277   H303    1.082   .     S
C278   H304    1.082   .     S
C278   N305    1.364   .     A
C278   C280    1.420   .     A
C279   N325    1.429   .     S
C279   N305    1.371   .     A
C280   N306    1.371   .     A
C280   N328    1.429   .     S
C281   C283    1.469   .     S
C281   O313    1.296   .     A
C281   O377    1.297   .     S
C282   C284    1.472   .     S
C282   O314    1.297   .     A
C283   C289    1.396   .     A
C283   C287    1.400   .     A
C284   C290    1.398   .     A
C284   C288    1.401   .     A
C285   C287    1.393   .     A
C285   C293    1.411   .     A
C285   F385    1.358   .     S
C286   C294    1.411   .     A
C286   C288    1.393   .     A
C287   F384    1.358   .     S
C289   H300    1.075   .     S
C289   C291    1.407   .     A
C290   C292    1.407   .     A
C290   H299    1.074   .     S
C291   C293    1.421   .     A
C291   C295    1.429   .     A
C292   C294    1.421   .     A
C292   C296    1.429   .     A
C293   C863    1.398   .     S
C294   C864    1.398   1_554 S
C295   C890    1.422   .     S
C296   C889    1.422   1_554 S
Cu297  N305    2.015   .     S
Cu297  O310    1.964   .     S
Cu297  O311    1.951   .     S
Cu297  O307    1.965   .     S
Cu297  O314    1.935   .     S
Cu298  N306    2.015   .     S
Cu298  O308    1.965   .     S
Cu298  O309    1.964   .     S
Cu298  O312    1.951   .     S
Cu298  O313    1.935   .     S
Cu298  Cu363   2.681   .     S
O308   C332    1.292   .     A
O309   C331    1.291   .     S
O312   C348    1.298   .     S
F317   C354    1.358   .     S
F320   C352    1.358   .     S
N325   H326    1.046   .     S
N325   H327    1.046   .     S
N328   H329    1.046   .     S
N328   H330    1.046   .     S
C331   C342    1.449   .     S
C331   O373    1.292   .     A
C332   O376    1.291   .     S
C333   C335    1.387   .     A
C333   C362    1.416   .     A
C333   H367    1.076   .     S
C334   C361    1.415   .     A
C334   C336    1.386   .     A
C334   H368    1.076   .     S
C335   F381    1.359   .     S
C335   C953    1.398   1_554 S
C336   F382    1.358   .     S
C336   C954    1.398   .     S
C337   F387    1.359   .     S
C337   C210    1.404   1_655 S
C338   F388    1.359   .     S
C338   C538    1.384   .     S
C339   C341    1.403   .     A
C339   F389    1.359   .     S
C339   C535    1.384   .     S
C340   F390    1.359   .     S
C340   C342    1.403   .     A
C341   C200    1.449   1_655 S
C341   C206    1.404   1_655 S
C343   N372    1.364   .     A
C343   C345    1.420   .     A
C343   H369    1.082   .     S
C344   H370    1.082   .     S
C344   N371    1.364   .     A
C344   C346    1.420   .     A
C345   N391    1.429   .     S
C345   N371    1.371   .     A
C346   N372    1.371   .     A
C346   N394    1.429   .     S
C347   C349    1.469   .     S
C347   O379    1.296   .     A
C347   O245    1.297   1_655 S
C348   C350    1.472   .     S
C348   O380    1.297   .     A
C349   C355    1.396   .     A
C349   C353    1.400   .     A
C350   C356    1.398   .     A
C350   C354    1.401   .     A
C351   C353    1.393   .     A
C351   C359    1.411   .     A
C351   F253    1.358   1_655 S
C352   C360    1.411   .     A
C352   C354    1.393   .     A
C353   F252    1.358   1_655 S
C355   H366    1.075   .     S
C355   C357    1.407   .     A
C356   C358    1.407   .     A
C356   H365    1.074   .     S
C357   C359    1.421   .     A
C357   C361    1.429   .     A
C358   C360    1.421   .     A
C358   C362    1.429   .     A
C359   C929    1.398   .     S
C360   C930    1.398   1_554 S
C361   C956    1.422   .     S
C362   C955    1.422   1_554 S
Cu363  N371    2.015   .     S
Cu363  O376    1.964   .     S
Cu363  O377    1.951   .     S
Cu363  O373    1.965   .     S
Cu363  O380    1.935   .     S
Cu364  N372    2.015   .     S
Cu364  O374    1.965   .     S
Cu364  O375    1.964   .     S
Cu364  O378    1.951   .     S
Cu364  O379    1.935   .     S
Cu364  Cu231   2.681   1_655 S
O374   C200    1.292   1_655 A
O375   C199    1.291   1_655 S
O378   C216    1.298   1_655 S
F383   C222    1.358   1_655 S
F386   C220    1.358   1_655 S
N391   H392    1.046   .     S
N391   H393    1.046   .     S
N394   H395    1.046   .     S
N394   H396    1.046   .     S
C397   C408    1.449   .     S
C397   O439    1.292   .     A
C397   O573    1.291   1_455 S
C398   C539    1.449   1_455 S
C398   O572    1.292   1_455 A
C398   O442    1.291   .     S
C399   C401    1.387   .     A
C399   C428    1.416   .     A
C399   H433    1.076   .     S
C400   C427    1.415   .     A
C400   C402    1.386   .     A
C400   H434    1.076   .     S
C401   F447    1.359   .     S
C401   C1019   1.398   1_554 S
C402   F448    1.358   .     S
C402   C1020   1.398   .     S
C403   F453    1.359   .     S
C403   C474    1.404   .     S
C404   F454    1.359   .     S
C404   C10     1.384   1_565 S
C404   C539    1.404   1_455 S
C405   C407    1.403   .     A
C405   F455    1.359   .     S
C405   C7      1.384   1_565 S
C406   F456    1.359   .     S
C406   C408    1.403   .     A
C407   C464    1.449   .     S
C407   C470    1.404   .     S
C408   C535    1.404   1_455 S
C409   N438    1.364   .     A
C409   C411    1.420   .     A
C409   H435    1.082   .     S
C410   H436    1.082   .     S
C410   N437    1.364   .     A
C410   C412    1.420   .     A
C411   N457    1.429   .     S
C411   N437    1.371   .     A
C412   N438    1.371   .     A
C412   N460    1.429   .     S
C413   C415    1.469   .     S
C413   O445    1.296   .     A
C413   O509    1.297   .     S
C414   C416    1.472   .     S
C414   O446    1.297   .     A
C414   O576    1.298   1_455 S
C415   C421    1.396   .     A
C415   C419    1.400   .     A
C416   C422    1.398   .     A
C416   C420    1.401   .     A
C417   C419    1.393   .     A
C417   C425    1.411   .     A
C417   F517    1.358   .     S
C418   C426    1.411   .     A
C418   C420    1.393   .     A
C418   F584    1.358   1_455 S
C419   F516    1.358   .     S
C420   F581    1.358   1_455 S
C421   H432    1.075   .     S
C421   C423    1.407   .     A
C422   C424    1.407   .     A
C422   H431    1.074   .     S
C423   C425    1.421   .     A
C423   C427    1.429   .     A
C424   C426    1.421   .     A
C424   C428    1.429   .     A
C425   C995    1.398   .     S
C426   C996    1.398   1_554 S
C427   C1022   1.422   .     S
C428   C1021   1.422   1_554 S
Cu429  N437    2.015   .     S
Cu429  O442    1.964   .     S
Cu429  O443    1.951   .     S
Cu429  O439    1.965   .     S
Cu429  O446    1.935   .     S
Cu429  Cu562   2.681   1_455 S
Cu430  N438    2.015   .     S
Cu430  O440    1.965   .     S
Cu430  O441    1.964   .     S
Cu430  O444    1.951   .     S
Cu430  O445    1.935   .     S
Cu430  Cu495   2.681   .     S
O440   C464    1.292   .     A
O441   C463    1.291   .     S
O443   C545    1.297   1_455 S
O444   C480    1.298   .     S
F449   C486    1.358   .     S
F450   C551    1.358   1_455 S
F451   C549    1.358   1_455 S
F452   C484    1.358   .     S
N457   H458    1.046   .     S
N457   H459    1.046   .     S
N460   H461    1.046   .     S
N460   H462    1.046   .     S
C463   C474    1.449   .     S
C463   O505    1.292   .     A
C464   O508    1.291   .     S
C465   C467    1.387   .     A
C465   C494    1.416   .     A
C465   H499    1.076   .     S
C466   C493    1.415   .     A
C466   C468    1.386   .     A
C466   H500    1.076   .     S
C467   F513    1.359   .     S
C467   C1085   1.398   1_554 S
C468   F514    1.358   .     S
C468   C1086   1.398   .     S
C469   F519    1.359   .     S
C469   C540    1.404   .     S
C470   F520    1.359   .     S
C470   C76     1.384   1_565 S
C471   C473    1.403   .     A
C471   F521    1.359   .     S
C471   C73     1.384   1_565 S
C472   F522    1.359   .     S
C472   C474    1.403   .     A
C473   C530    1.449   .     S
C473   C536    1.404   .     S
C475   N504    1.364   .     A
C475   C477    1.420   .     A
C475   H501    1.082   .     S
C476   H502    1.082   .     S
C476   N503    1.364   .     A
C476   C478    1.420   .     A
C477   N523    1.429   .     S
C477   N503    1.371   .     A
C478   N504    1.371   .     A
C478   N526    1.429   .     S
C479   C481    1.469   .     S
C479   O511    1.296   .     A
C479   O575    1.297   .     S
C480   C482    1.472   .     S
C480   O512    1.297   .     A
C481   C487    1.396   .     A
C481   C485    1.400   .     A
C482   C488    1.398   .     A
C482   C486    1.401   .     A
C483   C485    1.393   .     A
C483   C491    1.411   .     A
C483   F583    1.358   .     S
C484   C492    1.411   .     A
C484   C486    1.393   .     A
C485   F582    1.358   .     S
C487   H498    1.075   .     S
C487   C489    1.407   .     A
C488   C490    1.407   .     A
C488   H497    1.074   .     S
C489   C491    1.421   .     A
C489   C493    1.429   .     A
C490   C492    1.421   .     A
C490   C494    1.429   .     A
C491   C1061   1.398   .     S
C492   C1062   1.398   1_554 S
C493   C1088   1.422   .     S
C494   C1087   1.422   1_554 S
Cu495  N503    2.015   .     S
Cu495  O508    1.964   .     S
Cu495  O509    1.951   .     S
Cu495  O505    1.965   .     S
Cu495  O512    1.935   .     S
Cu496  N504    2.015   .     S
Cu496  O506    1.965   .     S
Cu496  O507    1.964   .     S
Cu496  O510    1.951   .     S
Cu496  O511    1.935   .     S
Cu496  Cu561   2.681   .     S
O506   C530    1.292   .     A
O507   C529    1.291   .     S
O510   C546    1.298   .     S
F515   C552    1.358   .     S
F518   C550    1.358   .     S
N523   H524    1.046   .     S
N523   H525    1.046   .     S
N526   H527    1.046   .     S
N526   H528    1.046   .     S
C529   C540    1.449   .     S
C529   O571    1.292   .     A
C530   O574    1.291   .     S
C531   C533    1.387   .     A
C531   C560    1.416   .     A
C531   H565    1.076   .     S
C532   C559    1.415   .     A
C532   C534    1.386   .     A
C532   H566    1.076   .     S
C533   F579    1.359   .     S
C533   C1151   1.398   1_554 S
C534   F580    1.358   .     S
C534   C1152   1.398   .     S
C535   F585    1.359   .     S
C535   C408    1.404   1_655 S
C536   F586    1.359   .     S
C536   C142    1.384   1_565 S
C537   C539    1.403   .     A
C537   F587    1.359   .     S
C537   C139    1.384   1_565 S
C538   F588    1.359   .     S
C538   C540    1.403   .     A
C539   C398    1.449   1_655 S
C539   C404    1.404   1_655 S
C541   N570    1.364   .     A
C541   C543    1.420   .     A
C541   H567    1.082   .     S
C542   H568    1.082   .     S
C542   N569    1.364   .     A
C542   C544    1.420   .     A
C543   N589    1.429   .     S
C543   N569    1.371   .     A
C544   N570    1.371   .     A
C544   N592    1.429   .     S
C545   C547    1.469   .     S
C545   O577    1.296   .     A
C545   O443    1.297   1_655 S
C546   C548    1.472   .     S
C546   O578    1.297   .     A
C547   C553    1.396   .     A
C547   C551    1.400   .     A
C548   C554    1.398   .     A
C548   C552    1.401   .     A
C549   C551    1.393   .     A
C549   C557    1.411   .     A
C549   F451    1.358   1_655 S
C550   C558    1.411   .     A
C550   C552    1.393   .     A
C551   F450    1.358   1_655 S
C553   H564    1.075   .     S
C553   C555    1.407   .     A
C554   C556    1.407   .     A
C554   H563    1.074   .     S
C555   C557    1.421   .     A
C555   C559    1.429   .     A
C556   C558    1.421   .     A
C556   C560    1.429   .     A
C557   C1127   1.398   .     S
C558   C1128   1.398   1_554 S
C559   C1154   1.422   .     S
C560   C1153   1.422   1_554 S
Cu561  N569    2.015   .     S
Cu561  O574    1.964   .     S
Cu561  O575    1.951   .     S
Cu561  O571    1.965   .     S
Cu561  O578    1.935   .     S
Cu562  N570    2.015   .     S
Cu562  O572    1.965   .     S
Cu562  O573    1.964   .     S
Cu562  O576    1.951   .     S
Cu562  O577    1.935   .     S
Cu562  Cu429   2.681   1_655 S
O572   C398    1.292   1_655 A
O573   C397    1.291   1_655 S
O576   C414    1.298   1_655 S
F581   C420    1.358   1_655 S
F584   C418    1.358   1_655 S
N589   H590    1.046   .     S
N589   H591    1.046   .     S
N592   H593    1.046   .     S
N592   H594    1.046   .     S
C595   C606    1.449   .     S
C595   O637    1.292   .     A
C595   O771    1.291   1_455 S
C596   C737    1.449   1_455 S
C596   O770    1.292   1_455 A
C596   O640    1.291   .     S
C597   C599    1.387   .     A
C597   C626    1.416   .     A
C597   H631    1.076   .     S
C598   C625    1.415   .     A
C598   C600    1.386   .     A
C598   H632    1.076   .     S
C599   F645    1.359   .     S
C600   F646    1.358   .     S
C600   C30     1.398   1_556 S
C601   F651    1.359   .     S
C601   C999    1.384   1_545 S
C601   C672    1.404   .     S
C602   F652    1.359   .     S
C602   C802    1.384   .     S
C602   C737    1.404   1_455 S
C603   C605    1.403   .     A
C603   F653    1.359   .     S
C603   C799    1.384   .     S
C604   F654    1.359   .     S
C604   C606    1.403   .     A
C604   C998    1.384   1_545 S
C605   C662    1.449   .     S
C605   C668    1.404   .     S
C606   C733    1.404   1_455 S
C607   N636    1.364   .     A
C607   C609    1.420   .     A
C607   H633    1.082   .     S
C608   H634    1.082   .     S
C608   N635    1.364   .     A
C608   C610    1.420   .     A
C609   N655    1.429   .     S
C609   N635    1.371   .     A
C610   N636    1.371   .     A
C610   N658    1.429   .     S
C611   C613    1.469   .     S
C611   O643    1.296   .     A
C611   O707    1.297   .     S
C612   C614    1.472   .     S
C612   O644    1.297   .     A
C612   O774    1.298   1_455 S
C613   C619    1.396   .     A
C613   C617    1.400   .     A
C614   C620    1.398   .     A
C614   C618    1.401   .     A
C615   C617    1.393   .     A
C615   C623    1.411   .     A
C615   F715    1.358   .     S
C616   C624    1.411   .     A
C616   C618    1.393   .     A
C616   F782    1.358   1_455 S
C617   F714    1.358   .     S
C618   F779    1.358   1_455 S
C619   H630    1.075   .     S
C619   C621    1.407   .     A
C620   C622    1.407   .     A
C620   H629    1.074   .     S
C621   C623    1.421   .     A
C621   C625    1.429   .     A
C622   C624    1.421   .     A
C622   C626    1.429   .     A
C623   C5      1.398   1_556 S
C625   C32     1.422   1_556 S
Cu627  N635    2.015   .     S
Cu627  O640    1.964   .     S
Cu627  O641    1.951   .     S
Cu627  O637    1.965   .     S
Cu627  O644    1.935   .     S
Cu627  Cu760   2.681   1_455 S
Cu628  N636    2.015   .     S
Cu628  O638    1.965   .     S
Cu628  O639    1.964   .     S
Cu628  O642    1.951   .     S
Cu628  O643    1.935   .     S
Cu628  Cu693   2.681   .     S
O638   C662    1.292   .     A
O639   C661    1.291   .     S
O641   C743    1.297   1_455 S
O642   C678    1.298   .     S
F647   C684    1.358   .     S
F648   C749    1.358   1_455 S
F649   C747    1.358   1_455 S
F650   C682    1.358   .     S
N655   H656    1.046   .     S
N655   H657    1.046   .     S
N658   H659    1.046   .     S
N658   H660    1.046   .     S
C661   C672    1.449   .     S
C661   O703    1.292   .     A
C662   O706    1.291   .     S
C663   C665    1.387   .     A
C663   C692    1.416   .     A
C663   H697    1.076   .     S
C664   C691    1.415   .     A
C664   C666    1.386   .     A
C664   H698    1.076   .     S
C665   F711    1.359   .     S
C666   F712    1.358   .     S
C666   C96     1.398   1_556 S
C667   F717    1.359   .     S
C667   C1065   1.384   1_545 S
C667   C738    1.404   .     S
C668   F718    1.359   .     S
C668   C868    1.384   .     S
C669   C671    1.403   .     A
C669   F719    1.359   .     S
C669   C865    1.384   .     S
C670   F720    1.359   .     S
C670   C672    1.403   .     A
C670   C1064   1.384   1_545 S
C671   C728    1.449   .     S
C671   C734    1.404   .     S
C673   N702    1.364   .     A
C673   C675    1.420   .     A
C673   H699    1.082   .     S
C674   H700    1.082   .     S
C674   N701    1.364   .     A
C674   C676    1.420   .     A
C675   N721    1.429   .     S
C675   N701    1.371   .     A
C676   N702    1.371   .     A
C676   N724    1.429   .     S
C677   C679    1.469   .     S
C677   O709    1.296   .     A
C677   O773    1.297   .     S
C678   C680    1.472   .     S
C678   O710    1.297   .     A
C679   C685    1.396   .     A
C679   C683    1.400   .     A
C680   C686    1.398   .     A
C680   C684    1.401   .     A
C681   C683    1.393   .     A
C681   C689    1.411   .     A
C681   F781    1.358   .     S
C682   C690    1.411   .     A
C682   C684    1.393   .     A
C683   F780    1.358   .     S
C685   H696    1.075   .     S
C685   C687    1.407   .     A
C686   C688    1.407   .     A
C686   H695    1.074   .     S
C687   C689    1.421   .     A
C687   C691    1.429   .     A
C688   C690    1.421   .     A
C688   C692    1.429   .     A
C689   C71     1.398   1_556 S
C691   C98     1.422   1_556 S
Cu693  N701    2.015   .     S
Cu693  O706    1.964   .     S
Cu693  O707    1.951   .     S
Cu693  O703    1.965   .     S
Cu693  O710    1.935   .     S
Cu694  N702    2.015   .     S
Cu694  O704    1.965   .     S
Cu694  O705    1.964   .     S
Cu694  O708    1.951   .     S
Cu694  O709    1.935   .     S
Cu694  Cu759   2.681   .     S
O704   C728    1.292   .     A
O705   C727    1.291   .     S
O708   C744    1.298   .     S
F713   C750    1.358   .     S
F716   C748    1.358   .     S
N721   H722    1.046   .     S
N721   H723    1.046   .     S
N724   H725    1.046   .     S
N724   H726    1.046   .     S
C727   C738    1.449   .     S
C727   O769    1.292   .     A
C728   O772    1.291   .     S
C729   C731    1.387   .     A
C729   C758    1.416   .     A
C729   H763    1.076   .     S
C730   C757    1.415   .     A
C730   C732    1.386   .     A
C730   H764    1.076   .     S
C731   F777    1.359   .     S
C732   F778    1.358   .     S
C732   C162    1.398   1_556 S
C733   F783    1.359   .     S
C733   C1131   1.384   1_545 S
C733   C606    1.404   1_655 S
C734   F784    1.359   .     S
C734   C934    1.384   .     S
C735   C737    1.403   .     A
C735   F785    1.359   .     S
C735   C931    1.384   .     S
C736   F786    1.359   .     S
C736   C738    1.403   .     A
C736   C1130   1.384   1_545 S
C737   C596    1.449   1_655 S
C737   C602    1.404   1_655 S
C739   N768    1.364   .     A
C739   C741    1.420   .     A
C739   H765    1.082   .     S
C740   H766    1.082   .     S
C740   N767    1.364   .     A
C740   C742    1.420   .     A
C741   N787    1.429   .     S
C741   N767    1.371   .     A
C742   N768    1.371   .     A
C742   N790    1.429   .     S
C743   C745    1.469   .     S
C743   O775    1.296   .     A
C743   O641    1.297   1_655 S
C744   C746    1.472   .     S
C744   O776    1.297   .     A
C745   C751    1.396   .     A
C745   C749    1.400   .     A
C746   C752    1.398   .     A
C746   C750    1.401   .     A
C747   C749    1.393   .     A
C747   C755    1.411   .     A
C747   F649    1.358   1_655 S
C748   C756    1.411   .     A
C748   C750    1.393   .     A
C749   F648    1.358   1_655 S
C751   H762    1.075   .     S
C751   C753    1.407   .     A
C752   C754    1.407   .     A
C752   H761    1.074   .     S
C753   C755    1.421   .     A
C753   C757    1.429   .     A
C754   C756    1.421   .     A
C754   C758    1.429   .     A
C755   C137    1.398   1_556 S
C757   C164    1.422   1_556 S
Cu759  N767    2.015   .     S
Cu759  O772    1.964   .     S
Cu759  O773    1.951   .     S
Cu759  O769    1.965   .     S
Cu759  O776    1.935   .     S
Cu760  N768    2.015   .     S
Cu760  O770    1.965   .     S
Cu760  O771    1.964   .     S
Cu760  O774    1.951   .     S
Cu760  O775    1.935   .     S
Cu760  Cu627   2.681   1_655 S
O770   C596    1.292   1_655 A
O771   C595    1.291   1_655 S
O774   C612    1.298   1_655 S
F779   C618    1.358   1_655 S
F782   C616    1.358   1_655 S
N787   H788    1.046   .     S
N787   H789    1.046   .     S
N790   H791    1.046   .     S
N790   H792    1.046   .     S
C793   C804    1.449   .     S
C793   O835    1.292   .     A
C793   O969    1.291   1_455 S
C794   C935    1.449   1_455 S
C794   O968    1.292   1_455 A
C794   O838    1.291   .     S
C795   C797    1.387   .     A
C795   C824    1.416   .     A
C795   H829    1.076   .     S
C796   C823    1.415   .     A
C796   C798    1.386   .     A
C796   H830    1.076   .     S
C797   F843    1.359   .     S
C798   F844    1.358   .     S
C798   C228    1.398   1_556 S
C799   F849    1.359   .     S
C799   C870    1.404   .     S
C800   F850    1.359   .     S
C800   C1000   1.384   .     S
C800   C935    1.404   1_455 S
C801   C803    1.403   .     A
C801   F851    1.359   .     S
C801   C997    1.384   .     S
C802   F852    1.359   .     S
C802   C804    1.403   .     A
C803   C860    1.449   .     S
C803   C866    1.404   .     S
C804   C931    1.404   1_455 S
C805   N834    1.364   .     A
C805   C807    1.420   .     A
C805   H831    1.082   .     S
C806   H832    1.082   .     S
C806   N833    1.364   .     A
C806   C808    1.420   .     A
C807   N853    1.429   .     S
C807   N833    1.371   .     A
C808   N834    1.371   .     A
C808   N856    1.429   .     S
C809   C811    1.469   .     S
C809   O841    1.296   .     A
C809   O905    1.297   .     S
C810   C812    1.472   .     S
C810   O842    1.297   .     A
C810   O972    1.298   1_455 S
C811   C817    1.396   .     A
C811   C815    1.400   .     A
C812   C818    1.398   .     A
C812   C816    1.401   .     A
C813   C815    1.393   .     A
C813   C821    1.411   .     A
C813   F913    1.358   .     S
C814   C822    1.411   .     A
C814   C816    1.393   .     A
C814   F980    1.358   1_455 S
C815   F912    1.358   .     S
C816   F977    1.358   1_455 S
C817   H828    1.075   .     S
C817   C819    1.407   .     A
C818   C820    1.407   .     A
C818   H827    1.074   .     S
C819   C821    1.421   .     A
C819   C823    1.429   .     A
C820   C822    1.421   .     A
C820   C824    1.429   .     A
C821   C203    1.398   1_556 S
C823   C230    1.422   1_556 S
Cu825  N833    2.015   .     S
Cu825  O838    1.964   .     S
Cu825  O839    1.951   .     S
Cu825  O835    1.965   .     S
Cu825  O842    1.935   .     S
Cu825  Cu958   2.681   1_455 S
Cu826  N834    2.015   .     S
Cu826  O836    1.965   .     S
Cu826  O837    1.964   .     S
Cu826  O840    1.951   .     S
Cu826  O841    1.935   .     S
Cu826  Cu891   2.681   .     S
O836   C860    1.292   .     A
O837   C859    1.291   .     S
O839   C941    1.297   1_455 S
O840   C876    1.298   .     S
F845   C882    1.358   .     S
F846   C947    1.358   1_455 S
F847   C945    1.358   1_455 S
F848   C880    1.358   .     S
N853   H854    1.046   .     S
N853   H855    1.046   .     S
N856   H857    1.046   .     S
N856   H858    1.046   .     S
C859   C870    1.449   .     S
C859   O901    1.292   .     A
C860   O904    1.291   .     S
C861   C863    1.387   .     A
C861   C890    1.416   .     A
C861   H895    1.076   .     S
C862   C889    1.415   .     A
C862   C864    1.386   .     A
C862   H896    1.076   .     S
C863   F909    1.359   .     S
C864   F910    1.358   .     S
C864   C294    1.398   1_556 S
C865   F915    1.359   .     S
C865   C936    1.404   .     S
C866   F916    1.359   .     S
C866   C1066   1.384   .     S
C867   C869    1.403   .     A
C867   F917    1.359   .     S
C867   C1063   1.384   .     S
C868   F918    1.359   .     S
C868   C870    1.403   .     A
C869   C926    1.449   .     S
C869   C932    1.404   .     S
C871   N900    1.364   .     A
C871   C873    1.420   .     A
C871   H897    1.082   .     S
C872   H898    1.082   .     S
C872   N899    1.364   .     A
C872   C874    1.420   .     A
C873   N919    1.429   .     S
C873   N899    1.371   .     A
C874   N900    1.371   .     A
C874   N922    1.429   .     S
C875   C877    1.469   .     S
C875   O907    1.296   .     A
C875   O971    1.297   .     S
C876   C878    1.472   .     S
C876   O908    1.297   .     A
C877   C883    1.396   .     A
C877   C881    1.400   .     A
C878   C884    1.398   .     A
C878   C882    1.401   .     A
C879   C881    1.393   .     A
C879   C887    1.411   .     A
C879   F979    1.358   .     S
C880   C888    1.411   .     A
C880   C882    1.393   .     A
C881   F978    1.358   .     S
C883   H894    1.075   .     S
C883   C885    1.407   .     A
C884   C886    1.407   .     A
C884   H893    1.074   .     S
C885   C887    1.421   .     A
C885   C889    1.429   .     A
C886   C888    1.421   .     A
C886   C890    1.429   .     A
C887   C269    1.398   1_556 S
C889   C296    1.422   1_556 S
Cu891  N899    2.015   .     S
Cu891  O904    1.964   .     S
Cu891  O905    1.951   .     S
Cu891  O901    1.965   .     S
Cu891  O908    1.935   .     S
Cu892  N900    2.015   .     S
Cu892  O902    1.965   .     S
Cu892  O903    1.964   .     S
Cu892  O906    1.951   .     S
Cu892  O907    1.935   .     S
Cu892  Cu957   2.681   .     S
O902   C926    1.292   .     A
O903   C925    1.291   .     S
O906   C942    1.298   .     S
F911   C948    1.358   .     S
F914   C946    1.358   .     S
N919   H920    1.046   .     S
N919   H921    1.046   .     S
N922   H923    1.046   .     S
N922   H924    1.046   .     S
C925   C936    1.449   .     S
C925   O967    1.292   .     A
C926   O970    1.291   .     S
C927   C929    1.387   .     A
C927   C956    1.416   .     A
C927   H961    1.076   .     S
C928   C955    1.415   .     A
C928   C930    1.386   .     A
C928   H962    1.076   .     S
C929   F975    1.359   .     S
C930   F976    1.358   .     S
C930   C360    1.398   1_556 S
C931   F981    1.359   .     S
C931   C804    1.404   1_655 S
C932   F982    1.359   .     S
C932   C1132   1.384   .     S
C933   C935    1.403   .     A
C933   F983    1.359   .     S
C933   C1129   1.384   .     S
C934   F984    1.359   .     S
C934   C936    1.403   .     A
C935   C794    1.449   1_655 S
C935   C800    1.404   1_655 S
C937   N966    1.364   .     A
C937   C939    1.420   .     A
C937   H963    1.082   .     S
C938   H964    1.082   .     S
C938   N965    1.364   .     A
C938   C940    1.420   .     A
C939   N985    1.429   .     S
C939   N965    1.371   .     A
C940   N966    1.371   .     A
C940   N988    1.429   .     S
C941   C943    1.469   .     S
C941   O973    1.296   .     A
C941   O839    1.297   1_655 S
C942   C944    1.472   .     S
C942   O974    1.297   .     A
C943   C949    1.396   .     A
C943   C947    1.400   .     A
C944   C950    1.398   .     A
C944   C948    1.401   .     A
C945   C947    1.393   .     A
C945   C953    1.411   .     A
C945   F847    1.358   1_655 S
C946   C954    1.411   .     A
C946   C948    1.393   .     A
C947   F846    1.358   1_655 S
C949   H960    1.075   .     S
C949   C951    1.407   .     A
C950   C952    1.407   .     A
C950   H959    1.074   .     S
C951   C953    1.421   .     A
C951   C955    1.429   .     A
C952   C954    1.421   .     A
C952   C956    1.429   .     A
C953   C335    1.398   1_556 S
C955   C362    1.422   1_556 S
Cu957  N965    2.015   .     S
Cu957  O970    1.964   .     S
Cu957  O971    1.951   .     S
Cu957  O967    1.965   .     S
Cu957  O974    1.935   .     S
Cu958  N966    2.015   .     S
Cu958  O968    1.965   .     S
Cu958  O969    1.964   .     S
Cu958  O972    1.951   .     S
Cu958  O973    1.935   .     S
Cu958  Cu825   2.681   1_655 S
O968   C794    1.292   1_655 A
O969   C793    1.291   1_655 S
O972   C810    1.298   1_655 S
F977   C816    1.358   1_655 S
F980   C814    1.358   1_655 S
N985   H986    1.046   .     S
N985   H987    1.046   .     S
N988   H989    1.046   .     S
N988   H990    1.046   .     S
C991   C1002   1.449   .     S
C991   O1033   1.292   .     A
C991   O1167   1.291   1_455 S
C992   C1133   1.449   1_455 S
C992   O1166   1.292   1_455 A
C992   O1036   1.291   .     S
C993   C995    1.387   .     A
C993   C1022   1.416   .     A
C993   H1027   1.076   .     S
C994   C1021   1.415   .     A
C994   C996    1.386   .     A
C994   H1028   1.076   .     S
C995   F1041   1.359   .     S
C996   F1042   1.358   .     S
C996   C426    1.398   1_556 S
C997   F1047   1.359   .     S
C997   C1068   1.404   .     S
C998   F1048   1.359   .     S
C998   C604    1.384   1_565 S
C998   C1133   1.404   1_455 S
C999   C1001   1.403   .     A
C999   F1049   1.359   .     S
C999   C601    1.384   1_565 S
C1000  F1050   1.359   .     S
C1000  C1002   1.403   .     A
C1001  C1058   1.449   .     S
C1001  C1064   1.404   .     S
C1002  C1129   1.404   1_455 S
C1003  N1032   1.364   .     A
C1003  C1005   1.420   .     A
C1003  H1029   1.082   .     S
C1004  H1030   1.082   .     S
C1004  N1031   1.364   .     A
C1004  C1006   1.420   .     A
C1005  N1051   1.429   .     S
C1005  N1031   1.371   .     A
C1006  N1032   1.371   .     A
C1006  N1054   1.429   .     S
C1007  C1009   1.469   .     S
C1007  O1039   1.296   .     A
C1007  O1103   1.297   .     S
C1008  C1010   1.472   .     S
C1008  O1040   1.297   .     A
C1008  O1170   1.298   1_455 S
C1009  C1015   1.396   .     A
C1009  C1013   1.400   .     A
C1010  C1016   1.398   .     A
C1010  C1014   1.401   .     A
C1011  C1013   1.393   .     A
C1011  C1019   1.411   .     A
C1011  F1111   1.358   .     S
C1012  C1020   1.411   .     A
C1012  C1014   1.393   .     A
C1012  F1178   1.358   1_455 S
C1013  F1110   1.358   .     S
C1014  F1175   1.358   1_455 S
C1015  H1026   1.075   .     S
C1015  C1017   1.407   .     A
C1016  C1018   1.407   .     A
C1016  H1025   1.074   .     S
C1017  C1019   1.421   .     A
C1017  C1021   1.429   .     A
C1018  C1020   1.421   .     A
C1018  C1022   1.429   .     A
C1019  C401    1.398   1_556 S
C1021  C428    1.422   1_556 S
Cu1023 N1031   2.015   .     S
Cu1023 O1036   1.964   .     S
Cu1023 O1037   1.951   .     S
Cu1023 O1033   1.965   .     S
Cu1023 O1040   1.935   .     S
Cu1023 Cu1156  2.681   1_455 S
Cu1024 N1032   2.015   .     S
Cu1024 O1034   1.965   .     S
Cu1024 O1035   1.964   .     S
Cu1024 O1038   1.951   .     S
Cu1024 O1039   1.935   .     S
Cu1024 Cu1089  2.681   .     S
O1034  C1058   1.292   .     A
O1035  C1057   1.291   .     S
O1037  C1139   1.297   1_455 S
O1038  C1074   1.298   .     S
F1043  C1080   1.358   .     S
F1044  C1145   1.358   1_455 S
F1045  C1143   1.358   1_455 S
F1046  C1078   1.358   .     S
N1051  H1052   1.046   .     S
N1051  H1053   1.046   .     S
N1054  H1055   1.046   .     S
N1054  H1056   1.046   .     S
C1057  C1068   1.449   .     S
C1057  O1099   1.292   .     A
C1058  O1102   1.291   .     S
C1059  C1061   1.387   .     A
C1059  C1088   1.416   .     A
C1059  H1093   1.076   .     S
C1060  C1087   1.415   .     A
C1060  C1062   1.386   .     A
C1060  H1094   1.076   .     S
C1061  F1107   1.359   .     S
C1062  F1108   1.358   .     S
C1062  C492    1.398   1_556 S
C1063  F1113   1.359   .     S
C1063  C1134   1.404   .     S
C1064  F1114   1.359   .     S
C1064  C670    1.384   1_565 S
C1065  C1067   1.403   .     A
C1065  F1115   1.359   .     S
C1065  C667    1.384   1_565 S
C1066  F1116   1.359   .     S
C1066  C1068   1.403   .     A
C1067  C1124   1.449   .     S
C1067  C1130   1.404   .     S
C1069  N1098   1.364   .     A
C1069  C1071   1.420   .     A
C1069  H1095   1.082   .     S
C1070  H1096   1.082   .     S
C1070  N1097   1.364   .     A
C1070  C1072   1.420   .     A
C1071  N1117   1.429   .     S
C1071  N1097   1.371   .     A
C1072  N1098   1.371   .     A
C1072  N1120   1.429   .     S
C1073  C1075   1.469   .     S
C1073  O1105   1.296   .     A
C1073  O1169   1.297   .     S
C1074  C1076   1.472   .     S
C1074  O1106   1.297   .     A
C1075  C1081   1.396   .     A
C1075  C1079   1.400   .     A
C1076  C1082   1.398   .     A
C1076  C1080   1.401   .     A
C1077  C1079   1.393   .     A
C1077  C1085   1.411   .     A
C1077  F1177   1.358   .     S
C1078  C1086   1.411   .     A
C1078  C1080   1.393   .     A
C1079  F1176   1.358   .     S
C1081  H1092   1.075   .     S
C1081  C1083   1.407   .     A
C1082  C1084   1.407   .     A
C1082  H1091   1.074   .     S
C1083  C1085   1.421   .     A
C1083  C1087   1.429   .     A
C1084  C1086   1.421   .     A
C1084  C1088   1.429   .     A
C1085  C467    1.398   1_556 S
C1087  C494    1.422   1_556 S
Cu1089 N1097   2.015   .     S
Cu1089 O1102   1.964   .     S
Cu1089 O1103   1.951   .     S
Cu1089 O1099   1.965   .     S
Cu1089 O1106   1.935   .     S
Cu1090 N1098   2.015   .     S
Cu1090 O1100   1.965   .     S
Cu1090 O1101   1.964   .     S
Cu1090 O1104   1.951   .     S
Cu1090 O1105   1.935   .     S
Cu1090 Cu1155  2.681   .     S
O1100  C1124   1.292   .     A
O1101  C1123   1.291   .     S
O1104  C1140   1.298   .     S
F1109  C1146   1.358   .     S
F1112  C1144   1.358   .     S
N1117  H1118   1.046   .     S
N1117  H1119   1.046   .     S
N1120  H1121   1.046   .     S
N1120  H1122   1.046   .     S
C1123  C1134   1.449   .     S
C1123  O1165   1.292   .     A
C1124  O1168   1.291   .     S
C1125  C1127   1.387   .     A
C1125  C1154   1.416   .     A
C1125  H1159   1.076   .     S
C1126  C1153   1.415   .     A
C1126  C1128   1.386   .     A
C1126  H1160   1.076   .     S
C1127  F1173   1.359   .     S
C1128  F1174   1.358   .     S
C1128  C558    1.398   1_556 S
C1129  F1179   1.359   .     S
C1129  C1002   1.404   1_655 S
C1130  F1180   1.359   .     S
C1130  C736    1.384   1_565 S
C1131  C1133   1.403   .     A
C1131  F1181   1.359   .     S
C1131  C733    1.384   1_565 S
C1132  F1182   1.359   .     S
C1132  C1134   1.403   .     A
C1133  C992    1.449   1_655 S
C1133  C998    1.404   1_655 S
C1135  N1164   1.364   .     A
C1135  C1137   1.420   .     A
C1135  H1161   1.082   .     S
C1136  H1162   1.082   .     S
C1136  N1163   1.364   .     A
C1136  C1138   1.420   .     A
C1137  N1183   1.429   .     S
C1137  N1163   1.371   .     A
C1138  N1164   1.371   .     A
C1138  N1186   1.429   .     S
C1139  C1141   1.469   .     S
C1139  O1171   1.296   .     A
C1139  O1037   1.297   1_655 S
C1140  C1142   1.472   .     S
C1140  O1172   1.297   .     A
C1141  C1147   1.396   .     A
C1141  C1145   1.400   .     A
C1142  C1148   1.398   .     A
C1142  C1146   1.401   .     A
C1143  C1145   1.393   .     A
C1143  C1151   1.411   .     A
C1143  F1045   1.358   1_655 S
C1144  C1152   1.411   .     A
C1144  C1146   1.393   .     A
C1145  F1044   1.358   1_655 S
C1147  H1158   1.075   .     S
C1147  C1149   1.407   .     A
C1148  C1150   1.407   .     A
C1148  H1157   1.074   .     S
C1149  C1151   1.421   .     A
C1149  C1153   1.429   .     A
C1150  C1152   1.421   .     A
C1150  C1154   1.429   .     A
C1151  C533    1.398   1_556 S
C1153  C560    1.422   1_556 S
Cu1155 N1163   2.015   .     S
Cu1155 O1168   1.964   .     S
Cu1155 O1169   1.951   .     S
Cu1155 O1165   1.965   .     S
Cu1155 O1172   1.935   .     S
Cu1156 N1164   2.015   .     S
Cu1156 O1166   1.965   .     S
Cu1156 O1167   1.964   .     S
Cu1156 O1170   1.951   .     S
Cu1156 O1171   1.935   .     S
Cu1156 Cu1023  2.681   1_655 S
O1166  C992    1.292   1_655 A
O1167  C991    1.291   1_655 S
O1170  C1008   1.298   1_655 S
F1175  C1014   1.358   1_655 S
F1178  C1012   1.358   1_655 S
N1183  H1184   1.046   .     S
N1183  H1185   1.046   .     S
N1186  H1187   1.046   .     S
N1186  H1188   1.046   .     S
