data_str_m2_o2_o10_pcu_sym.20
_audit_creation_date              2020-01-03
_audit_creation_method            'Materials Studio'
_symmetry_space_group_name_H-M    'P1'
_symmetry_Int_Tables_number       1
_symmetry_cell_setting            triclinic
loop_
_symmetry_equiv_pos_as_xyz
  x,y,z
_cell_length_a                    26.4678
_cell_length_b                    30.2965
_cell_length_c                    27.8677
_cell_angle_alpha                 91.3413
_cell_angle_beta                  97.9267
_cell_angle_gamma                 91.7791
loop_
_atom_site_label
_atom_site_type_symbol
_atom_site_fract_x
_atom_site_fract_y
_atom_site_fract_z
_atom_site_U_iso_or_equiv
_atom_site_adp_type
_atom_site_occupancy
C1     C     0.16627   0.16491   0.24944   0.00000  Uiso   1.00
C2     C     0.17990   0.29016   0.44864   0.00000  Uiso   1.00
C3     C     0.16490   0.25302   0.02705   0.00000  Uiso   1.00
C4     C     0.16609   0.25225   0.47264   0.00000  Uiso   1.00
C5     C     0.06813   0.24976   0.23783   0.00000  Uiso   1.00
C6     C     0.26523   0.24988   0.26229   0.00000  Uiso   1.00
C7     C     0.01343   0.24308   0.23216   0.00000  Uiso   1.00
C8     C     0.32011   0.25566   0.26861   0.00000  Uiso   1.00
C9     C     0.14188   0.04651   0.28187   0.00000  Uiso   1.00
C10    C     0.13427   0.45064   0.21360   0.00000  Uiso   1.00
C11    C     0.14032   0.09296   0.28150   0.00000  Uiso   1.00
C12    C     0.16664   0.33495   0.25038   0.00000  Uiso   1.00
C13    C     0.13332   0.40409   0.21474   0.00000  Uiso   1.00
C14    C     0.16578   0.11633   0.24825   0.00000  Uiso   1.00
C15    C     0.16625   0.38326   0.25061   0.00000  Uiso   1.00
C16    C     0.19121   0.09380   0.21429   0.00000  Uiso   1.00
C17    C     0.20053   0.40791   0.28480   0.00000  Uiso   1.00
C18    C     0.19167   0.04731   0.21369   0.00000  Uiso   1.00
C19    C     0.20114   0.45436   0.28432   0.00000  Uiso   1.00
C20    C     0.16666   0.02395   0.24761   0.00000  Uiso   1.00
C21    C     0.16735   0.47545   0.24881   0.00000  Uiso   1.00
C22    C     0.31711   0.23847   0.14545   0.00000  Uiso   1.00
C23    C     0.20256   0.27638   0.05974   0.00000  Uiso   1.00
C24    C     0.01866   0.25992   0.35522   0.00000  Uiso   1.00
C25    C     0.06813   0.00910   0.30878   0.00000  Uiso   1.00
C26    C     0.05180   0.47991   0.18153   0.00000  Uiso   1.00
C27    C     0.15291   0.21342   0.44401   0.00000  Uiso   1.00
C28    C     0.20096   0.27632   0.11013   0.00000  Uiso   1.00
C29    C     0.15122   0.21355   0.39330   0.00000  Uiso   1.00
C30    C     0.13021   0.22583   0.09803   0.00000  Uiso   1.00
C31    C     0.18422   0.28706   0.39847   0.00000  Uiso   1.00
C32    C     0.12648   0.22966   0.04750   0.00000  Uiso   1.00
Cu33   Cu    0.16667   0.25000   0.29821   0.00000  Uiso   1.00
Cu34   Cu    0.16667   0.25001   0.20178   0.00000  Uiso   1.00
H35    H     0.23334   0.29481   0.04675   0.00000  Uiso   1.00
H36    H     0.03721   0.28342   0.38399   0.00000  Uiso   1.00
H37    H     0.04413   0.23188   0.35215   0.00000  Uiso   1.00
H38    H     0.31575   0.24725   0.36638   0.00000  Uiso   1.00
H39    H     0.13351   0.03391   0.35348   0.00000  Uiso   1.00
H40    H     0.04821   0.01979   0.33944   0.00000  Uiso   1.00
H41    H     0.06431   0.47258   0.30478   0.00000  Uiso   1.00
H42    H     0.04896   0.02411   0.27537   0.00000  Uiso   1.00
H43    H     0.11000   0.46313   0.14117   0.00000  Uiso   1.00
H44    H     0.02611   0.46615   0.14941   0.00000  Uiso   1.00
H45    H     0.04577   0.01588   0.18466   0.00000  Uiso   1.00
H46    H     0.14296   0.18301   0.46062   0.00000  Uiso   1.00
H47    H     0.04104   0.46359   0.21415   0.00000  Uiso   1.00
H48    H     0.09251   0.09649   0.32935   0.00000  Uiso   1.00
H49    H     0.07758   0.39606   0.16056   0.00000  Uiso   1.00
H50    H     0.23277   0.09880   0.16125   0.00000  Uiso   1.00
H51    H     0.25676   0.40634   0.33855   0.00000  Uiso   1.00
H52    H     0.22010   0.49440   0.18668   0.00000  Uiso   1.00
H53    H     0.23706   0.00935   0.31074   0.00000  Uiso   1.00
H54    H     0.10439   0.19188   0.14788   0.00000  Uiso   1.00
H55    H     0.23222   0.30738   0.35839   0.00000  Uiso   1.00
H56    H     0.07570   0.22780   0.49024   0.00000  Uiso   1.00
H57    H     0.22773   0.29713   0.13399   0.00000  Uiso   1.00
H58    H     0.19416   0.35398   0.45261   0.00000  Uiso   1.00
H59    H     0.13844   0.18389   0.37244   0.00000  Uiso   1.00
H60    H     0.29601   0.19365   0.19664   0.00000  Uiso   1.00
H61    H     0.28685   0.22074   0.11996   0.00000  Uiso   1.00
H62    H     0.01932   0.23882   0.12889   0.00000  Uiso   1.00
H63    H     0.30673   0.27324   0.15070   0.00000  Uiso   1.00
H64    H     0.03679   0.30556   0.30387   0.00000  Uiso   1.00
N65    N     0.16667   0.25001   0.12934   0.00000  Uiso   1.00
N66    N     0.16667   0.24999   0.37065   0.00000  Uiso   1.00
N67    N     0.32440   0.21634   0.19124   0.00000  Uiso   1.00
N68    N     0.00909   0.28237   0.30968   0.00000  Uiso   1.00
N69    N     0.12177   0.02214   0.31856   0.00000  Uiso   1.00
N70    N     0.10458   0.47306   0.17569   0.00000  Uiso   1.00
O71    O     0.16667   0.18573   0.29071   0.00000  Uiso   1.00
O72    O     0.10056   0.37776   0.18213   0.00000  Uiso   1.00
O73    O     0.21674   0.11839   0.18324   0.00000  Uiso   1.00
O74    O     0.23474   0.38540   0.31655   0.00000  Uiso   1.00
O75    O     0.21779   0.02627   0.18041   0.00000  Uiso   1.00
O76    O     0.23569   0.47767   0.31828   0.00000  Uiso   1.00
O77    O     0.09437   0.19788   0.11376   0.00000  Uiso   1.00
O78    O     0.20948   0.32106   0.37932   0.00000  Uiso   1.00
O79    O     0.08402   0.21027   0.01967   0.00000  Uiso   1.00
O80    O     0.18981   0.32955   0.47482   0.00000  Uiso   1.00
O81    O     0.16666   0.31428   0.20928   0.00000  Uiso   1.00
O82    O     0.16667   0.18573   0.20928   0.00000  Uiso   1.00
O83    O     0.16666   0.31427   0.29072   0.00000  Uiso   1.00
O84    O     0.09161   0.25000   0.28132   0.00000  Uiso   1.00
O85    O     0.24172   0.25001   0.21868   0.00000  Uiso   1.00
O86    O     0.09161   0.25000   0.19989   0.00000  Uiso   1.00
O87    O     0.24172   0.25000   0.30011   0.00000  Uiso   1.00
O88    O     0.11357   0.11659   0.31222   0.00000  Uiso   1.00
C89    C     0.49960   0.16491   0.24944   0.00000  Uiso   1.00
C90    C     0.51323   0.29016   0.44864   0.00000  Uiso   1.00
C91    C     0.49823   0.25302   0.02705   0.00000  Uiso   1.00
C92    C     0.49942   0.25225   0.47264   0.00000  Uiso   1.00
C93    C     0.40146   0.24976   0.23783   0.00000  Uiso   1.00
C94    C     0.59856   0.24988   0.26229   0.00000  Uiso   1.00
C95    C     0.34676   0.24308   0.23216   0.00000  Uiso   1.00
C96    C     0.65344   0.25566   0.26861   0.00000  Uiso   1.00
C97    C     0.47521   0.04651   0.28187   0.00000  Uiso   1.00
C98    C     0.46761   0.45064   0.21360   0.00000  Uiso   1.00
C99    C     0.47366   0.09296   0.28150   0.00000  Uiso   1.00
C100   C     0.49998   0.33495   0.25038   0.00000  Uiso   1.00
C101   C     0.46665   0.40409   0.21474   0.00000  Uiso   1.00
C102   C     0.49911   0.11633   0.24825   0.00000  Uiso   1.00
C103   C     0.49959   0.38326   0.25061   0.00000  Uiso   1.00
C104   C     0.52455   0.09380   0.21429   0.00000  Uiso   1.00
C105   C     0.53386   0.40791   0.28480   0.00000  Uiso   1.00
C106   C     0.52501   0.04731   0.21369   0.00000  Uiso   1.00
C107   C     0.53447   0.45436   0.28432   0.00000  Uiso   1.00
C108   C     0.50000   0.02395   0.24761   0.00000  Uiso   1.00
C109   C     0.50068   0.47545   0.24881   0.00000  Uiso   1.00
C110   C     0.65045   0.23847   0.14545   0.00000  Uiso   1.00
C111   C     0.53589   0.27638   0.05974   0.00000  Uiso   1.00
C112   C     0.35199   0.25992   0.35522   0.00000  Uiso   1.00
C113   C     0.40146   0.00910   0.30878   0.00000  Uiso   1.00
C114   C     0.38513   0.47991   0.18153   0.00000  Uiso   1.00
C115   C     0.48624   0.21342   0.44401   0.00000  Uiso   1.00
C116   C     0.53429   0.27632   0.11013   0.00000  Uiso   1.00
C117   C     0.48456   0.21355   0.39330   0.00000  Uiso   1.00
C118   C     0.46354   0.22583   0.09803   0.00000  Uiso   1.00
C119   C     0.51755   0.28706   0.39847   0.00000  Uiso   1.00
C120   C     0.45981   0.22966   0.04750   0.00000  Uiso   1.00
Cu121  Cu    0.50000   0.25000   0.29821   0.00000  Uiso   1.00
Cu122  Cu    0.50000   0.25001   0.20178   0.00000  Uiso   1.00
H123   H     0.56667   0.29481   0.04675   0.00000  Uiso   1.00
H124   H     0.37054   0.28342   0.38399   0.00000  Uiso   1.00
H125   H     0.37746   0.23188   0.35215   0.00000  Uiso   1.00
H126   H     0.64908   0.24725   0.36638   0.00000  Uiso   1.00
H127   H     0.46685   0.03391   0.35348   0.00000  Uiso   1.00
H128   H     0.38155   0.01979   0.33944   0.00000  Uiso   1.00
H129   H     0.39764   0.47258   0.30478   0.00000  Uiso   1.00
H130   H     0.38229   0.02411   0.27537   0.00000  Uiso   1.00
H131   H     0.44333   0.46313   0.14117   0.00000  Uiso   1.00
H132   H     0.35944   0.46615   0.14941   0.00000  Uiso   1.00
H133   H     0.37911   0.01588   0.18466   0.00000  Uiso   1.00
H134   H     0.47629   0.18301   0.46062   0.00000  Uiso   1.00
H135   H     0.37437   0.46359   0.21415   0.00000  Uiso   1.00
H136   H     0.42584   0.09649   0.32935   0.00000  Uiso   1.00
H137   H     0.41092   0.39606   0.16056   0.00000  Uiso   1.00
H138   H     0.56610   0.09880   0.16125   0.00000  Uiso   1.00
H139   H     0.59010   0.40634   0.33855   0.00000  Uiso   1.00
H140   H     0.55343   0.49440   0.18668   0.00000  Uiso   1.00
H141   H     0.57039   0.00935   0.31074   0.00000  Uiso   1.00
H142   H     0.43772   0.19188   0.14788   0.00000  Uiso   1.00
H143   H     0.56555   0.30738   0.35839   0.00000  Uiso   1.00
H144   H     0.40903   0.22780   0.49024   0.00000  Uiso   1.00
H145   H     0.56106   0.29713   0.13399   0.00000  Uiso   1.00
H146   H     0.52749   0.35398   0.45261   0.00000  Uiso   1.00
H147   H     0.47178   0.18389   0.37244   0.00000  Uiso   1.00
H148   H     0.62935   0.19365   0.19664   0.00000  Uiso   1.00
H149   H     0.62018   0.22074   0.11996   0.00000  Uiso   1.00
H150   H     0.35265   0.23882   0.12889   0.00000  Uiso   1.00
H151   H     0.64007   0.27324   0.15070   0.00000  Uiso   1.00
H152   H     0.37013   0.30556   0.30387   0.00000  Uiso   1.00
N153   N     0.50000   0.25001   0.12934   0.00000  Uiso   1.00
N154   N     0.50000   0.24999   0.37065   0.00000  Uiso   1.00
N155   N     0.65773   0.21634   0.19124   0.00000  Uiso   1.00
N156   N     0.34242   0.28237   0.30968   0.00000  Uiso   1.00
N157   N     0.45511   0.02214   0.31856   0.00000  Uiso   1.00
N158   N     0.43791   0.47306   0.17569   0.00000  Uiso   1.00
O159   O     0.50000   0.18573   0.29071   0.00000  Uiso   1.00
O160   O     0.43389   0.37776   0.18213   0.00000  Uiso   1.00
O161   O     0.55008   0.11839   0.18324   0.00000  Uiso   1.00
O162   O     0.56807   0.38540   0.31655   0.00000  Uiso   1.00
O163   O     0.55112   0.02627   0.18041   0.00000  Uiso   1.00
O164   O     0.56902   0.47767   0.31828   0.00000  Uiso   1.00
O165   O     0.42770   0.19788   0.11376   0.00000  Uiso   1.00
O166   O     0.54281   0.32106   0.37932   0.00000  Uiso   1.00
O167   O     0.41735   0.21027   0.01967   0.00000  Uiso   1.00
O168   O     0.52314   0.32955   0.47482   0.00000  Uiso   1.00
O169   O     0.50000   0.31428   0.20928   0.00000  Uiso   1.00
O170   O     0.50000   0.18573   0.20928   0.00000  Uiso   1.00
O171   O     0.50000   0.31427   0.29072   0.00000  Uiso   1.00
O172   O     0.42495   0.25000   0.28132   0.00000  Uiso   1.00
O173   O     0.57505   0.25001   0.21868   0.00000  Uiso   1.00
O174   O     0.42495   0.25000   0.19989   0.00000  Uiso   1.00
O175   O     0.57505   0.25000   0.30011   0.00000  Uiso   1.00
O176   O     0.44690   0.11659   0.31222   0.00000  Uiso   1.00
C177   C     0.83293   0.16491   0.24944   0.00000  Uiso   1.00
C178   C     0.84657   0.29016   0.44864   0.00000  Uiso   1.00
C179   C     0.83157   0.25302   0.02705   0.00000  Uiso   1.00
C180   C     0.83275   0.25225   0.47264   0.00000  Uiso   1.00
C181   C     0.73480   0.24976   0.23783   0.00000  Uiso   1.00
C182   C     0.93190   0.24988   0.26229   0.00000  Uiso   1.00
C183   C     0.68009   0.24308   0.23216   0.00000  Uiso   1.00
C184   C     0.98677   0.25566   0.26861   0.00000  Uiso   1.00
C185   C     0.80854   0.04651   0.28187   0.00000  Uiso   1.00
C186   C     0.80094   0.45064   0.21360   0.00000  Uiso   1.00
C187   C     0.80699   0.09296   0.28150   0.00000  Uiso   1.00
C188   C     0.83331   0.33495   0.25038   0.00000  Uiso   1.00
C189   C     0.79998   0.40409   0.21474   0.00000  Uiso   1.00
C190   C     0.83245   0.11633   0.24825   0.00000  Uiso   1.00
C191   C     0.83292   0.38326   0.25061   0.00000  Uiso   1.00
C192   C     0.85788   0.09380   0.21429   0.00000  Uiso   1.00
C193   C     0.86719   0.40791   0.28480   0.00000  Uiso   1.00
C194   C     0.85834   0.04731   0.21369   0.00000  Uiso   1.00
C195   C     0.86781   0.45436   0.28432   0.00000  Uiso   1.00
C196   C     0.83333   0.02395   0.24761   0.00000  Uiso   1.00
C197   C     0.83402   0.47545   0.24881   0.00000  Uiso   1.00
C198   C     0.98378   0.23847   0.14545   0.00000  Uiso   1.00
C199   C     0.86922   0.27638   0.05974   0.00000  Uiso   1.00
C200   C     0.68533   0.25992   0.35522   0.00000  Uiso   1.00
C201   C     0.73480   0.00910   0.30878   0.00000  Uiso   1.00
C202   C     0.71847   0.47991   0.18153   0.00000  Uiso   1.00
C203   C     0.81958   0.21342   0.44401   0.00000  Uiso   1.00
C204   C     0.86763   0.27632   0.11013   0.00000  Uiso   1.00
C205   C     0.81789   0.21355   0.39330   0.00000  Uiso   1.00
C206   C     0.79688   0.22583   0.09803   0.00000  Uiso   1.00
C207   C     0.85088   0.28706   0.39847   0.00000  Uiso   1.00
C208   C     0.79314   0.22966   0.04750   0.00000  Uiso   1.00
Cu209  Cu    0.83333   0.25000   0.29821   0.00000  Uiso   1.00
Cu210  Cu    0.83333   0.25001   0.20178   0.00000  Uiso   1.00
H211   H     0.90001   0.29481   0.04675   0.00000  Uiso   1.00
H212   H     0.70387   0.28342   0.38399   0.00000  Uiso   1.00
H213   H     0.71080   0.23188   0.35215   0.00000  Uiso   1.00
H214   H     0.98242   0.24725   0.36638   0.00000  Uiso   1.00
H215   H     0.80018   0.03391   0.35348   0.00000  Uiso   1.00
H216   H     0.71488   0.01979   0.33944   0.00000  Uiso   1.00
H217   H     0.73098   0.47258   0.30478   0.00000  Uiso   1.00
H218   H     0.71563   0.02411   0.27537   0.00000  Uiso   1.00
H219   H     0.77667   0.46313   0.14117   0.00000  Uiso   1.00
H220   H     0.69277   0.46615   0.14941   0.00000  Uiso   1.00
H221   H     0.71244   0.01588   0.18466   0.00000  Uiso   1.00
H222   H     0.80963   0.18301   0.46062   0.00000  Uiso   1.00
H223   H     0.70770   0.46359   0.21415   0.00000  Uiso   1.00
H224   H     0.75918   0.09649   0.32935   0.00000  Uiso   1.00
H225   H     0.74425   0.39606   0.16056   0.00000  Uiso   1.00
H226   H     0.89944   0.09880   0.16125   0.00000  Uiso   1.00
H227   H     0.92343   0.40634   0.33855   0.00000  Uiso   1.00
H228   H     0.88677   0.49440   0.18668   0.00000  Uiso   1.00
H229   H     0.90373   0.00935   0.31074   0.00000  Uiso   1.00
H230   H     0.77106   0.19188   0.14788   0.00000  Uiso   1.00
H231   H     0.89889   0.30738   0.35839   0.00000  Uiso   1.00
H232   H     0.74236   0.22780   0.49024   0.00000  Uiso   1.00
H233   H     0.89440   0.29713   0.13399   0.00000  Uiso   1.00
H234   H     0.86083   0.35398   0.45261   0.00000  Uiso   1.00
H235   H     0.80511   0.18389   0.37244   0.00000  Uiso   1.00
H236   H     0.96268   0.19365   0.19664   0.00000  Uiso   1.00
H237   H     0.95351   0.22074   0.11996   0.00000  Uiso   1.00
H238   H     0.68599   0.23882   0.12889   0.00000  Uiso   1.00
H239   H     0.97340   0.27324   0.15070   0.00000  Uiso   1.00
H240   H     0.70346   0.30556   0.30387   0.00000  Uiso   1.00
N241   N     0.83333   0.25001   0.12934   0.00000  Uiso   1.00
N242   N     0.83333   0.24999   0.37065   0.00000  Uiso   1.00
N243   N     0.99106   0.21634   0.19124   0.00000  Uiso   1.00
N244   N     0.67576   0.28237   0.30968   0.00000  Uiso   1.00
N245   N     0.78844   0.02214   0.31856   0.00000  Uiso   1.00
N246   N     0.77124   0.47306   0.17569   0.00000  Uiso   1.00
O247   O     0.83334   0.18573   0.29071   0.00000  Uiso   1.00
O248   O     0.76723   0.37776   0.18213   0.00000  Uiso   1.00
O249   O     0.88341   0.11839   0.18324   0.00000  Uiso   1.00
O250   O     0.90140   0.38540   0.31655   0.00000  Uiso   1.00
O251   O     0.88446   0.02627   0.18041   0.00000  Uiso   1.00
O252   O     0.90236   0.47767   0.31828   0.00000  Uiso   1.00
O253   O     0.76104   0.19788   0.11376   0.00000  Uiso   1.00
O254   O     0.87615   0.32106   0.37932   0.00000  Uiso   1.00
O255   O     0.75068   0.21027   0.01967   0.00000  Uiso   1.00
O256   O     0.85648   0.32955   0.47482   0.00000  Uiso   1.00
O257   O     0.83333   0.31428   0.20928   0.00000  Uiso   1.00
O258   O     0.83334   0.18573   0.20928   0.00000  Uiso   1.00
O259   O     0.83333   0.31427   0.29072   0.00000  Uiso   1.00
O260   O     0.75828   0.25000   0.28132   0.00000  Uiso   1.00
O261   O     0.90839   0.25001   0.21868   0.00000  Uiso   1.00
O262   O     0.75828   0.25000   0.19989   0.00000  Uiso   1.00
O263   O     0.90839   0.25000   0.30011   0.00000  Uiso   1.00
O264   O     0.78023   0.11659   0.31222   0.00000  Uiso   1.00
C265   C     0.16627   0.66491   0.24944   0.00000  Uiso   1.00
C266   C     0.17990   0.79016   0.44864   0.00000  Uiso   1.00
C267   C     0.16490   0.75302   0.02705   0.00000  Uiso   1.00
C268   C     0.16609   0.75225   0.47264   0.00000  Uiso   1.00
C269   C     0.06813   0.74976   0.23783   0.00000  Uiso   1.00
C270   C     0.26523   0.74988   0.26229   0.00000  Uiso   1.00
C271   C     0.01343   0.74308   0.23216   0.00000  Uiso   1.00
C272   C     0.32011   0.75566   0.26861   0.00000  Uiso   1.00
C273   C     0.14188   0.54651   0.28187   0.00000  Uiso   1.00
C274   C     0.13427   0.95064   0.21360   0.00000  Uiso   1.00
C275   C     0.14032   0.59296   0.28150   0.00000  Uiso   1.00
C276   C     0.16664   0.83495   0.25038   0.00000  Uiso   1.00
C277   C     0.13332   0.90409   0.21474   0.00000  Uiso   1.00
C278   C     0.16578   0.61633   0.24825   0.00000  Uiso   1.00
C279   C     0.16625   0.88326   0.25061   0.00000  Uiso   1.00
C280   C     0.19121   0.59380   0.21429   0.00000  Uiso   1.00
C281   C     0.20053   0.90791   0.28480   0.00000  Uiso   1.00
C282   C     0.19167   0.54731   0.21369   0.00000  Uiso   1.00
C283   C     0.20114   0.95436   0.28432   0.00000  Uiso   1.00
C284   C     0.16666   0.52395   0.24761   0.00000  Uiso   1.00
C285   C     0.16735   0.97545   0.24881   0.00000  Uiso   1.00
C286   C     0.31711   0.73847   0.14545   0.00000  Uiso   1.00
C287   C     0.20256   0.77638   0.05974   0.00000  Uiso   1.00
C288   C     0.01866   0.75992   0.35522   0.00000  Uiso   1.00
C289   C     0.06813   0.50910   0.30878   0.00000  Uiso   1.00
C290   C     0.05180   0.97991   0.18153   0.00000  Uiso   1.00
C291   C     0.15291   0.71342   0.44401   0.00000  Uiso   1.00
C292   C     0.20096   0.77632   0.11013   0.00000  Uiso   1.00
C293   C     0.15122   0.71355   0.39330   0.00000  Uiso   1.00
C294   C     0.13021   0.72583   0.09803   0.00000  Uiso   1.00
C295   C     0.18422   0.78706   0.39847   0.00000  Uiso   1.00
C296   C     0.12648   0.72966   0.04750   0.00000  Uiso   1.00
Cu297  Cu    0.16667   0.75000   0.29821   0.00000  Uiso   1.00
Cu298  Cu    0.16667   0.75001   0.20178   0.00000  Uiso   1.00
H299   H     0.23334   0.79481   0.04675   0.00000  Uiso   1.00
H300   H     0.03721   0.78342   0.38399   0.00000  Uiso   1.00
H301   H     0.04413   0.73188   0.35215   0.00000  Uiso   1.00
H302   H     0.31575   0.74725   0.36638   0.00000  Uiso   1.00
H303   H     0.13351   0.53391   0.35348   0.00000  Uiso   1.00
H304   H     0.04821   0.51979   0.33944   0.00000  Uiso   1.00
H305   H     0.06431   0.97258   0.30478   0.00000  Uiso   1.00
H306   H     0.04896   0.52411   0.27537   0.00000  Uiso   1.00
H307   H     0.11000   0.96313   0.14117   0.00000  Uiso   1.00
H308   H     0.02611   0.96615   0.14941   0.00000  Uiso   1.00
H309   H     0.04577   0.51588   0.18466   0.00000  Uiso   1.00
H310   H     0.14296   0.68301   0.46062   0.00000  Uiso   1.00
H311   H     0.04104   0.96359   0.21415   0.00000  Uiso   1.00
H312   H     0.09251   0.59649   0.32935   0.00000  Uiso   1.00
H313   H     0.07758   0.89606   0.16056   0.00000  Uiso   1.00
H314   H     0.23277   0.59880   0.16125   0.00000  Uiso   1.00
H315   H     0.25676   0.90634   0.33855   0.00000  Uiso   1.00
H316   H     0.22010   0.99440   0.18668   0.00000  Uiso   1.00
H317   H     0.23706   0.50935   0.31074   0.00000  Uiso   1.00
H318   H     0.10439   0.69188   0.14788   0.00000  Uiso   1.00
H319   H     0.23222   0.80738   0.35839   0.00000  Uiso   1.00
H320   H     0.07570   0.72780   0.49024   0.00000  Uiso   1.00
H321   H     0.22773   0.79713   0.13399   0.00000  Uiso   1.00
H322   H     0.19416   0.85398   0.45261   0.00000  Uiso   1.00
H323   H     0.13844   0.68389   0.37244   0.00000  Uiso   1.00
H324   H     0.29601   0.69365   0.19664   0.00000  Uiso   1.00
H325   H     0.28685   0.72074   0.11996   0.00000  Uiso   1.00
H326   H     0.01932   0.73882   0.12889   0.00000  Uiso   1.00
H327   H     0.30673   0.77324   0.15070   0.00000  Uiso   1.00
H328   H     0.03679   0.80556   0.30387   0.00000  Uiso   1.00
N329   N     0.16667   0.75001   0.12934   0.00000  Uiso   1.00
N330   N     0.16667   0.74999   0.37065   0.00000  Uiso   1.00
N331   N     0.32440   0.71634   0.19124   0.00000  Uiso   1.00
N332   N     0.00909   0.78237   0.30968   0.00000  Uiso   1.00
N333   N     0.12177   0.52214   0.31856   0.00000  Uiso   1.00
N334   N     0.10458   0.97306   0.17569   0.00000  Uiso   1.00
O335   O     0.16667   0.68573   0.29071   0.00000  Uiso   1.00
O336   O     0.10056   0.87776   0.18213   0.00000  Uiso   1.00
O337   O     0.21674   0.61839   0.18324   0.00000  Uiso   1.00
O338   O     0.23474   0.88540   0.31655   0.00000  Uiso   1.00
O339   O     0.21779   0.52627   0.18041   0.00000  Uiso   1.00
O340   O     0.23569   0.97767   0.31828   0.00000  Uiso   1.00
O341   O     0.09437   0.69788   0.11376   0.00000  Uiso   1.00
O342   O     0.20948   0.82106   0.37932   0.00000  Uiso   1.00
O343   O     0.08402   0.71027   0.01967   0.00000  Uiso   1.00
O344   O     0.18981   0.82955   0.47482   0.00000  Uiso   1.00
O345   O     0.16666   0.81428   0.20928   0.00000  Uiso   1.00
O346   O     0.16667   0.68573   0.20928   0.00000  Uiso   1.00
O347   O     0.16666   0.81427   0.29072   0.00000  Uiso   1.00
O348   O     0.09161   0.75000   0.28132   0.00000  Uiso   1.00
O349   O     0.24172   0.75001   0.21868   0.00000  Uiso   1.00
O350   O     0.09161   0.75000   0.19989   0.00000  Uiso   1.00
O351   O     0.24172   0.75000   0.30011   0.00000  Uiso   1.00
O352   O     0.11357   0.61659   0.31222   0.00000  Uiso   1.00
C353   C     0.49960   0.66491   0.24944   0.00000  Uiso   1.00
C354   C     0.51323   0.79016   0.44864   0.00000  Uiso   1.00
C355   C     0.49823   0.75302   0.02705   0.00000  Uiso   1.00
C356   C     0.49942   0.75225   0.47264   0.00000  Uiso   1.00
C357   C     0.40146   0.74976   0.23783   0.00000  Uiso   1.00
C358   C     0.59856   0.74988   0.26229   0.00000  Uiso   1.00
C359   C     0.34676   0.74308   0.23216   0.00000  Uiso   1.00
C360   C     0.65344   0.75566   0.26861   0.00000  Uiso   1.00
C361   C     0.47521   0.54651   0.28187   0.00000  Uiso   1.00
C362   C     0.46761   0.95064   0.21360   0.00000  Uiso   1.00
C363   C     0.47366   0.59296   0.28150   0.00000  Uiso   1.00
C364   C     0.49998   0.83495   0.25038   0.00000  Uiso   1.00
C365   C     0.46665   0.90409   0.21474   0.00000  Uiso   1.00
C366   C     0.49911   0.61633   0.24825   0.00000  Uiso   1.00
C367   C     0.49959   0.88326   0.25061   0.00000  Uiso   1.00
C368   C     0.52455   0.59380   0.21429   0.00000  Uiso   1.00
C369   C     0.53386   0.90791   0.28480   0.00000  Uiso   1.00
C370   C     0.52501   0.54731   0.21369   0.00000  Uiso   1.00
C371   C     0.53447   0.95436   0.28432   0.00000  Uiso   1.00
C372   C     0.50000   0.52395   0.24761   0.00000  Uiso   1.00
C373   C     0.50068   0.97545   0.24881   0.00000  Uiso   1.00
C374   C     0.65045   0.73847   0.14545   0.00000  Uiso   1.00
C375   C     0.53589   0.77638   0.05974   0.00000  Uiso   1.00
C376   C     0.35199   0.75992   0.35522   0.00000  Uiso   1.00
C377   C     0.40146   0.50910   0.30878   0.00000  Uiso   1.00
C378   C     0.38513   0.97991   0.18153   0.00000  Uiso   1.00
C379   C     0.48624   0.71342   0.44401   0.00000  Uiso   1.00
C380   C     0.53429   0.77632   0.11013   0.00000  Uiso   1.00
C381   C     0.48456   0.71355   0.39330   0.00000  Uiso   1.00
C382   C     0.46354   0.72583   0.09803   0.00000  Uiso   1.00
C383   C     0.51755   0.78706   0.39847   0.00000  Uiso   1.00
C384   C     0.45981   0.72966   0.04750   0.00000  Uiso   1.00
Cu385  Cu    0.50000   0.75000   0.29821   0.00000  Uiso   1.00
Cu386  Cu    0.50000   0.75001   0.20178   0.00000  Uiso   1.00
H387   H     0.56667   0.79481   0.04675   0.00000  Uiso   1.00
H388   H     0.37054   0.78342   0.38399   0.00000  Uiso   1.00
H389   H     0.37746   0.73188   0.35215   0.00000  Uiso   1.00
H390   H     0.64908   0.74725   0.36638   0.00000  Uiso   1.00
H391   H     0.46685   0.53391   0.35348   0.00000  Uiso   1.00
H392   H     0.38155   0.51979   0.33944   0.00000  Uiso   1.00
H393   H     0.39764   0.97258   0.30478   0.00000  Uiso   1.00
H394   H     0.38229   0.52411   0.27537   0.00000  Uiso   1.00
H395   H     0.44333   0.96313   0.14117   0.00000  Uiso   1.00
H396   H     0.35944   0.96615   0.14941   0.00000  Uiso   1.00
H397   H     0.37911   0.51588   0.18466   0.00000  Uiso   1.00
H398   H     0.47629   0.68301   0.46062   0.00000  Uiso   1.00
H399   H     0.37437   0.96359   0.21415   0.00000  Uiso   1.00
H400   H     0.42584   0.59649   0.32935   0.00000  Uiso   1.00
H401   H     0.41092   0.89606   0.16056   0.00000  Uiso   1.00
H402   H     0.56610   0.59880   0.16125   0.00000  Uiso   1.00
H403   H     0.59010   0.90634   0.33855   0.00000  Uiso   1.00
H404   H     0.55343   0.99440   0.18668   0.00000  Uiso   1.00
H405   H     0.57039   0.50935   0.31074   0.00000  Uiso   1.00
H406   H     0.43772   0.69188   0.14788   0.00000  Uiso   1.00
H407   H     0.56555   0.80738   0.35839   0.00000  Uiso   1.00
H408   H     0.40903   0.72780   0.49024   0.00000  Uiso   1.00
H409   H     0.56106   0.79713   0.13399   0.00000  Uiso   1.00
H410   H     0.52749   0.85398   0.45261   0.00000  Uiso   1.00
H411   H     0.47178   0.68389   0.37244   0.00000  Uiso   1.00
H412   H     0.62935   0.69365   0.19664   0.00000  Uiso   1.00
H413   H     0.62018   0.72074   0.11996   0.00000  Uiso   1.00
H414   H     0.35265   0.73882   0.12889   0.00000  Uiso   1.00
H415   H     0.64007   0.77324   0.15070   0.00000  Uiso   1.00
H416   H     0.37013   0.80556   0.30387   0.00000  Uiso   1.00
N417   N     0.50000   0.75001   0.12934   0.00000  Uiso   1.00
N418   N     0.50000   0.74999   0.37065   0.00000  Uiso   1.00
N419   N     0.65773   0.71634   0.19124   0.00000  Uiso   1.00
N420   N     0.34242   0.78237   0.30968   0.00000  Uiso   1.00
N421   N     0.45511   0.52214   0.31856   0.00000  Uiso   1.00
N422   N     0.43791   0.97306   0.17569   0.00000  Uiso   1.00
O423   O     0.50000   0.68573   0.29071   0.00000  Uiso   1.00
O424   O     0.43389   0.87776   0.18213   0.00000  Uiso   1.00
O425   O     0.55008   0.61839   0.18324   0.00000  Uiso   1.00
O426   O     0.56807   0.88540   0.31655   0.00000  Uiso   1.00
O427   O     0.55112   0.52627   0.18041   0.00000  Uiso   1.00
O428   O     0.56902   0.97767   0.31828   0.00000  Uiso   1.00
O429   O     0.42770   0.69788   0.11376   0.00000  Uiso   1.00
O430   O     0.54281   0.82106   0.37932   0.00000  Uiso   1.00
O431   O     0.41735   0.71027   0.01967   0.00000  Uiso   1.00
O432   O     0.52314   0.82955   0.47482   0.00000  Uiso   1.00
O433   O     0.50000   0.81428   0.20928   0.00000  Uiso   1.00
O434   O     0.50000   0.68573   0.20928   0.00000  Uiso   1.00
O435   O     0.50000   0.81427   0.29072   0.00000  Uiso   1.00
O436   O     0.42495   0.75000   0.28132   0.00000  Uiso   1.00
O437   O     0.57505   0.75001   0.21868   0.00000  Uiso   1.00
O438   O     0.42495   0.75000   0.19989   0.00000  Uiso   1.00
O439   O     0.57505   0.75000   0.30011   0.00000  Uiso   1.00
O440   O     0.44690   0.61659   0.31222   0.00000  Uiso   1.00
C441   C     0.83293   0.66491   0.24944   0.00000  Uiso   1.00
C442   C     0.84657   0.79016   0.44864   0.00000  Uiso   1.00
C443   C     0.83157   0.75302   0.02705   0.00000  Uiso   1.00
C444   C     0.83275   0.75225   0.47264   0.00000  Uiso   1.00
C445   C     0.73480   0.74976   0.23783   0.00000  Uiso   1.00
C446   C     0.93190   0.74988   0.26229   0.00000  Uiso   1.00
C447   C     0.68009   0.74308   0.23216   0.00000  Uiso   1.00
C448   C     0.98677   0.75566   0.26861   0.00000  Uiso   1.00
C449   C     0.80854   0.54651   0.28187   0.00000  Uiso   1.00
C450   C     0.80094   0.95064   0.21360   0.00000  Uiso   1.00
C451   C     0.80699   0.59296   0.28150   0.00000  Uiso   1.00
C452   C     0.83331   0.83495   0.25038   0.00000  Uiso   1.00
C453   C     0.79998   0.90409   0.21474   0.00000  Uiso   1.00
C454   C     0.83245   0.61633   0.24825   0.00000  Uiso   1.00
C455   C     0.83292   0.88326   0.25061   0.00000  Uiso   1.00
C456   C     0.85788   0.59380   0.21429   0.00000  Uiso   1.00
C457   C     0.86719   0.90791   0.28480   0.00000  Uiso   1.00
C458   C     0.85834   0.54731   0.21369   0.00000  Uiso   1.00
C459   C     0.86781   0.95436   0.28432   0.00000  Uiso   1.00
C460   C     0.83333   0.52395   0.24761   0.00000  Uiso   1.00
C461   C     0.83402   0.97545   0.24881   0.00000  Uiso   1.00
C462   C     0.98378   0.73847   0.14545   0.00000  Uiso   1.00
C463   C     0.86922   0.77638   0.05974   0.00000  Uiso   1.00
C464   C     0.68533   0.75992   0.35522   0.00000  Uiso   1.00
C465   C     0.73480   0.50910   0.30878   0.00000  Uiso   1.00
C466   C     0.71847   0.97991   0.18153   0.00000  Uiso   1.00
C467   C     0.81958   0.71342   0.44401   0.00000  Uiso   1.00
C468   C     0.86763   0.77632   0.11013   0.00000  Uiso   1.00
C469   C     0.81789   0.71355   0.39330   0.00000  Uiso   1.00
C470   C     0.79688   0.72583   0.09803   0.00000  Uiso   1.00
C471   C     0.85088   0.78706   0.39847   0.00000  Uiso   1.00
C472   C     0.79314   0.72966   0.04750   0.00000  Uiso   1.00
Cu473  Cu    0.83333   0.75000   0.29821   0.00000  Uiso   1.00
Cu474  Cu    0.83333   0.75001   0.20178   0.00000  Uiso   1.00
H475   H     0.90001   0.79481   0.04675   0.00000  Uiso   1.00
H476   H     0.70387   0.78342   0.38399   0.00000  Uiso   1.00
H477   H     0.71080   0.73188   0.35215   0.00000  Uiso   1.00
H478   H     0.98242   0.74725   0.36638   0.00000  Uiso   1.00
H479   H     0.80018   0.53391   0.35348   0.00000  Uiso   1.00
H480   H     0.71488   0.51979   0.33944   0.00000  Uiso   1.00
H481   H     0.73098   0.97258   0.30478   0.00000  Uiso   1.00
H482   H     0.71563   0.52411   0.27537   0.00000  Uiso   1.00
H483   H     0.77667   0.96313   0.14117   0.00000  Uiso   1.00
H484   H     0.69277   0.96615   0.14941   0.00000  Uiso   1.00
H485   H     0.71244   0.51588   0.18466   0.00000  Uiso   1.00
H486   H     0.80963   0.68301   0.46062   0.00000  Uiso   1.00
H487   H     0.70770   0.96359   0.21415   0.00000  Uiso   1.00
H488   H     0.75918   0.59649   0.32935   0.00000  Uiso   1.00
H489   H     0.74425   0.89606   0.16056   0.00000  Uiso   1.00
H490   H     0.89944   0.59880   0.16125   0.00000  Uiso   1.00
H491   H     0.92343   0.90634   0.33855   0.00000  Uiso   1.00
H492   H     0.88677   0.99440   0.18668   0.00000  Uiso   1.00
H493   H     0.90373   0.50935   0.31074   0.00000  Uiso   1.00
H494   H     0.77106   0.69188   0.14788   0.00000  Uiso   1.00
H495   H     0.89889   0.80738   0.35839   0.00000  Uiso   1.00
H496   H     0.74236   0.72780   0.49024   0.00000  Uiso   1.00
H497   H     0.89440   0.79713   0.13399   0.00000  Uiso   1.00
H498   H     0.86083   0.85398   0.45261   0.00000  Uiso   1.00
H499   H     0.80511   0.68389   0.37244   0.00000  Uiso   1.00
H500   H     0.96268   0.69365   0.19664   0.00000  Uiso   1.00
H501   H     0.95351   0.72074   0.11996   0.00000  Uiso   1.00
H502   H     0.68599   0.73882   0.12889   0.00000  Uiso   1.00
H503   H     0.97340   0.77324   0.15070   0.00000  Uiso   1.00
H504   H     0.70346   0.80556   0.30387   0.00000  Uiso   1.00
N505   N     0.83333   0.75001   0.12934   0.00000  Uiso   1.00
N506   N     0.83333   0.74999   0.37065   0.00000  Uiso   1.00
N507   N     0.99106   0.71634   0.19124   0.00000  Uiso   1.00
N508   N     0.67576   0.78237   0.30968   0.00000  Uiso   1.00
N509   N     0.78844   0.52214   0.31856   0.00000  Uiso   1.00
N510   N     0.77124   0.97306   0.17569   0.00000  Uiso   1.00
O511   O     0.83334   0.68573   0.29071   0.00000  Uiso   1.00
O512   O     0.76723   0.87776   0.18213   0.00000  Uiso   1.00
O513   O     0.88341   0.61839   0.18324   0.00000  Uiso   1.00
O514   O     0.90140   0.88540   0.31655   0.00000  Uiso   1.00
O515   O     0.88446   0.52627   0.18041   0.00000  Uiso   1.00
O516   O     0.90236   0.97767   0.31828   0.00000  Uiso   1.00
O517   O     0.76104   0.69788   0.11376   0.00000  Uiso   1.00
O518   O     0.87615   0.82106   0.37932   0.00000  Uiso   1.00
O519   O     0.75068   0.71027   0.01967   0.00000  Uiso   1.00
O520   O     0.85648   0.82955   0.47482   0.00000  Uiso   1.00
O521   O     0.83333   0.81428   0.20928   0.00000  Uiso   1.00
O522   O     0.83334   0.68573   0.20928   0.00000  Uiso   1.00
O523   O     0.83333   0.81427   0.29072   0.00000  Uiso   1.00
O524   O     0.75828   0.75000   0.28132   0.00000  Uiso   1.00
O525   O     0.90839   0.75001   0.21868   0.00000  Uiso   1.00
O526   O     0.75828   0.75000   0.19989   0.00000  Uiso   1.00
O527   O     0.90839   0.75000   0.30011   0.00000  Uiso   1.00
O528   O     0.78023   0.61659   0.31222   0.00000  Uiso   1.00
C529   C     0.16627   0.16491   0.74944   0.00000  Uiso   1.00
C530   C     0.17990   0.29016   0.94864   0.00000  Uiso   1.00
C531   C     0.16490   0.25302   0.52705   0.00000  Uiso   1.00
C532   C     0.16609   0.25225   0.97264   0.00000  Uiso   1.00
C533   C     0.06813   0.24976   0.73783   0.00000  Uiso   1.00
C534   C     0.26523   0.24988   0.76229   0.00000  Uiso   1.00
C535   C     0.01343   0.24308   0.73216   0.00000  Uiso   1.00
C536   C     0.32011   0.25566   0.76861   0.00000  Uiso   1.00
C537   C     0.14188   0.04651   0.78187   0.00000  Uiso   1.00
C538   C     0.13427   0.45064   0.71360   0.00000  Uiso   1.00
C539   C     0.14032   0.09296   0.78150   0.00000  Uiso   1.00
C540   C     0.16664   0.33495   0.75038   0.00000  Uiso   1.00
C541   C     0.13332   0.40409   0.71474   0.00000  Uiso   1.00
C542   C     0.16578   0.11633   0.74825   0.00000  Uiso   1.00
C543   C     0.16625   0.38326   0.75061   0.00000  Uiso   1.00
C544   C     0.19121   0.09380   0.71429   0.00000  Uiso   1.00
C545   C     0.20053   0.40791   0.78480   0.00000  Uiso   1.00
C546   C     0.19167   0.04731   0.71369   0.00000  Uiso   1.00
C547   C     0.20114   0.45436   0.78432   0.00000  Uiso   1.00
C548   C     0.16666   0.02395   0.74761   0.00000  Uiso   1.00
C549   C     0.16735   0.47545   0.74881   0.00000  Uiso   1.00
C550   C     0.31711   0.23847   0.64545   0.00000  Uiso   1.00
C551   C     0.20256   0.27638   0.55974   0.00000  Uiso   1.00
C552   C     0.01866   0.25992   0.85522   0.00000  Uiso   1.00
C553   C     0.06813   0.00910   0.80878   0.00000  Uiso   1.00
C554   C     0.05180   0.47991   0.68153   0.00000  Uiso   1.00
C555   C     0.15291   0.21342   0.94401   0.00000  Uiso   1.00
C556   C     0.20096   0.27632   0.61013   0.00000  Uiso   1.00
C557   C     0.15122   0.21355   0.89330   0.00000  Uiso   1.00
C558   C     0.13021   0.22583   0.59803   0.00000  Uiso   1.00
C559   C     0.18422   0.28706   0.89847   0.00000  Uiso   1.00
C560   C     0.12648   0.22966   0.54750   0.00000  Uiso   1.00
Cu561  Cu    0.16667   0.25000   0.79821   0.00000  Uiso   1.00
Cu562  Cu    0.16667   0.25001   0.70178   0.00000  Uiso   1.00
H563   H     0.23334   0.29481   0.54675   0.00000  Uiso   1.00
H564   H     0.03721   0.28342   0.88399   0.00000  Uiso   1.00
H565   H     0.04413   0.23188   0.85215   0.00000  Uiso   1.00
H566   H     0.31575   0.24725   0.86638   0.00000  Uiso   1.00
H567   H     0.13351   0.03391   0.85348   0.00000  Uiso   1.00
H568   H     0.04821   0.01979   0.83944   0.00000  Uiso   1.00
H569   H     0.06431   0.47258   0.80478   0.00000  Uiso   1.00
H570   H     0.04896   0.02411   0.77537   0.00000  Uiso   1.00
H571   H     0.11000   0.46313   0.64117   0.00000  Uiso   1.00
H572   H     0.02611   0.46615   0.64941   0.00000  Uiso   1.00
H573   H     0.04577   0.01588   0.68466   0.00000  Uiso   1.00
H574   H     0.14296   0.18301   0.96062   0.00000  Uiso   1.00
H575   H     0.04104   0.46359   0.71415   0.00000  Uiso   1.00
H576   H     0.09251   0.09649   0.82935   0.00000  Uiso   1.00
H577   H     0.07758   0.39606   0.66056   0.00000  Uiso   1.00
H578   H     0.23277   0.09880   0.66125   0.00000  Uiso   1.00
H579   H     0.25676   0.40634   0.83855   0.00000  Uiso   1.00
H580   H     0.22010   0.49440   0.68668   0.00000  Uiso   1.00
H581   H     0.23706   0.00935   0.81074   0.00000  Uiso   1.00
H582   H     0.10439   0.19188   0.64788   0.00000  Uiso   1.00
H583   H     0.23222   0.30738   0.85839   0.00000  Uiso   1.00
H584   H     0.07570   0.22780   0.99024   0.00000  Uiso   1.00
H585   H     0.22773   0.29713   0.63399   0.00000  Uiso   1.00
H586   H     0.19416   0.35398   0.95261   0.00000  Uiso   1.00
H587   H     0.13844   0.18389   0.87244   0.00000  Uiso   1.00
H588   H     0.29601   0.19365   0.69664   0.00000  Uiso   1.00
H589   H     0.28685   0.22074   0.61996   0.00000  Uiso   1.00
H590   H     0.01932   0.23882   0.62889   0.00000  Uiso   1.00
H591   H     0.30673   0.27324   0.65070   0.00000  Uiso   1.00
H592   H     0.03679   0.30556   0.80387   0.00000  Uiso   1.00
N593   N     0.16667   0.25001   0.62934   0.00000  Uiso   1.00
N594   N     0.16667   0.24999   0.87065   0.00000  Uiso   1.00
N595   N     0.32440   0.21634   0.69124   0.00000  Uiso   1.00
N596   N     0.00909   0.28237   0.80968   0.00000  Uiso   1.00
N597   N     0.12177   0.02214   0.81856   0.00000  Uiso   1.00
N598   N     0.10458   0.47306   0.67569   0.00000  Uiso   1.00
O599   O     0.16667   0.18573   0.79071   0.00000  Uiso   1.00
O600   O     0.10056   0.37776   0.68213   0.00000  Uiso   1.00
O601   O     0.21674   0.11839   0.68324   0.00000  Uiso   1.00
O602   O     0.23474   0.38540   0.81655   0.00000  Uiso   1.00
O603   O     0.21779   0.02627   0.68041   0.00000  Uiso   1.00
O604   O     0.23569   0.47767   0.81828   0.00000  Uiso   1.00
O605   O     0.09437   0.19788   0.61376   0.00000  Uiso   1.00
O606   O     0.20948   0.32106   0.87932   0.00000  Uiso   1.00
O607   O     0.08402   0.21027   0.51967   0.00000  Uiso   1.00
O608   O     0.18981   0.32955   0.97482   0.00000  Uiso   1.00
O609   O     0.16666   0.31428   0.70928   0.00000  Uiso   1.00
O610   O     0.16667   0.18573   0.70928   0.00000  Uiso   1.00
O611   O     0.16666   0.31427   0.79072   0.00000  Uiso   1.00
O612   O     0.09161   0.25000   0.78132   0.00000  Uiso   1.00
O613   O     0.24172   0.25001   0.71868   0.00000  Uiso   1.00
O614   O     0.09161   0.25000   0.69989   0.00000  Uiso   1.00
O615   O     0.24172   0.25000   0.80011   0.00000  Uiso   1.00
O616   O     0.11357   0.11659   0.81222   0.00000  Uiso   1.00
C617   C     0.49960   0.16491   0.74944   0.00000  Uiso   1.00
C618   C     0.51323   0.29016   0.94864   0.00000  Uiso   1.00
C619   C     0.49823   0.25302   0.52705   0.00000  Uiso   1.00
C620   C     0.49942   0.25225   0.97264   0.00000  Uiso   1.00
C621   C     0.40146   0.24976   0.73783   0.00000  Uiso   1.00
C622   C     0.59856   0.24988   0.76229   0.00000  Uiso   1.00
C623   C     0.34676   0.24308   0.73216   0.00000  Uiso   1.00
C624   C     0.65344   0.25566   0.76861   0.00000  Uiso   1.00
C625   C     0.47521   0.04651   0.78187   0.00000  Uiso   1.00
C626   C     0.46761   0.45064   0.71360   0.00000  Uiso   1.00
C627   C     0.47366   0.09296   0.78150   0.00000  Uiso   1.00
C628   C     0.49998   0.33495   0.75038   0.00000  Uiso   1.00
C629   C     0.46665   0.40409   0.71474   0.00000  Uiso   1.00
C630   C     0.49911   0.11633   0.74825   0.00000  Uiso   1.00
C631   C     0.49959   0.38326   0.75061   0.00000  Uiso   1.00
C632   C     0.52455   0.09380   0.71429   0.00000  Uiso   1.00
C633   C     0.53386   0.40791   0.78480   0.00000  Uiso   1.00
C634   C     0.52501   0.04731   0.71369   0.00000  Uiso   1.00
C635   C     0.53447   0.45436   0.78432   0.00000  Uiso   1.00
C636   C     0.50000   0.02395   0.74761   0.00000  Uiso   1.00
C637   C     0.50068   0.47545   0.74881   0.00000  Uiso   1.00
C638   C     0.65045   0.23847   0.64545   0.00000  Uiso   1.00
C639   C     0.53589   0.27638   0.55974   0.00000  Uiso   1.00
C640   C     0.35199   0.25992   0.85522   0.00000  Uiso   1.00
C641   C     0.40146   0.00910   0.80878   0.00000  Uiso   1.00
C642   C     0.38513   0.47991   0.68153   0.00000  Uiso   1.00
C643   C     0.48624   0.21342   0.94401   0.00000  Uiso   1.00
C644   C     0.53429   0.27632   0.61013   0.00000  Uiso   1.00
C645   C     0.48456   0.21355   0.89330   0.00000  Uiso   1.00
C646   C     0.46354   0.22583   0.59803   0.00000  Uiso   1.00
C647   C     0.51755   0.28706   0.89847   0.00000  Uiso   1.00
C648   C     0.45981   0.22966   0.54750   0.00000  Uiso   1.00
Cu649  Cu    0.50000   0.25000   0.79821   0.00000  Uiso   1.00
Cu650  Cu    0.50000   0.25001   0.70178   0.00000  Uiso   1.00
H651   H     0.56667   0.29481   0.54675   0.00000  Uiso   1.00
H652   H     0.37054   0.28342   0.88399   0.00000  Uiso   1.00
H653   H     0.37746   0.23188   0.85215   0.00000  Uiso   1.00
H654   H     0.64908   0.24725   0.86638   0.00000  Uiso   1.00
H655   H     0.46685   0.03391   0.85348   0.00000  Uiso   1.00
H656   H     0.38155   0.01979   0.83944   0.00000  Uiso   1.00
H657   H     0.39764   0.47258   0.80478   0.00000  Uiso   1.00
H658   H     0.38229   0.02411   0.77537   0.00000  Uiso   1.00
H659   H     0.44333   0.46313   0.64117   0.00000  Uiso   1.00
H660   H     0.35944   0.46615   0.64941   0.00000  Uiso   1.00
H661   H     0.37911   0.01588   0.68466   0.00000  Uiso   1.00
H662   H     0.47629   0.18301   0.96062   0.00000  Uiso   1.00
H663   H     0.37437   0.46359   0.71415   0.00000  Uiso   1.00
H664   H     0.42584   0.09649   0.82935   0.00000  Uiso   1.00
H665   H     0.41092   0.39606   0.66056   0.00000  Uiso   1.00
H666   H     0.56610   0.09880   0.66125   0.00000  Uiso   1.00
H667   H     0.59010   0.40634   0.83855   0.00000  Uiso   1.00
H668   H     0.55343   0.49440   0.68668   0.00000  Uiso   1.00
H669   H     0.57039   0.00935   0.81074   0.00000  Uiso   1.00
H670   H     0.43772   0.19188   0.64788   0.00000  Uiso   1.00
H671   H     0.56555   0.30738   0.85839   0.00000  Uiso   1.00
H672   H     0.40903   0.22780   0.99024   0.00000  Uiso   1.00
H673   H     0.56106   0.29713   0.63399   0.00000  Uiso   1.00
H674   H     0.52749   0.35398   0.95261   0.00000  Uiso   1.00
H675   H     0.47178   0.18389   0.87244   0.00000  Uiso   1.00
H676   H     0.62935   0.19365   0.69664   0.00000  Uiso   1.00
H677   H     0.62018   0.22074   0.61996   0.00000  Uiso   1.00
H678   H     0.35265   0.23882   0.62889   0.00000  Uiso   1.00
H679   H     0.64007   0.27324   0.65070   0.00000  Uiso   1.00
H680   H     0.37013   0.30556   0.80387   0.00000  Uiso   1.00
N681   N     0.50000   0.25001   0.62934   0.00000  Uiso   1.00
N682   N     0.50000   0.24999   0.87065   0.00000  Uiso   1.00
N683   N     0.65773   0.21634   0.69124   0.00000  Uiso   1.00
N684   N     0.34242   0.28237   0.80968   0.00000  Uiso   1.00
N685   N     0.45511   0.02214   0.81856   0.00000  Uiso   1.00
N686   N     0.43791   0.47306   0.67569   0.00000  Uiso   1.00
O687   O     0.50000   0.18573   0.79071   0.00000  Uiso   1.00
O688   O     0.43389   0.37776   0.68213   0.00000  Uiso   1.00
O689   O     0.55008   0.11839   0.68324   0.00000  Uiso   1.00
O690   O     0.56807   0.38540   0.81655   0.00000  Uiso   1.00
O691   O     0.55112   0.02627   0.68041   0.00000  Uiso   1.00
O692   O     0.56902   0.47767   0.81828   0.00000  Uiso   1.00
O693   O     0.42770   0.19788   0.61376   0.00000  Uiso   1.00
O694   O     0.54281   0.32106   0.87932   0.00000  Uiso   1.00
O695   O     0.41735   0.21027   0.51967   0.00000  Uiso   1.00
O696   O     0.52314   0.32955   0.97482   0.00000  Uiso   1.00
O697   O     0.50000   0.31428   0.70928   0.00000  Uiso   1.00
O698   O     0.50000   0.18573   0.70928   0.00000  Uiso   1.00
O699   O     0.50000   0.31427   0.79072   0.00000  Uiso   1.00
O700   O     0.42495   0.25000   0.78132   0.00000  Uiso   1.00
O701   O     0.57505   0.25001   0.71868   0.00000  Uiso   1.00
O702   O     0.42495   0.25000   0.69989   0.00000  Uiso   1.00
O703   O     0.57505   0.25000   0.80011   0.00000  Uiso   1.00
O704   O     0.44690   0.11659   0.81222   0.00000  Uiso   1.00
C705   C     0.83293   0.16491   0.74944   0.00000  Uiso   1.00
C706   C     0.84657   0.29016   0.94864   0.00000  Uiso   1.00
C707   C     0.83157   0.25302   0.52705   0.00000  Uiso   1.00
C708   C     0.83275   0.25225   0.97264   0.00000  Uiso   1.00
C709   C     0.73480   0.24976   0.73783   0.00000  Uiso   1.00
C710   C     0.93190   0.24988   0.76229   0.00000  Uiso   1.00
C711   C     0.68009   0.24308   0.73216   0.00000  Uiso   1.00
C712   C     0.98677   0.25566   0.76861   0.00000  Uiso   1.00
C713   C     0.80854   0.04651   0.78187   0.00000  Uiso   1.00
C714   C     0.80094   0.45064   0.71360   0.00000  Uiso   1.00
C715   C     0.80699   0.09296   0.78150   0.00000  Uiso   1.00
C716   C     0.83331   0.33495   0.75038   0.00000  Uiso   1.00
C717   C     0.79998   0.40409   0.71474   0.00000  Uiso   1.00
C718   C     0.83245   0.11633   0.74825   0.00000  Uiso   1.00
C719   C     0.83292   0.38326   0.75061   0.00000  Uiso   1.00
C720   C     0.85788   0.09380   0.71429   0.00000  Uiso   1.00
C721   C     0.86719   0.40791   0.78480   0.00000  Uiso   1.00
C722   C     0.85834   0.04731   0.71369   0.00000  Uiso   1.00
C723   C     0.86781   0.45436   0.78432   0.00000  Uiso   1.00
C724   C     0.83333   0.02395   0.74761   0.00000  Uiso   1.00
C725   C     0.83402   0.47545   0.74881   0.00000  Uiso   1.00
C726   C     0.98378   0.23847   0.64545   0.00000  Uiso   1.00
C727   C     0.86922   0.27638   0.55974   0.00000  Uiso   1.00
C728   C     0.68533   0.25992   0.85522   0.00000  Uiso   1.00
C729   C     0.73480   0.00910   0.80878   0.00000  Uiso   1.00
C730   C     0.71847   0.47991   0.68153   0.00000  Uiso   1.00
C731   C     0.81958   0.21342   0.94401   0.00000  Uiso   1.00
C732   C     0.86763   0.27632   0.61013   0.00000  Uiso   1.00
C733   C     0.81789   0.21355   0.89330   0.00000  Uiso   1.00
C734   C     0.79688   0.22583   0.59803   0.00000  Uiso   1.00
C735   C     0.85088   0.28706   0.89847   0.00000  Uiso   1.00
C736   C     0.79314   0.22966   0.54750   0.00000  Uiso   1.00
Cu737  Cu    0.83333   0.25000   0.79821   0.00000  Uiso   1.00
Cu738  Cu    0.83333   0.25001   0.70178   0.00000  Uiso   1.00
H739   H     0.90001   0.29481   0.54675   0.00000  Uiso   1.00
H740   H     0.70387   0.28342   0.88399   0.00000  Uiso   1.00
H741   H     0.71080   0.23188   0.85215   0.00000  Uiso   1.00
H742   H     0.98242   0.24725   0.86638   0.00000  Uiso   1.00
H743   H     0.80018   0.03391   0.85348   0.00000  Uiso   1.00
H744   H     0.71488   0.01979   0.83944   0.00000  Uiso   1.00
H745   H     0.73098   0.47258   0.80478   0.00000  Uiso   1.00
H746   H     0.71563   0.02411   0.77537   0.00000  Uiso   1.00
H747   H     0.77667   0.46313   0.64117   0.00000  Uiso   1.00
H748   H     0.69277   0.46615   0.64941   0.00000  Uiso   1.00
H749   H     0.71244   0.01588   0.68466   0.00000  Uiso   1.00
H750   H     0.80963   0.18301   0.96062   0.00000  Uiso   1.00
H751   H     0.70770   0.46359   0.71415   0.00000  Uiso   1.00
H752   H     0.75918   0.09649   0.82935   0.00000  Uiso   1.00
H753   H     0.74425   0.39606   0.66056   0.00000  Uiso   1.00
H754   H     0.89944   0.09880   0.66125   0.00000  Uiso   1.00
H755   H     0.92343   0.40634   0.83855   0.00000  Uiso   1.00
H756   H     0.88677   0.49440   0.68668   0.00000  Uiso   1.00
H757   H     0.90373   0.00935   0.81074   0.00000  Uiso   1.00
H758   H     0.77106   0.19188   0.64788   0.00000  Uiso   1.00
H759   H     0.89889   0.30738   0.85839   0.00000  Uiso   1.00
H760   H     0.74236   0.22780   0.99024   0.00000  Uiso   1.00
H761   H     0.89440   0.29713   0.63399   0.00000  Uiso   1.00
H762   H     0.86083   0.35398   0.95261   0.00000  Uiso   1.00
H763   H     0.80511   0.18389   0.87244   0.00000  Uiso   1.00
H764   H     0.96268   0.19365   0.69664   0.00000  Uiso   1.00
H765   H     0.95351   0.22074   0.61996   0.00000  Uiso   1.00
H766   H     0.68599   0.23882   0.62889   0.00000  Uiso   1.00
H767   H     0.97340   0.27324   0.65070   0.00000  Uiso   1.00
H768   H     0.70346   0.30556   0.80387   0.00000  Uiso   1.00
N769   N     0.83333   0.25001   0.62934   0.00000  Uiso   1.00
N770   N     0.83333   0.24999   0.87065   0.00000  Uiso   1.00
N771   N     0.99106   0.21634   0.69124   0.00000  Uiso   1.00
N772   N     0.67576   0.28237   0.80968   0.00000  Uiso   1.00
N773   N     0.78844   0.02214   0.81856   0.00000  Uiso   1.00
N774   N     0.77124   0.47306   0.67569   0.00000  Uiso   1.00
O775   O     0.83334   0.18573   0.79071   0.00000  Uiso   1.00
O776   O     0.76723   0.37776   0.68213   0.00000  Uiso   1.00
O777   O     0.88341   0.11839   0.68324   0.00000  Uiso   1.00
O778   O     0.90140   0.38540   0.81655   0.00000  Uiso   1.00
O779   O     0.88446   0.02627   0.68041   0.00000  Uiso   1.00
O780   O     0.90236   0.47767   0.81828   0.00000  Uiso   1.00
O781   O     0.76104   0.19788   0.61376   0.00000  Uiso   1.00
O782   O     0.87615   0.32106   0.87932   0.00000  Uiso   1.00
O783   O     0.75068   0.21027   0.51967   0.00000  Uiso   1.00
O784   O     0.85648   0.32955   0.97482   0.00000  Uiso   1.00
O785   O     0.83333   0.31428   0.70928   0.00000  Uiso   1.00
O786   O     0.83334   0.18573   0.70928   0.00000  Uiso   1.00
O787   O     0.83333   0.31427   0.79072   0.00000  Uiso   1.00
O788   O     0.75828   0.25000   0.78132   0.00000  Uiso   1.00
O789   O     0.90839   0.25001   0.71868   0.00000  Uiso   1.00
O790   O     0.75828   0.25000   0.69989   0.00000  Uiso   1.00
O791   O     0.90839   0.25000   0.80011   0.00000  Uiso   1.00
O792   O     0.78023   0.11659   0.81222   0.00000  Uiso   1.00
C793   C     0.16627   0.66491   0.74944   0.00000  Uiso   1.00
C794   C     0.17990   0.79016   0.94864   0.00000  Uiso   1.00
C795   C     0.16490   0.75302   0.52705   0.00000  Uiso   1.00
C796   C     0.16609   0.75225   0.97264   0.00000  Uiso   1.00
C797   C     0.06813   0.74976   0.73783   0.00000  Uiso   1.00
C798   C     0.26523   0.74988   0.76229   0.00000  Uiso   1.00
C799   C     0.01343   0.74308   0.73216   0.00000  Uiso   1.00
C800   C     0.32011   0.75566   0.76861   0.00000  Uiso   1.00
C801   C     0.14188   0.54651   0.78187   0.00000  Uiso   1.00
C802   C     0.13427   0.95064   0.71360   0.00000  Uiso   1.00
C803   C     0.14032   0.59296   0.78150   0.00000  Uiso   1.00
C804   C     0.16664   0.83495   0.75038   0.00000  Uiso   1.00
C805   C     0.13332   0.90409   0.71474   0.00000  Uiso   1.00
C806   C     0.16578   0.61633   0.74825   0.00000  Uiso   1.00
C807   C     0.16625   0.88326   0.75061   0.00000  Uiso   1.00
C808   C     0.19121   0.59380   0.71429   0.00000  Uiso   1.00
C809   C     0.20053   0.90791   0.78480   0.00000  Uiso   1.00
C810   C     0.19167   0.54731   0.71369   0.00000  Uiso   1.00
C811   C     0.20114   0.95436   0.78432   0.00000  Uiso   1.00
C812   C     0.16666   0.52395   0.74761   0.00000  Uiso   1.00
C813   C     0.16735   0.97545   0.74881   0.00000  Uiso   1.00
C814   C     0.31711   0.73847   0.64545   0.00000  Uiso   1.00
C815   C     0.20256   0.77638   0.55974   0.00000  Uiso   1.00
C816   C     0.01866   0.75992   0.85522   0.00000  Uiso   1.00
C817   C     0.06813   0.50910   0.80878   0.00000  Uiso   1.00
C818   C     0.05180   0.97991   0.68153   0.00000  Uiso   1.00
C819   C     0.15291   0.71342   0.94401   0.00000  Uiso   1.00
C820   C     0.20096   0.77632   0.61013   0.00000  Uiso   1.00
C821   C     0.15122   0.71355   0.89330   0.00000  Uiso   1.00
C822   C     0.13021   0.72583   0.59803   0.00000  Uiso   1.00
C823   C     0.18422   0.78706   0.89847   0.00000  Uiso   1.00
C824   C     0.12648   0.72966   0.54750   0.00000  Uiso   1.00
Cu825  Cu    0.16667   0.75000   0.79821   0.00000  Uiso   1.00
Cu826  Cu    0.16667   0.75001   0.70178   0.00000  Uiso   1.00
H827   H     0.23334   0.79481   0.54675   0.00000  Uiso   1.00
H828   H     0.03721   0.78342   0.88399   0.00000  Uiso   1.00
H829   H     0.04413   0.73188   0.85215   0.00000  Uiso   1.00
H830   H     0.31575   0.74725   0.86638   0.00000  Uiso   1.00
H831   H     0.13351   0.53391   0.85348   0.00000  Uiso   1.00
H832   H     0.04821   0.51979   0.83944   0.00000  Uiso   1.00
H833   H     0.06431   0.97258   0.80478   0.00000  Uiso   1.00
H834   H     0.04896   0.52411   0.77537   0.00000  Uiso   1.00
H835   H     0.11000   0.96313   0.64117   0.00000  Uiso   1.00
H836   H     0.02611   0.96615   0.64941   0.00000  Uiso   1.00
H837   H     0.04577   0.51588   0.68466   0.00000  Uiso   1.00
H838   H     0.14296   0.68301   0.96062   0.00000  Uiso   1.00
H839   H     0.04104   0.96359   0.71415   0.00000  Uiso   1.00
H840   H     0.09251   0.59649   0.82935   0.00000  Uiso   1.00
H841   H     0.07758   0.89606   0.66056   0.00000  Uiso   1.00
H842   H     0.23277   0.59880   0.66125   0.00000  Uiso   1.00
H843   H     0.25676   0.90634   0.83855   0.00000  Uiso   1.00
H844   H     0.22010   0.99440   0.68668   0.00000  Uiso   1.00
H845   H     0.23706   0.50935   0.81074   0.00000  Uiso   1.00
H846   H     0.10439   0.69188   0.64788   0.00000  Uiso   1.00
H847   H     0.23222   0.80738   0.85839   0.00000  Uiso   1.00
H848   H     0.07570   0.72780   0.99024   0.00000  Uiso   1.00
H849   H     0.22773   0.79713   0.63399   0.00000  Uiso   1.00
H850   H     0.19416   0.85398   0.95261   0.00000  Uiso   1.00
H851   H     0.13844   0.68389   0.87244   0.00000  Uiso   1.00
H852   H     0.29601   0.69365   0.69664   0.00000  Uiso   1.00
H853   H     0.28685   0.72074   0.61996   0.00000  Uiso   1.00
H854   H     0.01932   0.73882   0.62889   0.00000  Uiso   1.00
H855   H     0.30673   0.77324   0.65070   0.00000  Uiso   1.00
H856   H     0.03679   0.80556   0.80387   0.00000  Uiso   1.00
N857   N     0.16667   0.75001   0.62934   0.00000  Uiso   1.00
N858   N     0.16667   0.74999   0.87065   0.00000  Uiso   1.00
N859   N     0.32440   0.71634   0.69124   0.00000  Uiso   1.00
N860   N     0.00909   0.78237   0.80968   0.00000  Uiso   1.00
N861   N     0.12177   0.52214   0.81856   0.00000  Uiso   1.00
N862   N     0.10458   0.97306   0.67569   0.00000  Uiso   1.00
O863   O     0.16667   0.68573   0.79071   0.00000  Uiso   1.00
O864   O     0.10056   0.87776   0.68213   0.00000  Uiso   1.00
O865   O     0.21674   0.61839   0.68324   0.00000  Uiso   1.00
O866   O     0.23474   0.88540   0.81655   0.00000  Uiso   1.00
O867   O     0.21779   0.52627   0.68041   0.00000  Uiso   1.00
O868   O     0.23569   0.97767   0.81828   0.00000  Uiso   1.00
O869   O     0.09437   0.69788   0.61376   0.00000  Uiso   1.00
O870   O     0.20948   0.82106   0.87932   0.00000  Uiso   1.00
O871   O     0.08402   0.71027   0.51967   0.00000  Uiso   1.00
O872   O     0.18981   0.82955   0.97482   0.00000  Uiso   1.00
O873   O     0.16666   0.81428   0.70928   0.00000  Uiso   1.00
O874   O     0.16667   0.68573   0.70928   0.00000  Uiso   1.00
O875   O     0.16666   0.81427   0.79072   0.00000  Uiso   1.00
O876   O     0.09161   0.75000   0.78132   0.00000  Uiso   1.00
O877   O     0.24172   0.75001   0.71868   0.00000  Uiso   1.00
O878   O     0.09161   0.75000   0.69989   0.00000  Uiso   1.00
O879   O     0.24172   0.75000   0.80011   0.00000  Uiso   1.00
O880   O     0.11357   0.61659   0.81222   0.00000  Uiso   1.00
C881   C     0.49960   0.66491   0.74944   0.00000  Uiso   1.00
C882   C     0.51323   0.79016   0.94864   0.00000  Uiso   1.00
C883   C     0.49823   0.75302   0.52705   0.00000  Uiso   1.00
C884   C     0.49942   0.75225   0.97264   0.00000  Uiso   1.00
C885   C     0.40146   0.74976   0.73783   0.00000  Uiso   1.00
C886   C     0.59856   0.74988   0.76229   0.00000  Uiso   1.00
C887   C     0.34676   0.74308   0.73216   0.00000  Uiso   1.00
C888   C     0.65344   0.75566   0.76861   0.00000  Uiso   1.00
C889   C     0.47521   0.54651   0.78187   0.00000  Uiso   1.00
C890   C     0.46761   0.95064   0.71360   0.00000  Uiso   1.00
C891   C     0.47366   0.59296   0.78150   0.00000  Uiso   1.00
C892   C     0.49998   0.83495   0.75038   0.00000  Uiso   1.00
C893   C     0.46665   0.90409   0.71474   0.00000  Uiso   1.00
C894   C     0.49911   0.61633   0.74825   0.00000  Uiso   1.00
C895   C     0.49959   0.88326   0.75061   0.00000  Uiso   1.00
C896   C     0.52455   0.59380   0.71429   0.00000  Uiso   1.00
C897   C     0.53386   0.90791   0.78480   0.00000  Uiso   1.00
C898   C     0.52501   0.54731   0.71369   0.00000  Uiso   1.00
C899   C     0.53447   0.95436   0.78432   0.00000  Uiso   1.00
C900   C     0.50000   0.52395   0.74761   0.00000  Uiso   1.00
C901   C     0.50068   0.97545   0.74881   0.00000  Uiso   1.00
C902   C     0.65045   0.73847   0.64545   0.00000  Uiso   1.00
C903   C     0.53589   0.77638   0.55974   0.00000  Uiso   1.00
C904   C     0.35199   0.75992   0.85522   0.00000  Uiso   1.00
C905   C     0.40146   0.50910   0.80878   0.00000  Uiso   1.00
C906   C     0.38513   0.97991   0.68153   0.00000  Uiso   1.00
C907   C     0.48624   0.71342   0.94401   0.00000  Uiso   1.00
C908   C     0.53429   0.77632   0.61013   0.00000  Uiso   1.00
C909   C     0.48456   0.71355   0.89330   0.00000  Uiso   1.00
C910   C     0.46354   0.72583   0.59803   0.00000  Uiso   1.00
C911   C     0.51755   0.78706   0.89847   0.00000  Uiso   1.00
C912   C     0.45981   0.72966   0.54750   0.00000  Uiso   1.00
Cu913  Cu    0.50000   0.75000   0.79821   0.00000  Uiso   1.00
Cu914  Cu    0.50000   0.75001   0.70178   0.00000  Uiso   1.00
H915   H     0.56667   0.79481   0.54675   0.00000  Uiso   1.00
H916   H     0.37054   0.78342   0.88399   0.00000  Uiso   1.00
H917   H     0.37746   0.73188   0.85215   0.00000  Uiso   1.00
H918   H     0.64908   0.74725   0.86638   0.00000  Uiso   1.00
H919   H     0.46685   0.53391   0.85348   0.00000  Uiso   1.00
H920   H     0.38155   0.51979   0.83944   0.00000  Uiso   1.00
H921   H     0.39764   0.97258   0.80478   0.00000  Uiso   1.00
H922   H     0.38229   0.52411   0.77537   0.00000  Uiso   1.00
H923   H     0.44333   0.96313   0.64117   0.00000  Uiso   1.00
H924   H     0.35944   0.96615   0.64941   0.00000  Uiso   1.00
H925   H     0.37911   0.51588   0.68466   0.00000  Uiso   1.00
H926   H     0.47629   0.68301   0.96062   0.00000  Uiso   1.00
H927   H     0.37437   0.96359   0.71415   0.00000  Uiso   1.00
H928   H     0.42584   0.59649   0.82935   0.00000  Uiso   1.00
H929   H     0.41092   0.89606   0.66056   0.00000  Uiso   1.00
H930   H     0.56610   0.59880   0.66125   0.00000  Uiso   1.00
H931   H     0.59010   0.90634   0.83855   0.00000  Uiso   1.00
H932   H     0.55343   0.99440   0.68668   0.00000  Uiso   1.00
H933   H     0.57039   0.50935   0.81074   0.00000  Uiso   1.00
H934   H     0.43772   0.69188   0.64788   0.00000  Uiso   1.00
H935   H     0.56555   0.80738   0.85839   0.00000  Uiso   1.00
H936   H     0.40903   0.72780   0.99024   0.00000  Uiso   1.00
H937   H     0.56106   0.79713   0.63399   0.00000  Uiso   1.00
H938   H     0.52749   0.85398   0.95261   0.00000  Uiso   1.00
H939   H     0.47178   0.68389   0.87244   0.00000  Uiso   1.00
H940   H     0.62935   0.69365   0.69664   0.00000  Uiso   1.00
H941   H     0.62018   0.72074   0.61996   0.00000  Uiso   1.00
H942   H     0.35265   0.73882   0.62889   0.00000  Uiso   1.00
H943   H     0.64007   0.77324   0.65070   0.00000  Uiso   1.00
H944   H     0.37013   0.80556   0.80387   0.00000  Uiso   1.00
N945   N     0.50000   0.75001   0.62934   0.00000  Uiso   1.00
N946   N     0.50000   0.74999   0.87065   0.00000  Uiso   1.00
N947   N     0.65773   0.71634   0.69124   0.00000  Uiso   1.00
N948   N     0.34242   0.78237   0.80968   0.00000  Uiso   1.00
N949   N     0.45511   0.52214   0.81856   0.00000  Uiso   1.00
N950   N     0.43791   0.97306   0.67569   0.00000  Uiso   1.00
O951   O     0.50000   0.68573   0.79071   0.00000  Uiso   1.00
O952   O     0.43389   0.87776   0.68213   0.00000  Uiso   1.00
O953   O     0.55008   0.61839   0.68324   0.00000  Uiso   1.00
O954   O     0.56807   0.88540   0.81655   0.00000  Uiso   1.00
O955   O     0.55112   0.52627   0.68041   0.00000  Uiso   1.00
O956   O     0.56902   0.97767   0.81828   0.00000  Uiso   1.00
O957   O     0.42770   0.69788   0.61376   0.00000  Uiso   1.00
O958   O     0.54281   0.82106   0.87932   0.00000  Uiso   1.00
O959   O     0.41735   0.71027   0.51967   0.00000  Uiso   1.00
O960   O     0.52314   0.82955   0.97482   0.00000  Uiso   1.00
O961   O     0.50000   0.81428   0.70928   0.00000  Uiso   1.00
O962   O     0.50000   0.68573   0.70928   0.00000  Uiso   1.00
O963   O     0.50000   0.81427   0.79072   0.00000  Uiso   1.00
O964   O     0.42495   0.75000   0.78132   0.00000  Uiso   1.00
O965   O     0.57505   0.75001   0.71868   0.00000  Uiso   1.00
O966   O     0.42495   0.75000   0.69989   0.00000  Uiso   1.00
O967   O     0.57505   0.75000   0.80011   0.00000  Uiso   1.00
O968   O     0.44690   0.61659   0.81222   0.00000  Uiso   1.00
C969   C     0.83293   0.66491   0.74944   0.00000  Uiso   1.00
C970   C     0.84657   0.79016   0.94864   0.00000  Uiso   1.00
C971   C     0.83157   0.75302   0.52705   0.00000  Uiso   1.00
C972   C     0.83275   0.75225   0.97264   0.00000  Uiso   1.00
C973   C     0.73480   0.74976   0.73783   0.00000  Uiso   1.00
C974   C     0.93190   0.74988   0.76229   0.00000  Uiso   1.00
C975   C     0.68009   0.74308   0.73216   0.00000  Uiso   1.00
C976   C     0.98677   0.75566   0.76861   0.00000  Uiso   1.00
C977   C     0.80854   0.54651   0.78187   0.00000  Uiso   1.00
C978   C     0.80094   0.95064   0.71360   0.00000  Uiso   1.00
C979   C     0.80699   0.59296   0.78150   0.00000  Uiso   1.00
C980   C     0.83331   0.83495   0.75038   0.00000  Uiso   1.00
C981   C     0.79998   0.90409   0.71474   0.00000  Uiso   1.00
C982   C     0.83245   0.61633   0.74825   0.00000  Uiso   1.00
C983   C     0.83292   0.88326   0.75061   0.00000  Uiso   1.00
C984   C     0.85788   0.59380   0.71429   0.00000  Uiso   1.00
C985   C     0.86719   0.90791   0.78480   0.00000  Uiso   1.00
C986   C     0.85834   0.54731   0.71369   0.00000  Uiso   1.00
C987   C     0.86781   0.95436   0.78432   0.00000  Uiso   1.00
C988   C     0.83333   0.52395   0.74761   0.00000  Uiso   1.00
C989   C     0.83402   0.97545   0.74881   0.00000  Uiso   1.00
C990   C     0.98378   0.73847   0.64545   0.00000  Uiso   1.00
C991   C     0.86922   0.77638   0.55974   0.00000  Uiso   1.00
C992   C     0.68533   0.75992   0.85522   0.00000  Uiso   1.00
C993   C     0.73480   0.50910   0.80878   0.00000  Uiso   1.00
C994   C     0.71847   0.97991   0.68153   0.00000  Uiso   1.00
C995   C     0.81958   0.71342   0.94401   0.00000  Uiso   1.00
C996   C     0.86763   0.77632   0.61013   0.00000  Uiso   1.00
C997   C     0.81789   0.71355   0.89330   0.00000  Uiso   1.00
C998   C     0.79688   0.72583   0.59803   0.00000  Uiso   1.00
C999   C     0.85088   0.78706   0.89847   0.00000  Uiso   1.00
C1000  C     0.79314   0.72966   0.54750   0.00000  Uiso   1.00
Cu1001 Cu    0.83333   0.75000   0.79821   0.00000  Uiso   1.00
Cu1002 Cu    0.83333   0.75001   0.70178   0.00000  Uiso   1.00
H1003  H     0.90001   0.79481   0.54675   0.00000  Uiso   1.00
H1004  H     0.70387   0.78342   0.88399   0.00000  Uiso   1.00
H1005  H     0.71080   0.73188   0.85215   0.00000  Uiso   1.00
H1006  H     0.98242   0.74725   0.86638   0.00000  Uiso   1.00
H1007  H     0.80018   0.53391   0.85348   0.00000  Uiso   1.00
H1008  H     0.71488   0.51979   0.83944   0.00000  Uiso   1.00
H1009  H     0.73098   0.97258   0.80478   0.00000  Uiso   1.00
H1010  H     0.71563   0.52411   0.77537   0.00000  Uiso   1.00
H1011  H     0.77667   0.96313   0.64117   0.00000  Uiso   1.00
H1012  H     0.69277   0.96615   0.64941   0.00000  Uiso   1.00
H1013  H     0.71244   0.51588   0.68466   0.00000  Uiso   1.00
H1014  H     0.80963   0.68301   0.96062   0.00000  Uiso   1.00
H1015  H     0.70770   0.96359   0.71415   0.00000  Uiso   1.00
H1016  H     0.75918   0.59649   0.82935   0.00000  Uiso   1.00
H1017  H     0.74425   0.89606   0.66056   0.00000  Uiso   1.00
H1018  H     0.89944   0.59880   0.66125   0.00000  Uiso   1.00
H1019  H     0.92343   0.90634   0.83855   0.00000  Uiso   1.00
H1020  H     0.88677   0.99440   0.68668   0.00000  Uiso   1.00
H1021  H     0.90373   0.50935   0.81074   0.00000  Uiso   1.00
H1022  H     0.77106   0.69188   0.64788   0.00000  Uiso   1.00
H1023  H     0.89889   0.80738   0.85839   0.00000  Uiso   1.00
H1024  H     0.74236   0.72780   0.99024   0.00000  Uiso   1.00
H1025  H     0.89440   0.79713   0.63399   0.00000  Uiso   1.00
H1026  H     0.86083   0.85398   0.95261   0.00000  Uiso   1.00
H1027  H     0.80511   0.68389   0.87244   0.00000  Uiso   1.00
H1028  H     0.96268   0.69365   0.69664   0.00000  Uiso   1.00
H1029  H     0.95351   0.72074   0.61996   0.00000  Uiso   1.00
H1030  H     0.68599   0.73882   0.62889   0.00000  Uiso   1.00
H1031  H     0.97340   0.77324   0.65070   0.00000  Uiso   1.00
H1032  H     0.70346   0.80556   0.80387   0.00000  Uiso   1.00
N1033  N     0.83333   0.75001   0.62934   0.00000  Uiso   1.00
N1034  N     0.83333   0.74999   0.87065   0.00000  Uiso   1.00
N1035  N     0.99106   0.71634   0.69124   0.00000  Uiso   1.00
N1036  N     0.67576   0.78237   0.80968   0.00000  Uiso   1.00
N1037  N     0.78844   0.52214   0.81856   0.00000  Uiso   1.00
N1038  N     0.77124   0.97306   0.67569   0.00000  Uiso   1.00
O1039  O     0.83334   0.68573   0.79071   0.00000  Uiso   1.00
O1040  O     0.76723   0.87776   0.68213   0.00000  Uiso   1.00
O1041  O     0.88341   0.61839   0.68324   0.00000  Uiso   1.00
O1042  O     0.90140   0.88540   0.81655   0.00000  Uiso   1.00
O1043  O     0.88446   0.52627   0.68041   0.00000  Uiso   1.00
O1044  O     0.90236   0.97767   0.81828   0.00000  Uiso   1.00
O1045  O     0.76104   0.69788   0.61376   0.00000  Uiso   1.00
O1046  O     0.87615   0.82106   0.87932   0.00000  Uiso   1.00
O1047  O     0.75068   0.71027   0.51967   0.00000  Uiso   1.00
O1048  O     0.85648   0.82955   0.97482   0.00000  Uiso   1.00
O1049  O     0.83333   0.81428   0.70928   0.00000  Uiso   1.00
O1050  O     0.83334   0.68573   0.70928   0.00000  Uiso   1.00
O1051  O     0.83333   0.81427   0.79072   0.00000  Uiso   1.00
O1052  O     0.75828   0.75000   0.78132   0.00000  Uiso   1.00
O1053  O     0.90839   0.75001   0.71868   0.00000  Uiso   1.00
O1054  O     0.75828   0.75000   0.69989   0.00000  Uiso   1.00
O1055  O     0.90839   0.75000   0.80011   0.00000  Uiso   1.00
O1056  O     0.78023   0.61659   0.81222   0.00000  Uiso   1.00
loop_
_geom_bond_atom_site_label_1
_geom_bond_atom_site_label_2
_geom_bond_distance
_geom_bond_site_symmetry_2
_ccdc_geom_bond_type
C1     O71     1.297   .     A
C1     O82     1.299   .     A
C1     C14     1.471   .     S
C2     C31     1.419   .     A
C2     C4      1.406   .     A
C2     O80     1.383   .     S
C3     C23     1.414   .     A
C3     C32     1.412   .     A
C3     C532    1.520   1_554 S
C4     C27     1.413   .     A
C4     C531    1.520   .     S
C5     C7      1.442   .     S
C5     O84     1.283   .     A
C5     O86     1.298   .     A
C6     C8      1.443   .     S
C6     O87     1.296   .     A
C6     O85     1.287   .     A
C7     C184    1.368   1_455 S
C7     N243    1.431   1_455 S
C8     C95     1.368   .     S
C8     N156    1.433   .     S
C9     N69     1.426   .     S
C9     C11     1.410   .     A
C9     C20     1.407   .     A
C10    C21     1.408   .     A
C10    N70     1.426   .     S
C10    C13     1.411   .     A
C11    C14     1.410   .     A
C11    O88     1.384   .     S
C12    O83     1.300   .     A
C12    C15     1.464   .     S
C12    O81     1.292   .     A
C13    C15     1.407   .     A
C13    O72     1.386   .     S
C14    C16     1.410   .     A
C15    C17     1.405   .     A
C16    O73     1.386   .     S
C16    C18     1.408   .     A
C17    O74     1.383   .     S
C17    C19     1.407   .     A
C18    O75     1.386   .     S
C18    C20     1.417   .     A
C19    O76     1.386   .     S
C19    C21     1.417   .     A
C20    C285    1.471   1_545 S
C21    C284    1.471   .     S
C22    H63     1.108   .     S
C22    N67     1.447   .     S
C22    H61     1.110   .     S
C22    H150    1.103   .     S
C23    C28     1.411   .     A
C23    H35     1.081   .     S
C24    H37     1.110   .     S
C24    H36     1.111   .     S
C24    N68     1.449   .     S
C24    H214    1.109   1_455 S
C25    H40     1.111   .     S
C25    N69     1.449   .     S
C25    H42     1.111   .     S
C25    H305    1.110   1_545 S
C26    H44     1.111   .     S
C26    H47     1.111   .     S
C26    N70     1.449   .     S
C26    H309    1.109   .     S
C27    C29     1.408   .     A
C27    H46     1.082   .     S
C28    H57     1.079   .     S
C28    N65     1.362   .     A
C29    H59     1.078   .     S
C29    N66     1.364   .     A
C30    O77     1.375   .     S
C30    C32     1.406   .     A
C30    N65     1.387   .     A
C31    N66     1.380   .     A
C31    O78     1.369   .     S
C32    O79     1.381   .     S
Cu33   N66     2.019   .     S
Cu33   O71     1.953   .     S
Cu33   Cu34    2.687   .     S
Cu33   O83     1.963   .     S
Cu33   O87     1.980   .     S
Cu33   O84     1.977   .     S
Cu34   O86     1.980   .     S
Cu34   O81     1.953   .     S
Cu34   N65     2.019   .     S
Cu34   O85     1.977   .     S
Cu34   O82     1.963   .     S
H38    C112    1.109   .     S
H39    N69     1.032   .     S
H41    C289    1.110   .     S
H43    N70     1.032   .     S
H45    C290    1.109   1_545 S
H48    O88     0.988   .     S
H49    O72     0.987   .     S
H50    O73     0.989   .     S
H51    O74     0.989   .     S
H52    O339    0.988   .     S
H53    O340    0.988   1_545 S
H54    O77     0.974   .     S
H55    O78     0.987   .     S
H56    O607    0.991   .     S
H58    O80     0.990   .     S
H60    N67     1.031   .     S
H62    C198    1.103   1_455 S
H64    N68     1.031   .     S
N67    C95     1.431   .     S
N68    C184    1.433   1_455 S
O75    H316    0.988   1_545 S
O76    H317    0.988   .     S
O79    H584    0.991   1_554 S
C89    O159    1.297   .     A
C89    O170    1.299   .     A
C89    C102    1.471   .     S
C90    C119    1.419   .     A
C90    C92     1.406   .     A
C90    O168    1.383   .     S
C91    C111    1.414   .     A
C91    C120    1.412   .     A
C91    C620    1.520   1_554 S
C92    C115    1.413   .     A
C92    C619    1.520   .     S
C93    C95     1.442   .     S
C93    O172    1.283   .     A
C93    O174    1.298   .     A
C94    C96     1.443   .     S
C94    O175    1.296   .     A
C94    O173    1.287   .     A
C96    C183    1.368   .     S
C96    N244    1.433   .     S
C97    N157    1.426   .     S
C97    C99     1.410   .     A
C97    C108    1.407   .     A
C98    C109    1.408   .     A
C98    N158    1.426   .     S
C98    C101    1.411   .     A
C99    C102    1.410   .     A
C99    O176    1.384   .     S
C100   O171    1.300   .     A
C100   C103    1.464   .     S
C100   O169    1.292   .     A
C101   C103    1.407   .     A
C101   O160    1.386   .     S
C102   C104    1.410   .     A
C103   C105    1.405   .     A
C104   O161    1.386   .     S
C104   C106    1.408   .     A
C105   O162    1.383   .     S
C105   C107    1.407   .     A
C106   O163    1.386   .     S
C106   C108    1.417   .     A
C107   O164    1.386   .     S
C107   C109    1.417   .     A
C108   C373    1.471   1_545 S
C109   C372    1.471   .     S
C110   H151    1.108   .     S
C110   N155    1.447   .     S
C110   H149    1.110   .     S
C110   H238    1.103   .     S
C111   C116    1.411   .     A
C111   H123    1.081   .     S
C112   H125    1.110   .     S
C112   H124    1.111   .     S
C112   N156    1.449   .     S
C113   H128    1.111   .     S
C113   N157    1.449   .     S
C113   H130    1.111   .     S
C113   H393    1.110   1_545 S
C114   H132    1.111   .     S
C114   H135    1.111   .     S
C114   N158    1.449   .     S
C114   H397    1.109   .     S
C115   C117    1.408   .     A
C115   H134    1.082   .     S
C116   H145    1.079   .     S
C116   N153    1.362   .     A
C117   H147    1.078   .     S
C117   N154    1.364   .     A
C118   O165    1.375   .     S
C118   C120    1.406   .     A
C118   N153    1.387   .     A
C119   N154    1.380   .     A
C119   O166    1.369   .     S
C120   O167    1.381   .     S
Cu121  N154    2.019   .     S
Cu121  O159    1.953   .     S
Cu121  Cu122   2.687   .     S
Cu121  O171    1.963   .     S
Cu121  O175    1.980   .     S
Cu121  O172    1.977   .     S
Cu122  O174    1.980   .     S
Cu122  O169    1.953   .     S
Cu122  N153    2.019   .     S
Cu122  O173    1.977   .     S
Cu122  O170    1.963   .     S
H126   C200    1.109   .     S
H127   N157    1.032   .     S
H129   C377    1.110   .     S
H131   N158    1.032   .     S
H133   C378    1.109   1_545 S
H136   O176    0.988   .     S
H137   O160    0.987   .     S
H138   O161    0.989   .     S
H139   O162    0.989   .     S
H140   O427    0.988   .     S
H141   O428    0.988   1_545 S
H142   O165    0.974   .     S
H143   O166    0.987   .     S
H144   O695    0.991   .     S
H146   O168    0.990   .     S
H148   N155    1.031   .     S
H152   N156    1.031   .     S
N155   C183    1.431   .     S
O163   H404    0.988   1_545 S
O164   H405    0.988   .     S
O167   H672    0.991   1_554 S
C177   O247    1.297   .     A
C177   O258    1.299   .     A
C177   C190    1.471   .     S
C178   C207    1.419   .     A
C178   C180    1.406   .     A
C178   O256    1.383   .     S
C179   C199    1.414   .     A
C179   C208    1.412   .     A
C179   C708    1.520   1_554 S
C180   C203    1.413   .     A
C180   C707    1.520   .     S
C181   C183    1.442   .     S
C181   O260    1.283   .     A
C181   O262    1.298   .     A
C182   C184    1.443   .     S
C182   O263    1.296   .     A
C182   O261    1.287   .     A
C184   C7      1.368   1_655 S
C184   N68     1.433   1_655 S
C185   N245    1.426   .     S
C185   C187    1.410   .     A
C185   C196    1.407   .     A
C186   C197    1.408   .     A
C186   N246    1.426   .     S
C186   C189    1.411   .     A
C187   C190    1.410   .     A
C187   O264    1.384   .     S
C188   O259    1.300   .     A
C188   C191    1.464   .     S
C188   O257    1.292   .     A
C189   C191    1.407   .     A
C189   O248    1.386   .     S
C190   C192    1.410   .     A
C191   C193    1.405   .     A
C192   O249    1.386   .     S
C192   C194    1.408   .     A
C193   O250    1.383   .     S
C193   C195    1.407   .     A
C194   O251    1.386   .     S
C194   C196    1.417   .     A
C195   O252    1.386   .     S
C195   C197    1.417   .     A
C196   C461    1.471   1_545 S
C197   C460    1.471   .     S
C198   H239    1.108   .     S
C198   N243    1.447   .     S
C198   H237    1.110   .     S
C198   H62     1.103   1_655 S
C199   C204    1.411   .     A
C199   H211    1.081   .     S
C200   H213    1.110   .     S
C200   H212    1.111   .     S
C200   N244    1.449   .     S
C201   H216    1.111   .     S
C201   N245    1.449   .     S
C201   H218    1.111   .     S
C201   H481    1.110   1_545 S
C202   H220    1.111   .     S
C202   H223    1.111   .     S
C202   N246    1.449   .     S
C202   H485    1.109   .     S
C203   C205    1.408   .     A
C203   H222    1.082   .     S
C204   H233    1.079   .     S
C204   N241    1.362   .     A
C205   H235    1.078   .     S
C205   N242    1.364   .     A
C206   O253    1.375   .     S
C206   C208    1.406   .     A
C206   N241    1.387   .     A
C207   N242    1.380   .     A
C207   O254    1.369   .     S
C208   O255    1.381   .     S
Cu209  N242    2.019   .     S
Cu209  O247    1.953   .     S
Cu209  Cu210   2.687   .     S
Cu209  O259    1.963   .     S
Cu209  O263    1.980   .     S
Cu209  O260    1.977   .     S
Cu210  O262    1.980   .     S
Cu210  O257    1.953   .     S
Cu210  N241    2.019   .     S
Cu210  O261    1.977   .     S
Cu210  O258    1.963   .     S
H214   C24     1.109   1_655 S
H215   N245    1.032   .     S
H217   C465    1.110   .     S
H219   N246    1.032   .     S
H221   C466    1.109   1_545 S
H224   O264    0.988   .     S
H225   O248    0.987   .     S
H226   O249    0.989   .     S
H227   O250    0.989   .     S
H228   O515    0.988   .     S
H229   O516    0.988   1_545 S
H230   O253    0.974   .     S
H231   O254    0.987   .     S
H232   O783    0.991   .     S
H234   O256    0.990   .     S
H236   N243    1.031   .     S
H240   N244    1.031   .     S
N243   C7      1.431   1_655 S
O251   H492    0.988   1_545 S
O252   H493    0.988   .     S
O255   H760    0.991   1_554 S
C265   O335    1.297   .     A
C265   O346    1.299   .     A
C265   C278    1.471   .     S
C266   C295    1.419   .     A
C266   C268    1.406   .     A
C266   O344    1.383   .     S
C267   C287    1.414   .     A
C267   C296    1.412   .     A
C267   C796    1.520   1_554 S
C268   C291    1.413   .     A
C268   C795    1.520   .     S
C269   C271    1.442   .     S
C269   O348    1.283   .     A
C269   O350    1.298   .     A
C270   C272    1.443   .     S
C270   O351    1.296   .     A
C270   O349    1.287   .     A
C271   C448    1.368   1_455 S
C271   N507    1.431   1_455 S
C272   C359    1.368   .     S
C272   N420    1.433   .     S
C273   N333    1.426   .     S
C273   C275    1.410   .     A
C273   C284    1.407   .     A
C274   C285    1.408   .     A
C274   N334    1.426   .     S
C274   C277    1.411   .     A
C275   C278    1.410   .     A
C275   O352    1.384   .     S
C276   O347    1.300   .     A
C276   C279    1.464   .     S
C276   O345    1.292   .     A
C277   C279    1.407   .     A
C277   O336    1.386   .     S
C278   C280    1.410   .     A
C279   C281    1.405   .     A
C280   O337    1.386   .     S
C280   C282    1.408   .     A
C281   O338    1.383   .     S
C281   C283    1.407   .     A
C282   O339    1.386   .     S
C282   C284    1.417   .     A
C283   O340    1.386   .     S
C283   C285    1.417   .     A
C285   C20     1.471   1_565 S
C286   H327    1.108   .     S
C286   N331    1.447   .     S
C286   H325    1.110   .     S
C286   H414    1.103   .     S
C287   C292    1.411   .     A
C287   H299    1.081   .     S
C288   H301    1.110   .     S
C288   H300    1.111   .     S
C288   N332    1.449   .     S
C288   H478    1.109   1_455 S
C289   H304    1.111   .     S
C289   N333    1.449   .     S
C289   H306    1.111   .     S
C290   H308    1.111   .     S
C290   H311    1.111   .     S
C290   N334    1.449   .     S
C290   H45     1.109   1_565 S
C291   C293    1.408   .     A
C291   H310    1.082   .     S
C292   H321    1.079   .     S
C292   N329    1.362   .     A
C293   H323    1.078   .     S
C293   N330    1.364   .     A
C294   O341    1.375   .     S
C294   C296    1.406   .     A
C294   N329    1.387   .     A
C295   N330    1.380   .     A
C295   O342    1.369   .     S
C296   O343    1.381   .     S
Cu297  N330    2.019   .     S
Cu297  O335    1.953   .     S
Cu297  Cu298   2.687   .     S
Cu297  O347    1.963   .     S
Cu297  O351    1.980   .     S
Cu297  O348    1.977   .     S
Cu298  O350    1.980   .     S
Cu298  O345    1.953   .     S
Cu298  N329    2.019   .     S
Cu298  O349    1.977   .     S
Cu298  O346    1.963   .     S
H302   C376    1.109   .     S
H303   N333    1.032   .     S
H305   C25     1.110   1_565 S
H307   N334    1.032   .     S
H312   O352    0.988   .     S
H313   O336    0.987   .     S
H314   O337    0.989   .     S
H315   O338    0.989   .     S
H316   O75     0.988   1_565 S
H318   O341    0.974   .     S
H319   O342    0.987   .     S
H320   O871    0.991   .     S
H322   O344    0.990   .     S
H324   N331    1.031   .     S
H326   C462    1.103   1_455 S
H328   N332    1.031   .     S
N331   C359    1.431   .     S
N332   C448    1.433   1_455 S
O340   H53     0.988   1_565 S
O343   H848    0.991   1_554 S
C353   O423    1.297   .     A
C353   O434    1.299   .     A
C353   C366    1.471   .     S
C354   C383    1.419   .     A
C354   C356    1.406   .     A
C354   O432    1.383   .     S
C355   C375    1.414   .     A
C355   C384    1.412   .     A
C355   C884    1.520   1_554 S
C356   C379    1.413   .     A
C356   C883    1.520   .     S
C357   C359    1.442   .     S
C357   O436    1.283   .     A
C357   O438    1.298   .     A
C358   C360    1.443   .     S
C358   O439    1.296   .     A
C358   O437    1.287   .     A
C360   C447    1.368   .     S
C360   N508    1.433   .     S
C361   N421    1.426   .     S
C361   C363    1.410   .     A
C361   C372    1.407   .     A
C362   C373    1.408   .     A
C362   N422    1.426   .     S
C362   C365    1.411   .     A
C363   C366    1.410   .     A
C363   O440    1.384   .     S
C364   O435    1.300   .     A
C364   C367    1.464   .     S
C364   O433    1.292   .     A
C365   C367    1.407   .     A
C365   O424    1.386   .     S
C366   C368    1.410   .     A
C367   C369    1.405   .     A
C368   O425    1.386   .     S
C368   C370    1.408   .     A
C369   O426    1.383   .     S
C369   C371    1.407   .     A
C370   O427    1.386   .     S
C370   C372    1.417   .     A
C371   O428    1.386   .     S
C371   C373    1.417   .     A
C373   C108    1.471   1_565 S
C374   H415    1.108   .     S
C374   N419    1.447   .     S
C374   H413    1.110   .     S
C374   H502    1.103   .     S
C375   C380    1.411   .     A
C375   H387    1.081   .     S
C376   H389    1.110   .     S
C376   H388    1.111   .     S
C376   N420    1.449   .     S
C377   H392    1.111   .     S
C377   N421    1.449   .     S
C377   H394    1.111   .     S
C378   H396    1.111   .     S
C378   H399    1.111   .     S
C378   N422    1.449   .     S
C378   H133    1.109   1_565 S
C379   C381    1.408   .     A
C379   H398    1.082   .     S
C380   H409    1.079   .     S
C380   N417    1.362   .     A
C381   H411    1.078   .     S
C381   N418    1.364   .     A
C382   O429    1.375   .     S
C382   C384    1.406   .     A
C382   N417    1.387   .     A
C383   N418    1.380   .     A
C383   O430    1.369   .     S
C384   O431    1.381   .     S
Cu385  N418    2.019   .     S
Cu385  O423    1.953   .     S
Cu385  Cu386   2.687   .     S
Cu385  O435    1.963   .     S
Cu385  O439    1.980   .     S
Cu385  O436    1.977   .     S
Cu386  O438    1.980   .     S
Cu386  O433    1.953   .     S
Cu386  N417    2.019   .     S
Cu386  O437    1.977   .     S
Cu386  O434    1.963   .     S
H390   C464    1.109   .     S
H391   N421    1.032   .     S
H393   C113    1.110   1_565 S
H395   N422    1.032   .     S
H400   O440    0.988   .     S
H401   O424    0.987   .     S
H402   O425    0.989   .     S
H403   O426    0.989   .     S
H404   O163    0.988   1_565 S
H406   O429    0.974   .     S
H407   O430    0.987   .     S
H408   O959    0.991   .     S
H410   O432    0.990   .     S
H412   N419    1.031   .     S
H416   N420    1.031   .     S
N419   C447    1.431   .     S
O428   H141    0.988   1_565 S
O431   H936    0.991   1_554 S
C441   O511    1.297   .     A
C441   O522    1.299   .     A
C441   C454    1.471   .     S
C442   C471    1.419   .     A
C442   C444    1.406   .     A
C442   O520    1.383   .     S
C443   C463    1.414   .     A
C443   C472    1.412   .     A
C443   C972    1.520   1_554 S
C444   C467    1.413   .     A
C444   C971    1.520   .     S
C445   C447    1.442   .     S
C445   O524    1.283   .     A
C445   O526    1.298   .     A
C446   C448    1.443   .     S
C446   O527    1.296   .     A
C446   O525    1.287   .     A
C448   C271    1.368   1_655 S
C448   N332    1.433   1_655 S
C449   N509    1.426   .     S
C449   C451    1.410   .     A
C449   C460    1.407   .     A
C450   C461    1.408   .     A
C450   N510    1.426   .     S
C450   C453    1.411   .     A
C451   C454    1.410   .     A
C451   O528    1.384   .     S
C452   O523    1.300   .     A
C452   C455    1.464   .     S
C452   O521    1.292   .     A
C453   C455    1.407   .     A
C453   O512    1.386   .     S
C454   C456    1.410   .     A
C455   C457    1.405   .     A
C456   O513    1.386   .     S
C456   C458    1.408   .     A
C457   O514    1.383   .     S
C457   C459    1.407   .     A
C458   O515    1.386   .     S
C458   C460    1.417   .     A
C459   O516    1.386   .     S
C459   C461    1.417   .     A
C461   C196    1.471   1_565 S
C462   H503    1.108   .     S
C462   N507    1.447   .     S
C462   H501    1.110   .     S
C462   H326    1.103   1_655 S
C463   C468    1.411   .     A
C463   H475    1.081   .     S
C464   H477    1.110   .     S
C464   H476    1.111   .     S
C464   N508    1.449   .     S
C465   H480    1.111   .     S
C465   N509    1.449   .     S
C465   H482    1.111   .     S
C466   H484    1.111   .     S
C466   H487    1.111   .     S
C466   N510    1.449   .     S
C466   H221    1.109   1_565 S
C467   C469    1.408   .     A
C467   H486    1.082   .     S
C468   H497    1.079   .     S
C468   N505    1.362   .     A
C469   H499    1.078   .     S
C469   N506    1.364   .     A
C470   O517    1.375   .     S
C470   C472    1.406   .     A
C470   N505    1.387   .     A
C471   N506    1.380   .     A
C471   O518    1.369   .     S
C472   O519    1.381   .     S
Cu473  N506    2.019   .     S
Cu473  O511    1.953   .     S
Cu473  Cu474   2.687   .     S
Cu473  O523    1.963   .     S
Cu473  O527    1.980   .     S
Cu473  O524    1.977   .     S
Cu474  O526    1.980   .     S
Cu474  O521    1.953   .     S
Cu474  N505    2.019   .     S
Cu474  O525    1.977   .     S
Cu474  O522    1.963   .     S
H478   C288    1.109   1_655 S
H479   N509    1.032   .     S
H481   C201    1.110   1_565 S
H483   N510    1.032   .     S
H488   O528    0.988   .     S
H489   O512    0.987   .     S
H490   O513    0.989   .     S
H491   O514    0.989   .     S
H492   O251    0.988   1_565 S
H494   O517    0.974   .     S
H495   O518    0.987   .     S
H496   O1047   0.991   .     S
H498   O520    0.990   .     S
H500   N507    1.031   .     S
H504   N508    1.031   .     S
N507   C271    1.431   1_655 S
O516   H229    0.988   1_565 S
O519   H1024   0.991   1_554 S
C529   O599    1.297   .     A
C529   O610    1.299   .     A
C529   C542    1.471   .     S
C530   C559    1.419   .     A
C530   C532    1.406   .     A
C530   O608    1.383   .     S
C531   C551    1.414   .     A
C531   C560    1.412   .     A
C532   C555    1.413   .     A
C532   C3      1.520   1_556 S
C533   C535    1.442   .     S
C533   O612    1.283   .     A
C533   O614    1.298   .     A
C534   C536    1.443   .     S
C534   O615    1.296   .     A
C534   O613    1.287   .     A
C535   C712    1.368   1_455 S
C535   N771    1.431   1_455 S
C536   C623    1.368   .     S
C536   N684    1.433   .     S
C537   N597    1.426   .     S
C537   C539    1.410   .     A
C537   C548    1.407   .     A
C538   C549    1.408   .     A
C538   N598    1.426   .     S
C538   C541    1.411   .     A
C539   C542    1.410   .     A
C539   O616    1.384   .     S
C540   O611    1.300   .     A
C540   C543    1.464   .     S
C540   O609    1.292   .     A
C541   C543    1.407   .     A
C541   O600    1.386   .     S
C542   C544    1.410   .     A
C543   C545    1.405   .     A
C544   O601    1.386   .     S
C544   C546    1.408   .     A
C545   O602    1.383   .     S
C545   C547    1.407   .     A
C546   O603    1.386   .     S
C546   C548    1.417   .     A
C547   O604    1.386   .     S
C547   C549    1.417   .     A
C548   C813    1.471   1_545 S
C549   C812    1.471   .     S
C550   H591    1.108   .     S
C550   N595    1.447   .     S
C550   H589    1.110   .     S
C550   H678    1.103   .     S
C551   C556    1.411   .     A
C551   H563    1.081   .     S
C552   H565    1.110   .     S
C552   H564    1.111   .     S
C552   N596    1.449   .     S
C552   H742    1.109   1_455 S
C553   H568    1.111   .     S
C553   N597    1.449   .     S
C553   H570    1.111   .     S
C553   H833    1.110   1_545 S
C554   H572    1.111   .     S
C554   H575    1.111   .     S
C554   N598    1.449   .     S
C554   H837    1.109   .     S
C555   C557    1.408   .     A
C555   H574    1.082   .     S
C556   H585    1.079   .     S
C556   N593    1.362   .     A
C557   H587    1.078   .     S
C557   N594    1.364   .     A
C558   O605    1.375   .     S
C558   C560    1.406   .     A
C558   N593    1.387   .     A
C559   N594    1.380   .     A
C559   O606    1.369   .     S
C560   O607    1.381   .     S
Cu561  N594    2.019   .     S
Cu561  O599    1.953   .     S
Cu561  Cu562   2.687   .     S
Cu561  O611    1.963   .     S
Cu561  O615    1.980   .     S
Cu561  O612    1.977   .     S
Cu562  O614    1.980   .     S
Cu562  O609    1.953   .     S
Cu562  N593    2.019   .     S
Cu562  O613    1.977   .     S
Cu562  O610    1.963   .     S
H566   C640    1.109   .     S
H567   N597    1.032   .     S
H569   C817    1.110   .     S
H571   N598    1.032   .     S
H573   C818    1.109   1_545 S
H576   O616    0.988   .     S
H577   O600    0.987   .     S
H578   O601    0.989   .     S
H579   O602    0.989   .     S
H580   O867    0.988   .     S
H581   O868    0.988   1_545 S
H582   O605    0.974   .     S
H583   O606    0.987   .     S
H584   O79     0.991   1_556 S
H586   O608    0.990   .     S
H588   N595    1.031   .     S
H590   C726    1.103   1_455 S
H592   N596    1.031   .     S
N595   C623    1.431   .     S
N596   C712    1.433   1_455 S
O603   H844    0.988   1_545 S
O604   H845    0.988   .     S
C617   O687    1.297   .     A
C617   O698    1.299   .     A
C617   C630    1.471   .     S
C618   C647    1.419   .     A
C618   C620    1.406   .     A
C618   O696    1.383   .     S
C619   C639    1.414   .     A
C619   C648    1.412   .     A
C620   C643    1.413   .     A
C620   C91     1.520   1_556 S
C621   C623    1.442   .     S
C621   O700    1.283   .     A
C621   O702    1.298   .     A
C622   C624    1.443   .     S
C622   O703    1.296   .     A
C622   O701    1.287   .     A
C624   C711    1.368   .     S
C624   N772    1.433   .     S
C625   N685    1.426   .     S
C625   C627    1.410   .     A
C625   C636    1.407   .     A
C626   C637    1.408   .     A
C626   N686    1.426   .     S
C626   C629    1.411   .     A
C627   C630    1.410   .     A
C627   O704    1.384   .     S
C628   O699    1.300   .     A
C628   C631    1.464   .     S
C628   O697    1.292   .     A
C629   C631    1.407   .     A
C629   O688    1.386   .     S
C630   C632    1.410   .     A
C631   C633    1.405   .     A
C632   O689    1.386   .     S
C632   C634    1.408   .     A
C633   O690    1.383   .     S
C633   C635    1.407   .     A
C634   O691    1.386   .     S
C634   C636    1.417   .     A
C635   O692    1.386   .     S
C635   C637    1.417   .     A
C636   C901    1.471   1_545 S
C637   C900    1.471   .     S
C638   H679    1.108   .     S
C638   N683    1.447   .     S
C638   H677    1.110   .     S
C638   H766    1.103   .     S
C639   C644    1.411   .     A
C639   H651    1.081   .     S
C640   H653    1.110   .     S
C640   H652    1.111   .     S
C640   N684    1.449   .     S
C641   H656    1.111   .     S
C641   N685    1.449   .     S
C641   H658    1.111   .     S
C641   H921    1.110   1_545 S
C642   H660    1.111   .     S
C642   H663    1.111   .     S
C642   N686    1.449   .     S
C642   H925    1.109   .     S
C643   C645    1.408   .     A
C643   H662    1.082   .     S
C644   H673    1.079   .     S
C644   N681    1.362   .     A
C645   H675    1.078   .     S
C645   N682    1.364   .     A
C646   O693    1.375   .     S
C646   C648    1.406   .     A
C646   N681    1.387   .     A
C647   N682    1.380   .     A
C647   O694    1.369   .     S
C648   O695    1.381   .     S
Cu649  N682    2.019   .     S
Cu649  O687    1.953   .     S
Cu649  Cu650   2.687   .     S
Cu649  O699    1.963   .     S
Cu649  O703    1.980   .     S
Cu649  O700    1.977   .     S
Cu650  O702    1.980   .     S
Cu650  O697    1.953   .     S
Cu650  N681    2.019   .     S
Cu650  O701    1.977   .     S
Cu650  O698    1.963   .     S
H654   C728    1.109   .     S
H655   N685    1.032   .     S
H657   C905    1.110   .     S
H659   N686    1.032   .     S
H661   C906    1.109   1_545 S
H664   O704    0.988   .     S
H665   O688    0.987   .     S
H666   O689    0.989   .     S
H667   O690    0.989   .     S
H668   O955    0.988   .     S
H669   O956    0.988   1_545 S
H670   O693    0.974   .     S
H671   O694    0.987   .     S
H672   O167    0.991   1_556 S
H674   O696    0.990   .     S
H676   N683    1.031   .     S
H680   N684    1.031   .     S
N683   C711    1.431   .     S
O691   H932    0.988   1_545 S
O692   H933    0.988   .     S
C705   O775    1.297   .     A
C705   O786    1.299   .     A
C705   C718    1.471   .     S
C706   C735    1.419   .     A
C706   C708    1.406   .     A
C706   O784    1.383   .     S
C707   C727    1.414   .     A
C707   C736    1.412   .     A
C708   C731    1.413   .     A
C708   C179    1.520   1_556 S
C709   C711    1.442   .     S
C709   O788    1.283   .     A
C709   O790    1.298   .     A
C710   C712    1.443   .     S
C710   O791    1.296   .     A
C710   O789    1.287   .     A
C712   C535    1.368   1_655 S
C712   N596    1.433   1_655 S
C713   N773    1.426   .     S
C713   C715    1.410   .     A
C713   C724    1.407   .     A
C714   C725    1.408   .     A
C714   N774    1.426   .     S
C714   C717    1.411   .     A
C715   C718    1.410   .     A
C715   O792    1.384   .     S
C716   O787    1.300   .     A
C716   C719    1.464   .     S
C716   O785    1.292   .     A
C717   C719    1.407   .     A
C717   O776    1.386   .     S
C718   C720    1.410   .     A
C719   C721    1.405   .     A
C720   O777    1.386   .     S
C720   C722    1.408   .     A
C721   O778    1.383   .     S
C721   C723    1.407   .     A
C722   O779    1.386   .     S
C722   C724    1.417   .     A
C723   O780    1.386   .     S
C723   C725    1.417   .     A
C724   C989    1.471   1_545 S
C725   C988    1.471   .     S
C726   H767    1.108   .     S
C726   N771    1.447   .     S
C726   H765    1.110   .     S
C726   H590    1.103   1_655 S
C727   C732    1.411   .     A
C727   H739    1.081   .     S
C728   H741    1.110   .     S
C728   H740    1.111   .     S
C728   N772    1.449   .     S
C729   H744    1.111   .     S
C729   N773    1.449   .     S
C729   H746    1.111   .     S
C729   H1009   1.110   1_545 S
C730   H748    1.111   .     S
C730   H751    1.111   .     S
C730   N774    1.449   .     S
C730   H1013   1.109   .     S
C731   C733    1.408   .     A
C731   H750    1.082   .     S
C732   H761    1.079   .     S
C732   N769    1.362   .     A
C733   H763    1.078   .     S
C733   N770    1.364   .     A
C734   O781    1.375   .     S
C734   C736    1.406   .     A
C734   N769    1.387   .     A
C735   N770    1.380   .     A
C735   O782    1.369   .     S
C736   O783    1.381   .     S
Cu737  N770    2.019   .     S
Cu737  O775    1.953   .     S
Cu737  Cu738   2.687   .     S
Cu737  O787    1.963   .     S
Cu737  O791    1.980   .     S
Cu737  O788    1.977   .     S
Cu738  O790    1.980   .     S
Cu738  O785    1.953   .     S
Cu738  N769    2.019   .     S
Cu738  O789    1.977   .     S
Cu738  O786    1.963   .     S
H742   C552    1.109   1_655 S
H743   N773    1.032   .     S
H745   C993    1.110   .     S
H747   N774    1.032   .     S
H749   C994    1.109   1_545 S
H752   O792    0.988   .     S
H753   O776    0.987   .     S
H754   O777    0.989   .     S
H755   O778    0.989   .     S
H756   O1043   0.988   .     S
H757   O1044   0.988   1_545 S
H758   O781    0.974   .     S
H759   O782    0.987   .     S
H760   O255    0.991   1_556 S
H762   O784    0.990   .     S
H764   N771    1.031   .     S
H768   N772    1.031   .     S
N771   C535    1.431   1_655 S
O779   H1020   0.988   1_545 S
O780   H1021   0.988   .     S
C793   O863    1.297   .     A
C793   O874    1.299   .     A
C793   C806    1.471   .     S
C794   C823    1.419   .     A
C794   C796    1.406   .     A
C794   O872    1.383   .     S
C795   C815    1.414   .     A
C795   C824    1.412   .     A
C796   C819    1.413   .     A
C796   C267    1.520   1_556 S
C797   C799    1.442   .     S
C797   O876    1.283   .     A
C797   O878    1.298   .     A
C798   C800    1.443   .     S
C798   O879    1.296   .     A
C798   O877    1.287   .     A
C799   C976    1.368   1_455 S
C799   N1035   1.431   1_455 S
C800   C887    1.368   .     S
C800   N948    1.433   .     S
C801   N861    1.426   .     S
C801   C803    1.410   .     A
C801   C812    1.407   .     A
C802   C813    1.408   .     A
C802   N862    1.426   .     S
C802   C805    1.411   .     A
C803   C806    1.410   .     A
C803   O880    1.384   .     S
C804   O875    1.300   .     A
C804   C807    1.464   .     S
C804   O873    1.292   .     A
C805   C807    1.407   .     A
C805   O864    1.386   .     S
C806   C808    1.410   .     A
C807   C809    1.405   .     A
C808   O865    1.386   .     S
C808   C810    1.408   .     A
C809   O866    1.383   .     S
C809   C811    1.407   .     A
C810   O867    1.386   .     S
C810   C812    1.417   .     A
C811   O868    1.386   .     S
C811   C813    1.417   .     A
C813   C548    1.471   1_565 S
C814   H855    1.108   .     S
C814   N859    1.447   .     S
C814   H853    1.110   .     S
C814   H942    1.103   .     S
C815   C820    1.411   .     A
C815   H827    1.081   .     S
C816   H829    1.110   .     S
C816   H828    1.111   .     S
C816   N860    1.449   .     S
C816   H1006   1.109   1_455 S
C817   H832    1.111   .     S
C817   N861    1.449   .     S
C817   H834    1.111   .     S
C818   H836    1.111   .     S
C818   H839    1.111   .     S
C818   N862    1.449   .     S
C818   H573    1.109   1_565 S
C819   C821    1.408   .     A
C819   H838    1.082   .     S
C820   H849    1.079   .     S
C820   N857    1.362   .     A
C821   H851    1.078   .     S
C821   N858    1.364   .     A
C822   O869    1.375   .     S
C822   C824    1.406   .     A
C822   N857    1.387   .     A
C823   N858    1.380   .     A
C823   O870    1.369   .     S
C824   O871    1.381   .     S
Cu825  N858    2.019   .     S
Cu825  O863    1.953   .     S
Cu825  Cu826   2.687   .     S
Cu825  O875    1.963   .     S
Cu825  O879    1.980   .     S
Cu825  O876    1.977   .     S
Cu826  O878    1.980   .     S
Cu826  O873    1.953   .     S
Cu826  N857    2.019   .     S
Cu826  O877    1.977   .     S
Cu826  O874    1.963   .     S
H830   C904    1.109   .     S
H831   N861    1.032   .     S
H833   C553    1.110   1_565 S
H835   N862    1.032   .     S
H840   O880    0.988   .     S
H841   O864    0.987   .     S
H842   O865    0.989   .     S
H843   O866    0.989   .     S
H844   O603    0.988   1_565 S
H846   O869    0.974   .     S
H847   O870    0.987   .     S
H848   O343    0.991   1_556 S
H850   O872    0.990   .     S
H852   N859    1.031   .     S
H854   C990    1.103   1_455 S
H856   N860    1.031   .     S
N859   C887    1.431   .     S
N860   C976    1.433   1_455 S
O868   H581    0.988   1_565 S
C881   O951    1.297   .     A
C881   O962    1.299   .     A
C881   C894    1.471   .     S
C882   C911    1.419   .     A
C882   C884    1.406   .     A
C882   O960    1.383   .     S
C883   C903    1.414   .     A
C883   C912    1.412   .     A
C884   C907    1.413   .     A
C884   C355    1.520   1_556 S
C885   C887    1.442   .     S
C885   O964    1.283   .     A
C885   O966    1.298   .     A
C886   C888    1.443   .     S
C886   O967    1.296   .     A
C886   O965    1.287   .     A
C888   C975    1.368   .     S
C888   N1036   1.433   .     S
C889   N949    1.426   .     S
C889   C891    1.410   .     A
C889   C900    1.407   .     A
C890   C901    1.408   .     A
C890   N950    1.426   .     S
C890   C893    1.411   .     A
C891   C894    1.410   .     A
C891   O968    1.384   .     S
C892   O963    1.300   .     A
C892   C895    1.464   .     S
C892   O961    1.292   .     A
C893   C895    1.407   .     A
C893   O952    1.386   .     S
C894   C896    1.410   .     A
C895   C897    1.405   .     A
C896   O953    1.386   .     S
C896   C898    1.408   .     A
C897   O954    1.383   .     S
C897   C899    1.407   .     A
C898   O955    1.386   .     S
C898   C900    1.417   .     A
C899   O956    1.386   .     S
C899   C901    1.417   .     A
C901   C636    1.471   1_565 S
C902   H943    1.108   .     S
C902   N947    1.447   .     S
C902   H941    1.110   .     S
C902   H1030   1.103   .     S
C903   C908    1.411   .     A
C903   H915    1.081   .     S
C904   H917    1.110   .     S
C904   H916    1.111   .     S
C904   N948    1.449   .     S
C905   H920    1.111   .     S
C905   N949    1.449   .     S
C905   H922    1.111   .     S
C906   H924    1.111   .     S
C906   H927    1.111   .     S
C906   N950    1.449   .     S
C906   H661    1.109   1_565 S
C907   C909    1.408   .     A
C907   H926    1.082   .     S
C908   H937    1.079   .     S
C908   N945    1.362   .     A
C909   H939    1.078   .     S
C909   N946    1.364   .     A
C910   O957    1.375   .     S
C910   C912    1.406   .     A
C910   N945    1.387   .     A
C911   N946    1.380   .     A
C911   O958    1.369   .     S
C912   O959    1.381   .     S
Cu913  N946    2.019   .     S
Cu913  O951    1.953   .     S
Cu913  Cu914   2.687   .     S
Cu913  O963    1.963   .     S
Cu913  O967    1.980   .     S
Cu913  O964    1.977   .     S
Cu914  O966    1.980   .     S
Cu914  O961    1.953   .     S
Cu914  N945    2.019   .     S
Cu914  O965    1.977   .     S
Cu914  O962    1.963   .     S
H918   C992    1.109   .     S
H919   N949    1.032   .     S
H921   C641    1.110   1_565 S
H923   N950    1.032   .     S
H928   O968    0.988   .     S
H929   O952    0.987   .     S
H930   O953    0.989   .     S
H931   O954    0.989   .     S
H932   O691    0.988   1_565 S
H934   O957    0.974   .     S
H935   O958    0.987   .     S
H936   O431    0.991   1_556 S
H938   O960    0.990   .     S
H940   N947    1.031   .     S
H944   N948    1.031   .     S
N947   C975    1.431   .     S
O956   H669    0.988   1_565 S
C969   O1039   1.297   .     A
C969   O1050   1.299   .     A
C969   C982    1.471   .     S
C970   C999    1.419   .     A
C970   C972    1.406   .     A
C970   O1048   1.383   .     S
C971   C991    1.414   .     A
C971   C1000   1.412   .     A
C972   C995    1.413   .     A
C972   C443    1.520   1_556 S
C973   C975    1.442   .     S
C973   O1052   1.283   .     A
C973   O1054   1.298   .     A
C974   C976    1.443   .     S
C974   O1055   1.296   .     A
C974   O1053   1.287   .     A
C976   C799    1.368   1_655 S
C976   N860    1.433   1_655 S
C977   N1037   1.426   .     S
C977   C979    1.410   .     A
C977   C988    1.407   .     A
C978   C989    1.408   .     A
C978   N1038   1.426   .     S
C978   C981    1.411   .     A
C979   C982    1.410   .     A
C979   O1056   1.384   .     S
C980   O1051   1.300   .     A
C980   C983    1.464   .     S
C980   O1049   1.292   .     A
C981   C983    1.407   .     A
C981   O1040   1.386   .     S
C982   C984    1.410   .     A
C983   C985    1.405   .     A
C984   O1041   1.386   .     S
C984   C986    1.408   .     A
C985   O1042   1.383   .     S
C985   C987    1.407   .     A
C986   O1043   1.386   .     S
C986   C988    1.417   .     A
C987   O1044   1.386   .     S
C987   C989    1.417   .     A
C989   C724    1.471   1_565 S
C990   H1031   1.108   .     S
C990   N1035   1.447   .     S
C990   H1029   1.110   .     S
C990   H854    1.103   1_655 S
C991   C996    1.411   .     A
C991   H1003   1.081   .     S
C992   H1005   1.110   .     S
C992   H1004   1.111   .     S
C992   N1036   1.449   .     S
C993   H1008   1.111   .     S
C993   N1037   1.449   .     S
C993   H1010   1.111   .     S
C994   H1012   1.111   .     S
C994   H1015   1.111   .     S
C994   N1038   1.449   .     S
C994   H749    1.109   1_565 S
C995   C997    1.408   .     A
C995   H1014   1.082   .     S
C996   H1025   1.079   .     S
C996   N1033   1.362   .     A
C997   H1027   1.078   .     S
C997   N1034   1.364   .     A
C998   O1045   1.375   .     S
C998   C1000   1.406   .     A
C998   N1033   1.387   .     A
C999   N1034   1.380   .     A
C999   O1046   1.369   .     S
C1000  O1047   1.381   .     S
Cu1001 N1034   2.019   .     S
Cu1001 O1039   1.953   .     S
Cu1001 Cu1002  2.687   .     S
Cu1001 O1051   1.963   .     S
Cu1001 O1055   1.980   .     S
Cu1001 O1052   1.977   .     S
Cu1002 O1054   1.980   .     S
Cu1002 O1049   1.953   .     S
Cu1002 N1033   2.019   .     S
Cu1002 O1053   1.977   .     S
Cu1002 O1050   1.963   .     S
H1006  C816    1.109   1_655 S
H1007  N1037   1.032   .     S
H1009  C729    1.110   1_565 S
H1011  N1038   1.032   .     S
H1016  O1056   0.988   .     S
H1017  O1040   0.987   .     S
H1018  O1041   0.989   .     S
H1019  O1042   0.989   .     S
H1020  O779    0.988   1_565 S
H1022  O1045   0.974   .     S
H1023  O1046   0.987   .     S
H1024  O519    0.991   1_556 S
H1026  O1048   0.990   .     S
H1028  N1035   1.031   .     S
H1032  N1036   1.031   .     S
N1035  C799    1.431   1_655 S
O1044  H757    0.988   1_565 S
