data_str_m2_o1_o10_pcu_sym.103
_audit_creation_date              2020-01-03
_audit_creation_method            'Materials Studio'
_symmetry_space_group_name_H-M    'P1'
_symmetry_Int_Tables_number       1
_symmetry_cell_setting            triclinic
loop_
_symmetry_equiv_pos_as_xyz
  x,y,z
_cell_length_a                    26.4147
_cell_length_b                    32.5972
_cell_length_c                    28.7037
_cell_angle_alpha                 91.1127
_cell_angle_beta                  98.3395
_cell_angle_gamma                 90.5506
loop_
_atom_site_label
_atom_site_type_symbol
_atom_site_fract_x
_atom_site_fract_y
_atom_site_fract_z
_atom_site_U_iso_or_equiv
_atom_site_adp_type
_atom_site_occupancy
O1     O     0.16666   0.10655   0.20625   0.00000  Uiso   1.00
O2     O     0.16667   0.22678   0.12709   0.00000  Uiso   1.00
O3     O     0.16666   0.10654   0.12706   0.00000  Uiso   1.00
O4     O     0.16667   0.22679   0.20628   0.00000  Uiso   1.00
C5     C     0.16723   0.08744   0.16624   0.00000  Uiso   1.00
C6     C     0.16611   0.24589   0.16709   0.00000  Uiso   1.00
O7     O     0.09161   0.16667   0.19712   0.00000  Uiso   1.00
O8     O     0.24172   0.16666   0.13621   0.00000  Uiso   1.00
O9     O     0.09161   0.16666   0.11793   0.00000  Uiso   1.00
O10    O     0.24172   0.16667   0.21540   0.00000  Uiso   1.00
C11    C     0.06812   0.16582   0.15473   0.00000  Uiso   1.00
C12    C     0.26521   0.16751   0.17860   0.00000  Uiso   1.00
Cu13   Cu    0.16667   0.16667   0.21355   0.00000  Uiso   1.00
Cu14   Cu    0.16667   0.16666   0.11978   0.00000  Uiso   1.00
N15    N     0.16668   0.16668   0.28403   0.00000  Uiso   1.00
N16    N     0.16665   0.16666   0.04931   0.00000  Uiso   1.00
C17    C     0.01343   0.15963   0.14967   0.00000  Uiso   1.00
C18    C     0.31990   0.17370   0.18367   0.00000  Uiso   1.00
C19    C     0.18177   0.01963   0.12752   0.00000  Uiso   1.00
C20    C     0.15157   0.31371   0.20581   0.00000  Uiso   1.00
C21    C     0.18093   0.31054   0.12917   0.00000  Uiso   1.00
C22    C     0.15240   0.02279   0.20416   0.00000  Uiso   1.00
H23    H     0.19260   0.29301   0.10008   0.00000  Uiso   1.00
H24    H     0.14073   0.04032   0.23325   0.00000  Uiso   1.00
C25    C     0.16602   0.29056   0.16786   0.00000  Uiso   1.00
C26    C     0.16732   0.04277   0.16547   0.00000  Uiso   1.00
C27    C     0.12836   0.14718   0.01851   0.00000  Uiso   1.00
C28    C     0.20498   0.18615   0.31483   0.00000  Uiso   1.00
C29    C     0.12867   0.14745   0.30256   0.00000  Uiso   1.00
C30    C     0.20466   0.18588   0.03078   0.00000  Uiso   1.00
H31    H     0.09844   0.13180   0.27920   0.00000  Uiso   1.00
H32    H     0.23489   0.20153   0.05413   0.00000  Uiso   1.00
C33    C     0.32472   0.13187   0.11177   0.00000  Uiso   1.00
N34    N     0.30694   0.10958   0.08184   0.00000  Uiso   1.00
C35    C     0.00861   0.20147   0.22157   0.00000  Uiso   1.00
N36    N     0.02639   0.22376   0.25149   0.00000  Uiso   1.00
C37    C     0.19839   0.03789   0.08671   0.00000  Uiso   1.00
N38    N     0.21153   0.05231   0.05386   0.00000  Uiso   1.00
C39    C     0.13495   0.29544   0.24663   0.00000  Uiso   1.00
N40    N     0.12181   0.28102   0.27948   0.00000  Uiso   1.00
N41    N     0.08653   0.12676   0.03495   0.00000  Uiso   1.00
O42    O     0.04024   0.13597   0.01651   0.00000  Uiso   1.00
O43    O     0.09402   0.09186   0.05580   0.00000  Uiso   1.00
N44    N     0.24680   0.20658   0.29838   0.00000  Uiso   1.00
O45    O     0.29310   0.19736   0.31682   0.00000  Uiso   1.00
O46    O     0.23932   0.24148   0.27754   0.00000  Uiso   1.00
O47    O     0.50000   0.10655   0.20625   0.00000  Uiso   1.00
O48    O     0.50000   0.22678   0.12709   0.00000  Uiso   1.00
O49    O     0.50000   0.10654   0.12706   0.00000  Uiso   1.00
O50    O     0.50000   0.22679   0.20628   0.00000  Uiso   1.00
C51    C     0.50056   0.08744   0.16624   0.00000  Uiso   1.00
C52    C     0.49944   0.24589   0.16709   0.00000  Uiso   1.00
O53    O     0.42495   0.16667   0.19712   0.00000  Uiso   1.00
O54    O     0.57505   0.16666   0.13621   0.00000  Uiso   1.00
O55    O     0.42494   0.16666   0.11793   0.00000  Uiso   1.00
O56    O     0.57506   0.16667   0.21540   0.00000  Uiso   1.00
C57    C     0.40145   0.16582   0.15473   0.00000  Uiso   1.00
C58    C     0.59855   0.16751   0.17860   0.00000  Uiso   1.00
Cu59   Cu    0.50000   0.16667   0.21355   0.00000  Uiso   1.00
Cu60   Cu    0.50000   0.16666   0.11978   0.00000  Uiso   1.00
N61    N     0.50001   0.16668   0.28403   0.00000  Uiso   1.00
N62    N     0.49999   0.16666   0.04931   0.00000  Uiso   1.00
C63    C     0.34677   0.15963   0.14967   0.00000  Uiso   1.00
C64    C     0.65323   0.17370   0.18367   0.00000  Uiso   1.00
C65    C     0.51510   0.01963   0.12752   0.00000  Uiso   1.00
C66    C     0.48490   0.31371   0.20581   0.00000  Uiso   1.00
C67    C     0.51427   0.31054   0.12917   0.00000  Uiso   1.00
C68    C     0.48573   0.02279   0.20416   0.00000  Uiso   1.00
H69    H     0.52593   0.29301   0.10008   0.00000  Uiso   1.00
H70    H     0.47407   0.04032   0.23325   0.00000  Uiso   1.00
C71    C     0.49935   0.29056   0.16786   0.00000  Uiso   1.00
C72    C     0.50065   0.04277   0.16547   0.00000  Uiso   1.00
C73    C     0.46169   0.14718   0.01851   0.00000  Uiso   1.00
C74    C     0.53831   0.18615   0.31483   0.00000  Uiso   1.00
C75    C     0.46200   0.14745   0.30256   0.00000  Uiso   1.00
C76    C     0.53800   0.18588   0.03078   0.00000  Uiso   1.00
H77    H     0.43178   0.13180   0.27920   0.00000  Uiso   1.00
H78    H     0.56822   0.20153   0.05413   0.00000  Uiso   1.00
C79    C     0.65806   0.13187   0.11177   0.00000  Uiso   1.00
N80    N     0.64027   0.10958   0.08184   0.00000  Uiso   1.00
C81    C     0.34194   0.20147   0.22157   0.00000  Uiso   1.00
N82    N     0.35973   0.22376   0.25149   0.00000  Uiso   1.00
C83    C     0.53172   0.03789   0.08671   0.00000  Uiso   1.00
N84    N     0.54486   0.05231   0.05386   0.00000  Uiso   1.00
C85    C     0.46828   0.29544   0.24663   0.00000  Uiso   1.00
N86    N     0.45514   0.28102   0.27948   0.00000  Uiso   1.00
N87    N     0.41987   0.12676   0.03495   0.00000  Uiso   1.00
O88    O     0.37357   0.13597   0.01651   0.00000  Uiso   1.00
O89    O     0.42735   0.09186   0.05580   0.00000  Uiso   1.00
N90    N     0.58013   0.20658   0.29838   0.00000  Uiso   1.00
O91    O     0.62643   0.19736   0.31682   0.00000  Uiso   1.00
O92    O     0.57265   0.24148   0.27754   0.00000  Uiso   1.00
O93    O     0.83333   0.10655   0.20625   0.00000  Uiso   1.00
O94    O     0.83334   0.22678   0.12709   0.00000  Uiso   1.00
O95    O     0.83333   0.10654   0.12706   0.00000  Uiso   1.00
O96    O     0.83334   0.22679   0.20628   0.00000  Uiso   1.00
C97    C     0.83389   0.08744   0.16624   0.00000  Uiso   1.00
C98    C     0.83277   0.24589   0.16709   0.00000  Uiso   1.00
O99    O     0.75828   0.16667   0.19712   0.00000  Uiso   1.00
O100   O     0.90839   0.16666   0.13621   0.00000  Uiso   1.00
O101   O     0.75828   0.16666   0.11793   0.00000  Uiso   1.00
O102   O     0.90839   0.16667   0.21540   0.00000  Uiso   1.00
C103   C     0.73479   0.16582   0.15473   0.00000  Uiso   1.00
C104   C     0.93188   0.16751   0.17860   0.00000  Uiso   1.00
Cu105  Cu    0.83333   0.16667   0.21355   0.00000  Uiso   1.00
Cu106  Cu    0.83333   0.16666   0.11978   0.00000  Uiso   1.00
N107   N     0.83335   0.16668   0.28403   0.00000  Uiso   1.00
N108   N     0.83332   0.16666   0.04931   0.00000  Uiso   1.00
C109   C     0.68010   0.15963   0.14967   0.00000  Uiso   1.00
C110   C     0.98657   0.17370   0.18367   0.00000  Uiso   1.00
C111   C     0.84843   0.01963   0.12752   0.00000  Uiso   1.00
C112   C     0.81823   0.31371   0.20581   0.00000  Uiso   1.00
C113   C     0.84760   0.31054   0.12917   0.00000  Uiso   1.00
C114   C     0.81907   0.02279   0.20416   0.00000  Uiso   1.00
H115   H     0.85927   0.29301   0.10008   0.00000  Uiso   1.00
H116   H     0.80740   0.04032   0.23325   0.00000  Uiso   1.00
C117   C     0.83268   0.29056   0.16786   0.00000  Uiso   1.00
C118   C     0.83398   0.04277   0.16547   0.00000  Uiso   1.00
C119   C     0.79502   0.14718   0.01851   0.00000  Uiso   1.00
C120   C     0.87164   0.18615   0.31483   0.00000  Uiso   1.00
C121   C     0.79534   0.14745   0.30256   0.00000  Uiso   1.00
C122   C     0.87133   0.18588   0.03078   0.00000  Uiso   1.00
H123   H     0.76511   0.13180   0.27920   0.00000  Uiso   1.00
H124   H     0.90156   0.20153   0.05413   0.00000  Uiso   1.00
C125   C     0.99139   0.13187   0.11177   0.00000  Uiso   1.00
N126   N     0.97361   0.10958   0.08184   0.00000  Uiso   1.00
C127   C     0.67528   0.20147   0.22157   0.00000  Uiso   1.00
N128   N     0.69306   0.22376   0.25149   0.00000  Uiso   1.00
C129   C     0.86505   0.03789   0.08671   0.00000  Uiso   1.00
N130   N     0.87819   0.05231   0.05386   0.00000  Uiso   1.00
C131   C     0.80161   0.29544   0.24663   0.00000  Uiso   1.00
N132   N     0.78847   0.28102   0.27948   0.00000  Uiso   1.00
N133   N     0.75320   0.12676   0.03495   0.00000  Uiso   1.00
O134   O     0.70690   0.13597   0.01651   0.00000  Uiso   1.00
O135   O     0.76068   0.09186   0.05580   0.00000  Uiso   1.00
N136   N     0.91347   0.20658   0.29838   0.00000  Uiso   1.00
O137   O     0.95976   0.19736   0.31682   0.00000  Uiso   1.00
O138   O     0.90598   0.24148   0.27754   0.00000  Uiso   1.00
O139   O     0.16666   0.43989   0.20625   0.00000  Uiso   1.00
O140   O     0.16667   0.56011   0.12709   0.00000  Uiso   1.00
O141   O     0.16666   0.43988   0.12706   0.00000  Uiso   1.00
O142   O     0.16667   0.56012   0.20628   0.00000  Uiso   1.00
C143   C     0.16723   0.42078   0.16624   0.00000  Uiso   1.00
C144   C     0.16611   0.57922   0.16709   0.00000  Uiso   1.00
O145   O     0.09161   0.50000   0.19712   0.00000  Uiso   1.00
O146   O     0.24172   0.50000   0.13621   0.00000  Uiso   1.00
O147   O     0.09161   0.49999   0.11793   0.00000  Uiso   1.00
O148   O     0.24172   0.50001   0.21540   0.00000  Uiso   1.00
C149   C     0.06812   0.49916   0.15473   0.00000  Uiso   1.00
C150   C     0.26521   0.50084   0.17860   0.00000  Uiso   1.00
Cu151  Cu    0.16667   0.50001   0.21355   0.00000  Uiso   1.00
Cu152  Cu    0.16667   0.49999   0.11978   0.00000  Uiso   1.00
N153   N     0.16668   0.50001   0.28403   0.00000  Uiso   1.00
N154   N     0.16665   0.49999   0.04931   0.00000  Uiso   1.00
C155   C     0.01343   0.49297   0.14967   0.00000  Uiso   1.00
C156   C     0.31990   0.50703   0.18367   0.00000  Uiso   1.00
C157   C     0.18177   0.35296   0.12752   0.00000  Uiso   1.00
C158   C     0.15157   0.64704   0.20581   0.00000  Uiso   1.00
C159   C     0.18093   0.64387   0.12917   0.00000  Uiso   1.00
C160   C     0.15240   0.35613   0.20416   0.00000  Uiso   1.00
H161   H     0.19260   0.62634   0.10008   0.00000  Uiso   1.00
H162   H     0.14073   0.37366   0.23325   0.00000  Uiso   1.00
C163   C     0.16602   0.62390   0.16786   0.00000  Uiso   1.00
C164   C     0.16732   0.37610   0.16547   0.00000  Uiso   1.00
C165   C     0.12836   0.48051   0.01851   0.00000  Uiso   1.00
C166   C     0.20498   0.51949   0.31483   0.00000  Uiso   1.00
C167   C     0.12867   0.48078   0.30256   0.00000  Uiso   1.00
C168   C     0.20466   0.51922   0.03078   0.00000  Uiso   1.00
H169   H     0.09844   0.46514   0.27920   0.00000  Uiso   1.00
H170   H     0.23489   0.53486   0.05413   0.00000  Uiso   1.00
C171   C     0.32472   0.46520   0.11177   0.00000  Uiso   1.00
N172   N     0.30694   0.44291   0.08184   0.00000  Uiso   1.00
C173   C     0.00861   0.53480   0.22157   0.00000  Uiso   1.00
N174   N     0.02639   0.55709   0.25149   0.00000  Uiso   1.00
C175   C     0.19839   0.37123   0.08671   0.00000  Uiso   1.00
N176   N     0.21153   0.38565   0.05386   0.00000  Uiso   1.00
C177   C     0.13495   0.62877   0.24663   0.00000  Uiso   1.00
N178   N     0.12181   0.61435   0.27948   0.00000  Uiso   1.00
N179   N     0.08653   0.46009   0.03495   0.00000  Uiso   1.00
O180   O     0.04024   0.46931   0.01651   0.00000  Uiso   1.00
O181   O     0.09402   0.42519   0.05580   0.00000  Uiso   1.00
N182   N     0.24680   0.53991   0.29838   0.00000  Uiso   1.00
O183   O     0.29310   0.53069   0.31682   0.00000  Uiso   1.00
O184   O     0.23932   0.57481   0.27754   0.00000  Uiso   1.00
O185   O     0.50000   0.43989   0.20625   0.00000  Uiso   1.00
O186   O     0.50000   0.56011   0.12709   0.00000  Uiso   1.00
O187   O     0.50000   0.43988   0.12706   0.00000  Uiso   1.00
O188   O     0.50000   0.56012   0.20628   0.00000  Uiso   1.00
C189   C     0.50056   0.42078   0.16624   0.00000  Uiso   1.00
C190   C     0.49944   0.57922   0.16709   0.00000  Uiso   1.00
O191   O     0.42495   0.50000   0.19712   0.00000  Uiso   1.00
O192   O     0.57505   0.50000   0.13621   0.00000  Uiso   1.00
O193   O     0.42494   0.49999   0.11793   0.00000  Uiso   1.00
O194   O     0.57506   0.50001   0.21540   0.00000  Uiso   1.00
C195   C     0.40145   0.49916   0.15473   0.00000  Uiso   1.00
C196   C     0.59855   0.50084   0.17860   0.00000  Uiso   1.00
Cu197  Cu    0.50000   0.50001   0.21355   0.00000  Uiso   1.00
Cu198  Cu    0.50000   0.49999   0.11978   0.00000  Uiso   1.00
N199   N     0.50001   0.50001   0.28403   0.00000  Uiso   1.00
N200   N     0.49999   0.49999   0.04931   0.00000  Uiso   1.00
C201   C     0.34677   0.49297   0.14967   0.00000  Uiso   1.00
C202   C     0.65323   0.50703   0.18367   0.00000  Uiso   1.00
C203   C     0.51510   0.35296   0.12752   0.00000  Uiso   1.00
C204   C     0.48490   0.64704   0.20581   0.00000  Uiso   1.00
C205   C     0.51427   0.64387   0.12917   0.00000  Uiso   1.00
C206   C     0.48573   0.35613   0.20416   0.00000  Uiso   1.00
H207   H     0.52593   0.62634   0.10008   0.00000  Uiso   1.00
H208   H     0.47407   0.37366   0.23325   0.00000  Uiso   1.00
C209   C     0.49935   0.62390   0.16786   0.00000  Uiso   1.00
C210   C     0.50065   0.37610   0.16547   0.00000  Uiso   1.00
C211   C     0.46169   0.48051   0.01851   0.00000  Uiso   1.00
C212   C     0.53831   0.51949   0.31483   0.00000  Uiso   1.00
C213   C     0.46200   0.48078   0.30256   0.00000  Uiso   1.00
C214   C     0.53800   0.51922   0.03078   0.00000  Uiso   1.00
H215   H     0.43178   0.46514   0.27920   0.00000  Uiso   1.00
H216   H     0.56822   0.53486   0.05413   0.00000  Uiso   1.00
C217   C     0.65806   0.46520   0.11177   0.00000  Uiso   1.00
N218   N     0.64027   0.44291   0.08184   0.00000  Uiso   1.00
C219   C     0.34194   0.53480   0.22157   0.00000  Uiso   1.00
N220   N     0.35973   0.55709   0.25149   0.00000  Uiso   1.00
C221   C     0.53172   0.37123   0.08671   0.00000  Uiso   1.00
N222   N     0.54486   0.38565   0.05386   0.00000  Uiso   1.00
C223   C     0.46828   0.62877   0.24663   0.00000  Uiso   1.00
N224   N     0.45514   0.61435   0.27948   0.00000  Uiso   1.00
N225   N     0.41987   0.46009   0.03495   0.00000  Uiso   1.00
O226   O     0.37357   0.46931   0.01651   0.00000  Uiso   1.00
O227   O     0.42735   0.42519   0.05580   0.00000  Uiso   1.00
N228   N     0.58013   0.53991   0.29838   0.00000  Uiso   1.00
O229   O     0.62643   0.53069   0.31682   0.00000  Uiso   1.00
O230   O     0.57265   0.57481   0.27754   0.00000  Uiso   1.00
O231   O     0.83333   0.43989   0.20625   0.00000  Uiso   1.00
O232   O     0.83334   0.56011   0.12709   0.00000  Uiso   1.00
O233   O     0.83333   0.43988   0.12706   0.00000  Uiso   1.00
O234   O     0.83334   0.56012   0.20628   0.00000  Uiso   1.00
C235   C     0.83389   0.42078   0.16624   0.00000  Uiso   1.00
C236   C     0.83277   0.57922   0.16709   0.00000  Uiso   1.00
O237   O     0.75828   0.50000   0.19712   0.00000  Uiso   1.00
O238   O     0.90839   0.50000   0.13621   0.00000  Uiso   1.00
O239   O     0.75828   0.49999   0.11793   0.00000  Uiso   1.00
O240   O     0.90839   0.50001   0.21540   0.00000  Uiso   1.00
C241   C     0.73479   0.49916   0.15473   0.00000  Uiso   1.00
C242   C     0.93188   0.50084   0.17860   0.00000  Uiso   1.00
Cu243  Cu    0.83333   0.50001   0.21355   0.00000  Uiso   1.00
Cu244  Cu    0.83333   0.49999   0.11978   0.00000  Uiso   1.00
N245   N     0.83335   0.50001   0.28403   0.00000  Uiso   1.00
N246   N     0.83332   0.49999   0.04931   0.00000  Uiso   1.00
C247   C     0.68010   0.49297   0.14967   0.00000  Uiso   1.00
C248   C     0.98657   0.50703   0.18367   0.00000  Uiso   1.00
C249   C     0.84843   0.35296   0.12752   0.00000  Uiso   1.00
C250   C     0.81823   0.64704   0.20581   0.00000  Uiso   1.00
C251   C     0.84760   0.64387   0.12917   0.00000  Uiso   1.00
C252   C     0.81907   0.35613   0.20416   0.00000  Uiso   1.00
H253   H     0.85927   0.62634   0.10008   0.00000  Uiso   1.00
H254   H     0.80740   0.37366   0.23325   0.00000  Uiso   1.00
C255   C     0.83268   0.62390   0.16786   0.00000  Uiso   1.00
C256   C     0.83398   0.37610   0.16547   0.00000  Uiso   1.00
C257   C     0.79502   0.48051   0.01851   0.00000  Uiso   1.00
C258   C     0.87164   0.51949   0.31483   0.00000  Uiso   1.00
C259   C     0.79534   0.48078   0.30256   0.00000  Uiso   1.00
C260   C     0.87133   0.51922   0.03078   0.00000  Uiso   1.00
H261   H     0.76511   0.46514   0.27920   0.00000  Uiso   1.00
H262   H     0.90156   0.53486   0.05413   0.00000  Uiso   1.00
C263   C     0.99139   0.46520   0.11177   0.00000  Uiso   1.00
N264   N     0.97361   0.44291   0.08184   0.00000  Uiso   1.00
C265   C     0.67528   0.53480   0.22157   0.00000  Uiso   1.00
N266   N     0.69306   0.55709   0.25149   0.00000  Uiso   1.00
C267   C     0.86505   0.37123   0.08671   0.00000  Uiso   1.00
N268   N     0.87819   0.38565   0.05386   0.00000  Uiso   1.00
C269   C     0.80161   0.62877   0.24663   0.00000  Uiso   1.00
N270   N     0.78847   0.61435   0.27948   0.00000  Uiso   1.00
N271   N     0.75320   0.46009   0.03495   0.00000  Uiso   1.00
O272   O     0.70690   0.46931   0.01651   0.00000  Uiso   1.00
O273   O     0.76068   0.42519   0.05580   0.00000  Uiso   1.00
N274   N     0.91347   0.53991   0.29838   0.00000  Uiso   1.00
O275   O     0.95976   0.53069   0.31682   0.00000  Uiso   1.00
O276   O     0.90598   0.57481   0.27754   0.00000  Uiso   1.00
O277   O     0.16666   0.77322   0.20625   0.00000  Uiso   1.00
O278   O     0.16667   0.89345   0.12709   0.00000  Uiso   1.00
O279   O     0.16666   0.77321   0.12706   0.00000  Uiso   1.00
O280   O     0.16667   0.89346   0.20628   0.00000  Uiso   1.00
C281   C     0.16723   0.75411   0.16624   0.00000  Uiso   1.00
C282   C     0.16611   0.91256   0.16709   0.00000  Uiso   1.00
O283   O     0.09161   0.83334   0.19712   0.00000  Uiso   1.00
O284   O     0.24172   0.83333   0.13621   0.00000  Uiso   1.00
O285   O     0.09161   0.83333   0.11793   0.00000  Uiso   1.00
O286   O     0.24172   0.83334   0.21540   0.00000  Uiso   1.00
C287   C     0.06812   0.83249   0.15473   0.00000  Uiso   1.00
C288   C     0.26521   0.83418   0.17860   0.00000  Uiso   1.00
Cu289  Cu    0.16667   0.83334   0.21355   0.00000  Uiso   1.00
Cu290  Cu    0.16667   0.83333   0.11978   0.00000  Uiso   1.00
N291   N     0.16668   0.83334   0.28403   0.00000  Uiso   1.00
N292   N     0.16665   0.83332   0.04931   0.00000  Uiso   1.00
C293   C     0.01343   0.82630   0.14967   0.00000  Uiso   1.00
C294   C     0.31990   0.84037   0.18367   0.00000  Uiso   1.00
C295   C     0.18177   0.68629   0.12752   0.00000  Uiso   1.00
C296   C     0.15157   0.98037   0.20581   0.00000  Uiso   1.00
C297   C     0.18093   0.97721   0.12917   0.00000  Uiso   1.00
C298   C     0.15240   0.68946   0.20416   0.00000  Uiso   1.00
H299   H     0.19260   0.95968   0.10008   0.00000  Uiso   1.00
H300   H     0.14073   0.70699   0.23325   0.00000  Uiso   1.00
C301   C     0.16602   0.95723   0.16786   0.00000  Uiso   1.00
C302   C     0.16732   0.70944   0.16547   0.00000  Uiso   1.00
C303   C     0.12836   0.81385   0.01851   0.00000  Uiso   1.00
C304   C     0.20498   0.85282   0.31483   0.00000  Uiso   1.00
C305   C     0.12867   0.81412   0.30256   0.00000  Uiso   1.00
C306   C     0.20466   0.85255   0.03078   0.00000  Uiso   1.00
H307   H     0.09844   0.79847   0.27920   0.00000  Uiso   1.00
H308   H     0.23489   0.86820   0.05413   0.00000  Uiso   1.00
C309   C     0.32472   0.79854   0.11177   0.00000  Uiso   1.00
N310   N     0.30694   0.77624   0.08184   0.00000  Uiso   1.00
C311   C     0.00861   0.86813   0.22157   0.00000  Uiso   1.00
N312   N     0.02639   0.89043   0.25149   0.00000  Uiso   1.00
C313   C     0.19839   0.70456   0.08671   0.00000  Uiso   1.00
N314   N     0.21153   0.71898   0.05386   0.00000  Uiso   1.00
C315   C     0.13495   0.96211   0.24663   0.00000  Uiso   1.00
N316   N     0.12181   0.94769   0.27948   0.00000  Uiso   1.00
N317   N     0.08653   0.79342   0.03495   0.00000  Uiso   1.00
O318   O     0.04024   0.80264   0.01651   0.00000  Uiso   1.00
O319   O     0.09402   0.75852   0.05580   0.00000  Uiso   1.00
N320   N     0.24680   0.87324   0.29838   0.00000  Uiso   1.00
O321   O     0.29310   0.86402   0.31682   0.00000  Uiso   1.00
O322   O     0.23932   0.90815   0.27754   0.00000  Uiso   1.00
O323   O     0.50000   0.77322   0.20625   0.00000  Uiso   1.00
O324   O     0.50000   0.89345   0.12709   0.00000  Uiso   1.00
O325   O     0.50000   0.77321   0.12706   0.00000  Uiso   1.00
O326   O     0.50000   0.89346   0.20628   0.00000  Uiso   1.00
C327   C     0.50056   0.75411   0.16624   0.00000  Uiso   1.00
C328   C     0.49944   0.91256   0.16709   0.00000  Uiso   1.00
O329   O     0.42495   0.83334   0.19712   0.00000  Uiso   1.00
O330   O     0.57505   0.83333   0.13621   0.00000  Uiso   1.00
O331   O     0.42494   0.83333   0.11793   0.00000  Uiso   1.00
O332   O     0.57506   0.83334   0.21540   0.00000  Uiso   1.00
C333   C     0.40145   0.83249   0.15473   0.00000  Uiso   1.00
C334   C     0.59855   0.83418   0.17860   0.00000  Uiso   1.00
Cu335  Cu    0.50000   0.83334   0.21355   0.00000  Uiso   1.00
Cu336  Cu    0.50000   0.83333   0.11978   0.00000  Uiso   1.00
N337   N     0.50001   0.83334   0.28403   0.00000  Uiso   1.00
N338   N     0.49999   0.83332   0.04931   0.00000  Uiso   1.00
C339   C     0.34677   0.82630   0.14967   0.00000  Uiso   1.00
C340   C     0.65323   0.84037   0.18367   0.00000  Uiso   1.00
C341   C     0.51510   0.68629   0.12752   0.00000  Uiso   1.00
C342   C     0.48490   0.98037   0.20581   0.00000  Uiso   1.00
C343   C     0.51427   0.97721   0.12917   0.00000  Uiso   1.00
C344   C     0.48573   0.68946   0.20416   0.00000  Uiso   1.00
H345   H     0.52593   0.95968   0.10008   0.00000  Uiso   1.00
H346   H     0.47407   0.70699   0.23325   0.00000  Uiso   1.00
C347   C     0.49935   0.95723   0.16786   0.00000  Uiso   1.00
C348   C     0.50065   0.70944   0.16547   0.00000  Uiso   1.00
C349   C     0.46169   0.81385   0.01851   0.00000  Uiso   1.00
C350   C     0.53831   0.85282   0.31483   0.00000  Uiso   1.00
C351   C     0.46200   0.81412   0.30256   0.00000  Uiso   1.00
C352   C     0.53800   0.85255   0.03078   0.00000  Uiso   1.00
H353   H     0.43178   0.79847   0.27920   0.00000  Uiso   1.00
H354   H     0.56822   0.86820   0.05413   0.00000  Uiso   1.00
C355   C     0.65806   0.79854   0.11177   0.00000  Uiso   1.00
N356   N     0.64027   0.77624   0.08184   0.00000  Uiso   1.00
C357   C     0.34194   0.86813   0.22157   0.00000  Uiso   1.00
N358   N     0.35973   0.89043   0.25149   0.00000  Uiso   1.00
C359   C     0.53172   0.70456   0.08671   0.00000  Uiso   1.00
N360   N     0.54486   0.71898   0.05386   0.00000  Uiso   1.00
C361   C     0.46828   0.96211   0.24663   0.00000  Uiso   1.00
N362   N     0.45514   0.94769   0.27948   0.00000  Uiso   1.00
N363   N     0.41987   0.79342   0.03495   0.00000  Uiso   1.00
O364   O     0.37357   0.80264   0.01651   0.00000  Uiso   1.00
O365   O     0.42735   0.75852   0.05580   0.00000  Uiso   1.00
N366   N     0.58013   0.87324   0.29838   0.00000  Uiso   1.00
O367   O     0.62643   0.86402   0.31682   0.00000  Uiso   1.00
O368   O     0.57265   0.90815   0.27754   0.00000  Uiso   1.00
O369   O     0.83333   0.77322   0.20625   0.00000  Uiso   1.00
O370   O     0.83334   0.89345   0.12709   0.00000  Uiso   1.00
O371   O     0.83333   0.77321   0.12706   0.00000  Uiso   1.00
O372   O     0.83334   0.89346   0.20628   0.00000  Uiso   1.00
C373   C     0.83389   0.75411   0.16624   0.00000  Uiso   1.00
C374   C     0.83277   0.91256   0.16709   0.00000  Uiso   1.00
O375   O     0.75828   0.83334   0.19712   0.00000  Uiso   1.00
O376   O     0.90839   0.83333   0.13621   0.00000  Uiso   1.00
O377   O     0.75828   0.83333   0.11793   0.00000  Uiso   1.00
O378   O     0.90839   0.83334   0.21540   0.00000  Uiso   1.00
C379   C     0.73479   0.83249   0.15473   0.00000  Uiso   1.00
C380   C     0.93188   0.83418   0.17860   0.00000  Uiso   1.00
Cu381  Cu    0.83333   0.83334   0.21355   0.00000  Uiso   1.00
Cu382  Cu    0.83333   0.83333   0.11978   0.00000  Uiso   1.00
N383   N     0.83335   0.83334   0.28403   0.00000  Uiso   1.00
N384   N     0.83332   0.83332   0.04931   0.00000  Uiso   1.00
C385   C     0.68010   0.82630   0.14967   0.00000  Uiso   1.00
C386   C     0.98657   0.84037   0.18367   0.00000  Uiso   1.00
C387   C     0.84843   0.68629   0.12752   0.00000  Uiso   1.00
C388   C     0.81823   0.98037   0.20581   0.00000  Uiso   1.00
C389   C     0.84760   0.97721   0.12917   0.00000  Uiso   1.00
C390   C     0.81907   0.68946   0.20416   0.00000  Uiso   1.00
H391   H     0.85927   0.95968   0.10008   0.00000  Uiso   1.00
H392   H     0.80740   0.70699   0.23325   0.00000  Uiso   1.00
C393   C     0.83268   0.95723   0.16786   0.00000  Uiso   1.00
C394   C     0.83398   0.70944   0.16547   0.00000  Uiso   1.00
C395   C     0.79502   0.81385   0.01851   0.00000  Uiso   1.00
C396   C     0.87164   0.85282   0.31483   0.00000  Uiso   1.00
C397   C     0.79534   0.81412   0.30256   0.00000  Uiso   1.00
C398   C     0.87133   0.85255   0.03078   0.00000  Uiso   1.00
H399   H     0.76511   0.79847   0.27920   0.00000  Uiso   1.00
H400   H     0.90156   0.86820   0.05413   0.00000  Uiso   1.00
C401   C     0.99139   0.79854   0.11177   0.00000  Uiso   1.00
N402   N     0.97361   0.77624   0.08184   0.00000  Uiso   1.00
C403   C     0.67528   0.86813   0.22157   0.00000  Uiso   1.00
N404   N     0.69306   0.89043   0.25149   0.00000  Uiso   1.00
C405   C     0.86505   0.70456   0.08671   0.00000  Uiso   1.00
N406   N     0.87819   0.71898   0.05386   0.00000  Uiso   1.00
C407   C     0.80161   0.96211   0.24663   0.00000  Uiso   1.00
N408   N     0.78847   0.94769   0.27948   0.00000  Uiso   1.00
N409   N     0.75320   0.79342   0.03495   0.00000  Uiso   1.00
O410   O     0.70690   0.80264   0.01651   0.00000  Uiso   1.00
O411   O     0.76068   0.75852   0.05580   0.00000  Uiso   1.00
N412   N     0.91347   0.87324   0.29838   0.00000  Uiso   1.00
O413   O     0.95976   0.86402   0.31682   0.00000  Uiso   1.00
O414   O     0.90598   0.90815   0.27754   0.00000  Uiso   1.00
O415   O     0.16666   0.10655   0.53958   0.00000  Uiso   1.00
O416   O     0.16667   0.22678   0.46042   0.00000  Uiso   1.00
O417   O     0.16666   0.10654   0.46039   0.00000  Uiso   1.00
O418   O     0.16667   0.22679   0.53961   0.00000  Uiso   1.00
C419   C     0.16723   0.08744   0.49957   0.00000  Uiso   1.00
C420   C     0.16611   0.24589   0.50043   0.00000  Uiso   1.00
O421   O     0.09161   0.16667   0.53046   0.00000  Uiso   1.00
O422   O     0.24172   0.16666   0.46954   0.00000  Uiso   1.00
O423   O     0.09161   0.16666   0.45127   0.00000  Uiso   1.00
O424   O     0.24172   0.16667   0.54873   0.00000  Uiso   1.00
C425   C     0.06812   0.16582   0.48807   0.00000  Uiso   1.00
C426   C     0.26521   0.16751   0.51193   0.00000  Uiso   1.00
Cu427  Cu    0.16667   0.16667   0.54689   0.00000  Uiso   1.00
Cu428  Cu    0.16667   0.16666   0.45311   0.00000  Uiso   1.00
N429   N     0.16668   0.16668   0.61736   0.00000  Uiso   1.00
N430   N     0.16665   0.16666   0.38264   0.00000  Uiso   1.00
C431   C     0.01343   0.15963   0.48300   0.00000  Uiso   1.00
C432   C     0.31990   0.17370   0.51700   0.00000  Uiso   1.00
C433   C     0.18177   0.01963   0.46086   0.00000  Uiso   1.00
C434   C     0.15157   0.31371   0.53914   0.00000  Uiso   1.00
C435   C     0.18093   0.31054   0.46250   0.00000  Uiso   1.00
C436   C     0.15240   0.02279   0.53750   0.00000  Uiso   1.00
H437   H     0.19260   0.29301   0.43342   0.00000  Uiso   1.00
H438   H     0.14073   0.04032   0.56658   0.00000  Uiso   1.00
C439   C     0.16602   0.29056   0.50120   0.00000  Uiso   1.00
C440   C     0.16732   0.04277   0.49880   0.00000  Uiso   1.00
C441   C     0.12836   0.14718   0.35184   0.00000  Uiso   1.00
C442   C     0.20498   0.18615   0.64816   0.00000  Uiso   1.00
C443   C     0.12867   0.14745   0.63589   0.00000  Uiso   1.00
C444   C     0.20466   0.18588   0.36411   0.00000  Uiso   1.00
H445   H     0.09844   0.13180   0.61253   0.00000  Uiso   1.00
H446   H     0.23489   0.20153   0.38747   0.00000  Uiso   1.00
C447   C     0.32472   0.13187   0.44510   0.00000  Uiso   1.00
N448   N     0.30694   0.10958   0.41517   0.00000  Uiso   1.00
C449   C     0.00861   0.20147   0.55490   0.00000  Uiso   1.00
N450   N     0.02639   0.22376   0.58483   0.00000  Uiso   1.00
C451   C     0.19839   0.03789   0.42004   0.00000  Uiso   1.00
N452   N     0.21153   0.05231   0.38719   0.00000  Uiso   1.00
C453   C     0.13495   0.29544   0.57996   0.00000  Uiso   1.00
N454   N     0.12181   0.28102   0.61281   0.00000  Uiso   1.00
N455   N     0.08653   0.12676   0.36828   0.00000  Uiso   1.00
O456   O     0.04024   0.13597   0.34984   0.00000  Uiso   1.00
O457   O     0.09402   0.09186   0.38913   0.00000  Uiso   1.00
N458   N     0.24680   0.20658   0.63172   0.00000  Uiso   1.00
O459   O     0.29310   0.19736   0.65015   0.00000  Uiso   1.00
O460   O     0.23932   0.24148   0.61088   0.00000  Uiso   1.00
O461   O     0.50000   0.10655   0.53958   0.00000  Uiso   1.00
O462   O     0.50000   0.22678   0.46042   0.00000  Uiso   1.00
O463   O     0.50000   0.10654   0.46039   0.00000  Uiso   1.00
O464   O     0.50000   0.22679   0.53961   0.00000  Uiso   1.00
C465   C     0.50056   0.08744   0.49957   0.00000  Uiso   1.00
C466   C     0.49944   0.24589   0.50043   0.00000  Uiso   1.00
O467   O     0.42495   0.16667   0.53046   0.00000  Uiso   1.00
O468   O     0.57505   0.16666   0.46954   0.00000  Uiso   1.00
O469   O     0.42494   0.16666   0.45127   0.00000  Uiso   1.00
O470   O     0.57506   0.16667   0.54873   0.00000  Uiso   1.00
C471   C     0.40145   0.16582   0.48807   0.00000  Uiso   1.00
C472   C     0.59855   0.16751   0.51193   0.00000  Uiso   1.00
Cu473  Cu    0.50000   0.16667   0.54689   0.00000  Uiso   1.00
Cu474  Cu    0.50000   0.16666   0.45311   0.00000  Uiso   1.00
N475   N     0.50001   0.16668   0.61736   0.00000  Uiso   1.00
N476   N     0.49999   0.16666   0.38264   0.00000  Uiso   1.00
C477   C     0.34677   0.15963   0.48300   0.00000  Uiso   1.00
C478   C     0.65323   0.17370   0.51700   0.00000  Uiso   1.00
C479   C     0.51510   0.01963   0.46086   0.00000  Uiso   1.00
C480   C     0.48490   0.31371   0.53914   0.00000  Uiso   1.00
C481   C     0.51427   0.31054   0.46250   0.00000  Uiso   1.00
C482   C     0.48573   0.02279   0.53750   0.00000  Uiso   1.00
H483   H     0.52593   0.29301   0.43342   0.00000  Uiso   1.00
H484   H     0.47407   0.04032   0.56658   0.00000  Uiso   1.00
C485   C     0.49935   0.29056   0.50120   0.00000  Uiso   1.00
C486   C     0.50065   0.04277   0.49880   0.00000  Uiso   1.00
C487   C     0.46169   0.14718   0.35184   0.00000  Uiso   1.00
C488   C     0.53831   0.18615   0.64816   0.00000  Uiso   1.00
C489   C     0.46200   0.14745   0.63589   0.00000  Uiso   1.00
C490   C     0.53800   0.18588   0.36411   0.00000  Uiso   1.00
H491   H     0.43178   0.13180   0.61253   0.00000  Uiso   1.00
H492   H     0.56822   0.20153   0.38747   0.00000  Uiso   1.00
C493   C     0.65806   0.13187   0.44510   0.00000  Uiso   1.00
N494   N     0.64027   0.10958   0.41517   0.00000  Uiso   1.00
C495   C     0.34194   0.20147   0.55490   0.00000  Uiso   1.00
N496   N     0.35973   0.22376   0.58483   0.00000  Uiso   1.00
C497   C     0.53172   0.03789   0.42004   0.00000  Uiso   1.00
N498   N     0.54486   0.05231   0.38719   0.00000  Uiso   1.00
C499   C     0.46828   0.29544   0.57996   0.00000  Uiso   1.00
N500   N     0.45514   0.28102   0.61281   0.00000  Uiso   1.00
N501   N     0.41987   0.12676   0.36828   0.00000  Uiso   1.00
O502   O     0.37357   0.13597   0.34984   0.00000  Uiso   1.00
O503   O     0.42735   0.09186   0.38913   0.00000  Uiso   1.00
N504   N     0.58013   0.20658   0.63172   0.00000  Uiso   1.00
O505   O     0.62643   0.19736   0.65015   0.00000  Uiso   1.00
O506   O     0.57265   0.24148   0.61088   0.00000  Uiso   1.00
O507   O     0.83333   0.10655   0.53958   0.00000  Uiso   1.00
O508   O     0.83334   0.22678   0.46042   0.00000  Uiso   1.00
O509   O     0.83333   0.10654   0.46039   0.00000  Uiso   1.00
O510   O     0.83334   0.22679   0.53961   0.00000  Uiso   1.00
C511   C     0.83389   0.08744   0.49957   0.00000  Uiso   1.00
C512   C     0.83277   0.24589   0.50043   0.00000  Uiso   1.00
O513   O     0.75828   0.16667   0.53046   0.00000  Uiso   1.00
O514   O     0.90839   0.16666   0.46954   0.00000  Uiso   1.00
O515   O     0.75828   0.16666   0.45127   0.00000  Uiso   1.00
O516   O     0.90839   0.16667   0.54873   0.00000  Uiso   1.00
C517   C     0.73479   0.16582   0.48807   0.00000  Uiso   1.00
C518   C     0.93188   0.16751   0.51193   0.00000  Uiso   1.00
Cu519  Cu    0.83333   0.16667   0.54689   0.00000  Uiso   1.00
Cu520  Cu    0.83333   0.16666   0.45311   0.00000  Uiso   1.00
N521   N     0.83335   0.16668   0.61736   0.00000  Uiso   1.00
N522   N     0.83332   0.16666   0.38264   0.00000  Uiso   1.00
C523   C     0.68010   0.15963   0.48300   0.00000  Uiso   1.00
C524   C     0.98657   0.17370   0.51700   0.00000  Uiso   1.00
C525   C     0.84843   0.01963   0.46086   0.00000  Uiso   1.00
C526   C     0.81823   0.31371   0.53914   0.00000  Uiso   1.00
C527   C     0.84760   0.31054   0.46250   0.00000  Uiso   1.00
C528   C     0.81907   0.02279   0.53750   0.00000  Uiso   1.00
H529   H     0.85927   0.29301   0.43342   0.00000  Uiso   1.00
H530   H     0.80740   0.04032   0.56658   0.00000  Uiso   1.00
C531   C     0.83268   0.29056   0.50120   0.00000  Uiso   1.00
C532   C     0.83398   0.04277   0.49880   0.00000  Uiso   1.00
C533   C     0.79502   0.14718   0.35184   0.00000  Uiso   1.00
C534   C     0.87164   0.18615   0.64816   0.00000  Uiso   1.00
C535   C     0.79534   0.14745   0.63589   0.00000  Uiso   1.00
C536   C     0.87133   0.18588   0.36411   0.00000  Uiso   1.00
H537   H     0.76511   0.13180   0.61253   0.00000  Uiso   1.00
H538   H     0.90156   0.20153   0.38747   0.00000  Uiso   1.00
C539   C     0.99139   0.13187   0.44510   0.00000  Uiso   1.00
N540   N     0.97361   0.10958   0.41517   0.00000  Uiso   1.00
C541   C     0.67528   0.20147   0.55490   0.00000  Uiso   1.00
N542   N     0.69306   0.22376   0.58483   0.00000  Uiso   1.00
C543   C     0.86505   0.03789   0.42004   0.00000  Uiso   1.00
N544   N     0.87819   0.05231   0.38719   0.00000  Uiso   1.00
C545   C     0.80161   0.29544   0.57996   0.00000  Uiso   1.00
N546   N     0.78847   0.28102   0.61281   0.00000  Uiso   1.00
N547   N     0.75320   0.12676   0.36828   0.00000  Uiso   1.00
O548   O     0.70690   0.13597   0.34984   0.00000  Uiso   1.00
O549   O     0.76068   0.09186   0.38913   0.00000  Uiso   1.00
N550   N     0.91347   0.20658   0.63172   0.00000  Uiso   1.00
O551   O     0.95976   0.19736   0.65015   0.00000  Uiso   1.00
O552   O     0.90598   0.24148   0.61088   0.00000  Uiso   1.00
O553   O     0.16666   0.43989   0.53958   0.00000  Uiso   1.00
O554   O     0.16667   0.56011   0.46042   0.00000  Uiso   1.00
O555   O     0.16666   0.43988   0.46039   0.00000  Uiso   1.00
O556   O     0.16667   0.56012   0.53961   0.00000  Uiso   1.00
C557   C     0.16723   0.42078   0.49957   0.00000  Uiso   1.00
C558   C     0.16611   0.57922   0.50043   0.00000  Uiso   1.00
O559   O     0.09161   0.50000   0.53046   0.00000  Uiso   1.00
O560   O     0.24172   0.50000   0.46954   0.00000  Uiso   1.00
O561   O     0.09161   0.49999   0.45127   0.00000  Uiso   1.00
O562   O     0.24172   0.50001   0.54873   0.00000  Uiso   1.00
C563   C     0.06812   0.49916   0.48807   0.00000  Uiso   1.00
C564   C     0.26521   0.50084   0.51193   0.00000  Uiso   1.00
Cu565  Cu    0.16667   0.50001   0.54689   0.00000  Uiso   1.00
Cu566  Cu    0.16667   0.49999   0.45311   0.00000  Uiso   1.00
N567   N     0.16668   0.50001   0.61736   0.00000  Uiso   1.00
N568   N     0.16665   0.49999   0.38264   0.00000  Uiso   1.00
C569   C     0.01343   0.49297   0.48300   0.00000  Uiso   1.00
C570   C     0.31990   0.50703   0.51700   0.00000  Uiso   1.00
C571   C     0.18177   0.35296   0.46086   0.00000  Uiso   1.00
C572   C     0.15157   0.64704   0.53914   0.00000  Uiso   1.00
C573   C     0.18093   0.64387   0.46250   0.00000  Uiso   1.00
C574   C     0.15240   0.35613   0.53750   0.00000  Uiso   1.00
H575   H     0.19260   0.62634   0.43342   0.00000  Uiso   1.00
H576   H     0.14073   0.37366   0.56658   0.00000  Uiso   1.00
C577   C     0.16602   0.62390   0.50120   0.00000  Uiso   1.00
C578   C     0.16732   0.37610   0.49880   0.00000  Uiso   1.00
C579   C     0.12836   0.48051   0.35184   0.00000  Uiso   1.00
C580   C     0.20498   0.51949   0.64816   0.00000  Uiso   1.00
C581   C     0.12867   0.48078   0.63589   0.00000  Uiso   1.00
C582   C     0.20466   0.51922   0.36411   0.00000  Uiso   1.00
H583   H     0.09844   0.46514   0.61253   0.00000  Uiso   1.00
H584   H     0.23489   0.53486   0.38747   0.00000  Uiso   1.00
C585   C     0.32472   0.46520   0.44510   0.00000  Uiso   1.00
N586   N     0.30694   0.44291   0.41517   0.00000  Uiso   1.00
C587   C     0.00861   0.53480   0.55490   0.00000  Uiso   1.00
N588   N     0.02639   0.55709   0.58483   0.00000  Uiso   1.00
C589   C     0.19839   0.37123   0.42004   0.00000  Uiso   1.00
N590   N     0.21153   0.38565   0.38719   0.00000  Uiso   1.00
C591   C     0.13495   0.62877   0.57996   0.00000  Uiso   1.00
N592   N     0.12181   0.61435   0.61281   0.00000  Uiso   1.00
N593   N     0.08653   0.46009   0.36828   0.00000  Uiso   1.00
O594   O     0.04024   0.46931   0.34984   0.00000  Uiso   1.00
O595   O     0.09402   0.42519   0.38913   0.00000  Uiso   1.00
N596   N     0.24680   0.53991   0.63172   0.00000  Uiso   1.00
O597   O     0.29310   0.53069   0.65015   0.00000  Uiso   1.00
O598   O     0.23932   0.57481   0.61088   0.00000  Uiso   1.00
O599   O     0.50000   0.43989   0.53958   0.00000  Uiso   1.00
O600   O     0.50000   0.56011   0.46042   0.00000  Uiso   1.00
O601   O     0.50000   0.43988   0.46039   0.00000  Uiso   1.00
O602   O     0.50000   0.56012   0.53961   0.00000  Uiso   1.00
C603   C     0.50056   0.42078   0.49957   0.00000  Uiso   1.00
C604   C     0.49944   0.57922   0.50043   0.00000  Uiso   1.00
O605   O     0.42495   0.50000   0.53046   0.00000  Uiso   1.00
O606   O     0.57505   0.50000   0.46954   0.00000  Uiso   1.00
O607   O     0.42494   0.49999   0.45127   0.00000  Uiso   1.00
O608   O     0.57506   0.50001   0.54873   0.00000  Uiso   1.00
C609   C     0.40145   0.49916   0.48807   0.00000  Uiso   1.00
C610   C     0.59855   0.50084   0.51193   0.00000  Uiso   1.00
Cu611  Cu    0.50000   0.50001   0.54689   0.00000  Uiso   1.00
Cu612  Cu    0.50000   0.49999   0.45311   0.00000  Uiso   1.00
N613   N     0.50001   0.50001   0.61736   0.00000  Uiso   1.00
N614   N     0.49999   0.49999   0.38264   0.00000  Uiso   1.00
C615   C     0.34677   0.49297   0.48300   0.00000  Uiso   1.00
C616   C     0.65323   0.50703   0.51700   0.00000  Uiso   1.00
C617   C     0.51510   0.35296   0.46086   0.00000  Uiso   1.00
C618   C     0.48490   0.64704   0.53914   0.00000  Uiso   1.00
C619   C     0.51427   0.64387   0.46250   0.00000  Uiso   1.00
C620   C     0.48573   0.35613   0.53750   0.00000  Uiso   1.00
H621   H     0.52593   0.62634   0.43342   0.00000  Uiso   1.00
H622   H     0.47407   0.37366   0.56658   0.00000  Uiso   1.00
C623   C     0.49935   0.62390   0.50120   0.00000  Uiso   1.00
C624   C     0.50065   0.37610   0.49880   0.00000  Uiso   1.00
C625   C     0.46169   0.48051   0.35184   0.00000  Uiso   1.00
C626   C     0.53831   0.51949   0.64816   0.00000  Uiso   1.00
C627   C     0.46200   0.48078   0.63589   0.00000  Uiso   1.00
C628   C     0.53800   0.51922   0.36411   0.00000  Uiso   1.00
H629   H     0.43178   0.46514   0.61253   0.00000  Uiso   1.00
H630   H     0.56822   0.53486   0.38747   0.00000  Uiso   1.00
C631   C     0.65806   0.46520   0.44510   0.00000  Uiso   1.00
N632   N     0.64027   0.44291   0.41517   0.00000  Uiso   1.00
C633   C     0.34194   0.53480   0.55490   0.00000  Uiso   1.00
N634   N     0.35973   0.55709   0.58483   0.00000  Uiso   1.00
C635   C     0.53172   0.37123   0.42004   0.00000  Uiso   1.00
N636   N     0.54486   0.38565   0.38719   0.00000  Uiso   1.00
C637   C     0.46828   0.62877   0.57996   0.00000  Uiso   1.00
N638   N     0.45514   0.61435   0.61281   0.00000  Uiso   1.00
N639   N     0.41987   0.46009   0.36828   0.00000  Uiso   1.00
O640   O     0.37357   0.46931   0.34984   0.00000  Uiso   1.00
O641   O     0.42735   0.42519   0.38913   0.00000  Uiso   1.00
N642   N     0.58013   0.53991   0.63172   0.00000  Uiso   1.00
O643   O     0.62643   0.53069   0.65015   0.00000  Uiso   1.00
O644   O     0.57265   0.57481   0.61088   0.00000  Uiso   1.00
O645   O     0.83333   0.43989   0.53958   0.00000  Uiso   1.00
O646   O     0.83334   0.56011   0.46042   0.00000  Uiso   1.00
O647   O     0.83333   0.43988   0.46039   0.00000  Uiso   1.00
O648   O     0.83334   0.56012   0.53961   0.00000  Uiso   1.00
C649   C     0.83389   0.42078   0.49957   0.00000  Uiso   1.00
C650   C     0.83277   0.57922   0.50043   0.00000  Uiso   1.00
O651   O     0.75828   0.50000   0.53046   0.00000  Uiso   1.00
O652   O     0.90839   0.50000   0.46954   0.00000  Uiso   1.00
O653   O     0.75828   0.49999   0.45127   0.00000  Uiso   1.00
O654   O     0.90839   0.50001   0.54873   0.00000  Uiso   1.00
C655   C     0.73479   0.49916   0.48807   0.00000  Uiso   1.00
C656   C     0.93188   0.50084   0.51193   0.00000  Uiso   1.00
Cu657  Cu    0.83333   0.50001   0.54689   0.00000  Uiso   1.00
Cu658  Cu    0.83333   0.49999   0.45311   0.00000  Uiso   1.00
N659   N     0.83335   0.50001   0.61736   0.00000  Uiso   1.00
N660   N     0.83332   0.49999   0.38264   0.00000  Uiso   1.00
C661   C     0.68010   0.49297   0.48300   0.00000  Uiso   1.00
C662   C     0.98657   0.50703   0.51700   0.00000  Uiso   1.00
C663   C     0.84843   0.35296   0.46086   0.00000  Uiso   1.00
C664   C     0.81823   0.64704   0.53914   0.00000  Uiso   1.00
C665   C     0.84760   0.64387   0.46250   0.00000  Uiso   1.00
C666   C     0.81907   0.35613   0.53750   0.00000  Uiso   1.00
H667   H     0.85927   0.62634   0.43342   0.00000  Uiso   1.00
H668   H     0.80740   0.37366   0.56658   0.00000  Uiso   1.00
C669   C     0.83268   0.62390   0.50120   0.00000  Uiso   1.00
C670   C     0.83398   0.37610   0.49880   0.00000  Uiso   1.00
C671   C     0.79502   0.48051   0.35184   0.00000  Uiso   1.00
C672   C     0.87164   0.51949   0.64816   0.00000  Uiso   1.00
C673   C     0.79534   0.48078   0.63589   0.00000  Uiso   1.00
C674   C     0.87133   0.51922   0.36411   0.00000  Uiso   1.00
H675   H     0.76511   0.46514   0.61253   0.00000  Uiso   1.00
H676   H     0.90156   0.53486   0.38747   0.00000  Uiso   1.00
C677   C     0.99139   0.46520   0.44510   0.00000  Uiso   1.00
N678   N     0.97361   0.44291   0.41517   0.00000  Uiso   1.00
C679   C     0.67528   0.53480   0.55490   0.00000  Uiso   1.00
N680   N     0.69306   0.55709   0.58483   0.00000  Uiso   1.00
C681   C     0.86505   0.37123   0.42004   0.00000  Uiso   1.00
N682   N     0.87819   0.38565   0.38719   0.00000  Uiso   1.00
C683   C     0.80161   0.62877   0.57996   0.00000  Uiso   1.00
N684   N     0.78847   0.61435   0.61281   0.00000  Uiso   1.00
N685   N     0.75320   0.46009   0.36828   0.00000  Uiso   1.00
O686   O     0.70690   0.46931   0.34984   0.00000  Uiso   1.00
O687   O     0.76068   0.42519   0.38913   0.00000  Uiso   1.00
N688   N     0.91347   0.53991   0.63172   0.00000  Uiso   1.00
O689   O     0.95976   0.53069   0.65015   0.00000  Uiso   1.00
O690   O     0.90598   0.57481   0.61088   0.00000  Uiso   1.00
O691   O     0.16666   0.77322   0.53958   0.00000  Uiso   1.00
O692   O     0.16667   0.89345   0.46042   0.00000  Uiso   1.00
O693   O     0.16666   0.77321   0.46039   0.00000  Uiso   1.00
O694   O     0.16667   0.89346   0.53961   0.00000  Uiso   1.00
C695   C     0.16723   0.75411   0.49957   0.00000  Uiso   1.00
C696   C     0.16611   0.91256   0.50043   0.00000  Uiso   1.00
O697   O     0.09161   0.83334   0.53046   0.00000  Uiso   1.00
O698   O     0.24172   0.83333   0.46954   0.00000  Uiso   1.00
O699   O     0.09161   0.83333   0.45127   0.00000  Uiso   1.00
O700   O     0.24172   0.83334   0.54873   0.00000  Uiso   1.00
C701   C     0.06812   0.83249   0.48807   0.00000  Uiso   1.00
C702   C     0.26521   0.83418   0.51193   0.00000  Uiso   1.00
Cu703  Cu    0.16667   0.83334   0.54689   0.00000  Uiso   1.00
Cu704  Cu    0.16667   0.83333   0.45311   0.00000  Uiso   1.00
N705   N     0.16668   0.83334   0.61736   0.00000  Uiso   1.00
N706   N     0.16665   0.83332   0.38264   0.00000  Uiso   1.00
C707   C     0.01343   0.82630   0.48300   0.00000  Uiso   1.00
C708   C     0.31990   0.84037   0.51700   0.00000  Uiso   1.00
C709   C     0.18177   0.68629   0.46086   0.00000  Uiso   1.00
C710   C     0.15157   0.98037   0.53914   0.00000  Uiso   1.00
C711   C     0.18093   0.97721   0.46250   0.00000  Uiso   1.00
C712   C     0.15240   0.68946   0.53750   0.00000  Uiso   1.00
H713   H     0.19260   0.95968   0.43342   0.00000  Uiso   1.00
H714   H     0.14073   0.70699   0.56658   0.00000  Uiso   1.00
C715   C     0.16602   0.95723   0.50120   0.00000  Uiso   1.00
C716   C     0.16732   0.70944   0.49880   0.00000  Uiso   1.00
C717   C     0.12836   0.81385   0.35184   0.00000  Uiso   1.00
C718   C     0.20498   0.85282   0.64816   0.00000  Uiso   1.00
C719   C     0.12867   0.81412   0.63589   0.00000  Uiso   1.00
C720   C     0.20466   0.85255   0.36411   0.00000  Uiso   1.00
H721   H     0.09844   0.79847   0.61253   0.00000  Uiso   1.00
H722   H     0.23489   0.86820   0.38747   0.00000  Uiso   1.00
C723   C     0.32472   0.79854   0.44510   0.00000  Uiso   1.00
N724   N     0.30694   0.77624   0.41517   0.00000  Uiso   1.00
C725   C     0.00861   0.86813   0.55490   0.00000  Uiso   1.00
N726   N     0.02639   0.89043   0.58483   0.00000  Uiso   1.00
C727   C     0.19839   0.70456   0.42004   0.00000  Uiso   1.00
N728   N     0.21153   0.71898   0.38719   0.00000  Uiso   1.00
C729   C     0.13495   0.96211   0.57996   0.00000  Uiso   1.00
N730   N     0.12181   0.94769   0.61281   0.00000  Uiso   1.00
N731   N     0.08653   0.79342   0.36828   0.00000  Uiso   1.00
O732   O     0.04024   0.80264   0.34984   0.00000  Uiso   1.00
O733   O     0.09402   0.75852   0.38913   0.00000  Uiso   1.00
N734   N     0.24680   0.87324   0.63172   0.00000  Uiso   1.00
O735   O     0.29310   0.86402   0.65015   0.00000  Uiso   1.00
O736   O     0.23932   0.90815   0.61088   0.00000  Uiso   1.00
O737   O     0.50000   0.77322   0.53958   0.00000  Uiso   1.00
O738   O     0.50000   0.89345   0.46042   0.00000  Uiso   1.00
O739   O     0.50000   0.77321   0.46039   0.00000  Uiso   1.00
O740   O     0.50000   0.89346   0.53961   0.00000  Uiso   1.00
C741   C     0.50056   0.75411   0.49957   0.00000  Uiso   1.00
C742   C     0.49944   0.91256   0.50043   0.00000  Uiso   1.00
O743   O     0.42495   0.83334   0.53046   0.00000  Uiso   1.00
O744   O     0.57505   0.83333   0.46954   0.00000  Uiso   1.00
O745   O     0.42494   0.83333   0.45127   0.00000  Uiso   1.00
O746   O     0.57506   0.83334   0.54873   0.00000  Uiso   1.00
C747   C     0.40145   0.83249   0.48807   0.00000  Uiso   1.00
C748   C     0.59855   0.83418   0.51193   0.00000  Uiso   1.00
Cu749  Cu    0.50000   0.83334   0.54689   0.00000  Uiso   1.00
Cu750  Cu    0.50000   0.83333   0.45311   0.00000  Uiso   1.00
N751   N     0.50001   0.83334   0.61736   0.00000  Uiso   1.00
N752   N     0.49999   0.83332   0.38264   0.00000  Uiso   1.00
C753   C     0.34677   0.82630   0.48300   0.00000  Uiso   1.00
C754   C     0.65323   0.84037   0.51700   0.00000  Uiso   1.00
C755   C     0.51510   0.68629   0.46086   0.00000  Uiso   1.00
C756   C     0.48490   0.98037   0.53914   0.00000  Uiso   1.00
C757   C     0.51427   0.97721   0.46250   0.00000  Uiso   1.00
C758   C     0.48573   0.68946   0.53750   0.00000  Uiso   1.00
H759   H     0.52593   0.95968   0.43342   0.00000  Uiso   1.00
H760   H     0.47407   0.70699   0.56658   0.00000  Uiso   1.00
C761   C     0.49935   0.95723   0.50120   0.00000  Uiso   1.00
C762   C     0.50065   0.70944   0.49880   0.00000  Uiso   1.00
C763   C     0.46169   0.81385   0.35184   0.00000  Uiso   1.00
C764   C     0.53831   0.85282   0.64816   0.00000  Uiso   1.00
C765   C     0.46200   0.81412   0.63589   0.00000  Uiso   1.00
C766   C     0.53800   0.85255   0.36411   0.00000  Uiso   1.00
H767   H     0.43178   0.79847   0.61253   0.00000  Uiso   1.00
H768   H     0.56822   0.86820   0.38747   0.00000  Uiso   1.00
C769   C     0.65806   0.79854   0.44510   0.00000  Uiso   1.00
N770   N     0.64027   0.77624   0.41517   0.00000  Uiso   1.00
C771   C     0.34194   0.86813   0.55490   0.00000  Uiso   1.00
N772   N     0.35973   0.89043   0.58483   0.00000  Uiso   1.00
C773   C     0.53172   0.70456   0.42004   0.00000  Uiso   1.00
N774   N     0.54486   0.71898   0.38719   0.00000  Uiso   1.00
C775   C     0.46828   0.96211   0.57996   0.00000  Uiso   1.00
N776   N     0.45514   0.94769   0.61281   0.00000  Uiso   1.00
N777   N     0.41987   0.79342   0.36828   0.00000  Uiso   1.00
O778   O     0.37357   0.80264   0.34984   0.00000  Uiso   1.00
O779   O     0.42735   0.75852   0.38913   0.00000  Uiso   1.00
N780   N     0.58013   0.87324   0.63172   0.00000  Uiso   1.00
O781   O     0.62643   0.86402   0.65015   0.00000  Uiso   1.00
O782   O     0.57265   0.90815   0.61088   0.00000  Uiso   1.00
O783   O     0.83333   0.77322   0.53958   0.00000  Uiso   1.00
O784   O     0.83334   0.89345   0.46042   0.00000  Uiso   1.00
O785   O     0.83333   0.77321   0.46039   0.00000  Uiso   1.00
O786   O     0.83334   0.89346   0.53961   0.00000  Uiso   1.00
C787   C     0.83389   0.75411   0.49957   0.00000  Uiso   1.00
C788   C     0.83277   0.91256   0.50043   0.00000  Uiso   1.00
O789   O     0.75828   0.83334   0.53046   0.00000  Uiso   1.00
O790   O     0.90839   0.83333   0.46954   0.00000  Uiso   1.00
O791   O     0.75828   0.83333   0.45127   0.00000  Uiso   1.00
O792   O     0.90839   0.83334   0.54873   0.00000  Uiso   1.00
C793   C     0.73479   0.83249   0.48807   0.00000  Uiso   1.00
C794   C     0.93188   0.83418   0.51193   0.00000  Uiso   1.00
Cu795  Cu    0.83333   0.83334   0.54689   0.00000  Uiso   1.00
Cu796  Cu    0.83333   0.83333   0.45311   0.00000  Uiso   1.00
N797   N     0.83335   0.83334   0.61736   0.00000  Uiso   1.00
N798   N     0.83332   0.83332   0.38264   0.00000  Uiso   1.00
C799   C     0.68010   0.82630   0.48300   0.00000  Uiso   1.00
C800   C     0.98657   0.84037   0.51700   0.00000  Uiso   1.00
C801   C     0.84843   0.68629   0.46086   0.00000  Uiso   1.00
C802   C     0.81823   0.98037   0.53914   0.00000  Uiso   1.00
C803   C     0.84760   0.97721   0.46250   0.00000  Uiso   1.00
C804   C     0.81907   0.68946   0.53750   0.00000  Uiso   1.00
H805   H     0.85927   0.95968   0.43342   0.00000  Uiso   1.00
H806   H     0.80740   0.70699   0.56658   0.00000  Uiso   1.00
C807   C     0.83268   0.95723   0.50120   0.00000  Uiso   1.00
C808   C     0.83398   0.70944   0.49880   0.00000  Uiso   1.00
C809   C     0.79502   0.81385   0.35184   0.00000  Uiso   1.00
C810   C     0.87164   0.85282   0.64816   0.00000  Uiso   1.00
C811   C     0.79534   0.81412   0.63589   0.00000  Uiso   1.00
C812   C     0.87133   0.85255   0.36411   0.00000  Uiso   1.00
H813   H     0.76511   0.79847   0.61253   0.00000  Uiso   1.00
H814   H     0.90156   0.86820   0.38747   0.00000  Uiso   1.00
C815   C     0.99139   0.79854   0.44510   0.00000  Uiso   1.00
N816   N     0.97361   0.77624   0.41517   0.00000  Uiso   1.00
C817   C     0.67528   0.86813   0.55490   0.00000  Uiso   1.00
N818   N     0.69306   0.89043   0.58483   0.00000  Uiso   1.00
C819   C     0.86505   0.70456   0.42004   0.00000  Uiso   1.00
N820   N     0.87819   0.71898   0.38719   0.00000  Uiso   1.00
C821   C     0.80161   0.96211   0.57996   0.00000  Uiso   1.00
N822   N     0.78847   0.94769   0.61281   0.00000  Uiso   1.00
N823   N     0.75320   0.79342   0.36828   0.00000  Uiso   1.00
O824   O     0.70690   0.80264   0.34984   0.00000  Uiso   1.00
O825   O     0.76068   0.75852   0.38913   0.00000  Uiso   1.00
N826   N     0.91347   0.87324   0.63172   0.00000  Uiso   1.00
O827   O     0.95976   0.86402   0.65015   0.00000  Uiso   1.00
O828   O     0.90598   0.90815   0.61088   0.00000  Uiso   1.00
O829   O     0.16666   0.10655   0.87291   0.00000  Uiso   1.00
O830   O     0.16667   0.22678   0.79375   0.00000  Uiso   1.00
O831   O     0.16666   0.10654   0.79372   0.00000  Uiso   1.00
O832   O     0.16667   0.22679   0.87294   0.00000  Uiso   1.00
C833   C     0.16723   0.08744   0.83291   0.00000  Uiso   1.00
C834   C     0.16611   0.24589   0.83376   0.00000  Uiso   1.00
O835   O     0.09161   0.16667   0.86379   0.00000  Uiso   1.00
O836   O     0.24172   0.16666   0.80288   0.00000  Uiso   1.00
O837   O     0.09161   0.16666   0.78460   0.00000  Uiso   1.00
O838   O     0.24172   0.16667   0.88207   0.00000  Uiso   1.00
C839   C     0.06812   0.16582   0.82140   0.00000  Uiso   1.00
C840   C     0.26521   0.16751   0.84527   0.00000  Uiso   1.00
Cu841  Cu    0.16667   0.16667   0.88022   0.00000  Uiso   1.00
Cu842  Cu    0.16667   0.16666   0.78645   0.00000  Uiso   1.00
N843   N     0.16668   0.16668   0.95069   0.00000  Uiso   1.00
N844   N     0.16665   0.16666   0.71597   0.00000  Uiso   1.00
C845   C     0.01343   0.15963   0.81633   0.00000  Uiso   1.00
C846   C     0.31990   0.17370   0.85033   0.00000  Uiso   1.00
C847   C     0.18177   0.01963   0.79419   0.00000  Uiso   1.00
C848   C     0.15157   0.31371   0.87248   0.00000  Uiso   1.00
C849   C     0.18093   0.31054   0.79584   0.00000  Uiso   1.00
C850   C     0.15240   0.02279   0.87083   0.00000  Uiso   1.00
H851   H     0.19260   0.29301   0.76675   0.00000  Uiso   1.00
H852   H     0.14073   0.04032   0.89992   0.00000  Uiso   1.00
C853   C     0.16602   0.29056   0.83453   0.00000  Uiso   1.00
C854   C     0.16732   0.04277   0.83214   0.00000  Uiso   1.00
C855   C     0.12836   0.14718   0.68517   0.00000  Uiso   1.00
C856   C     0.20498   0.18615   0.98149   0.00000  Uiso   1.00
C857   C     0.12867   0.14745   0.96922   0.00000  Uiso   1.00
C858   C     0.20466   0.18588   0.69744   0.00000  Uiso   1.00
H859   H     0.09844   0.13180   0.94587   0.00000  Uiso   1.00
H860   H     0.23489   0.20153   0.72080   0.00000  Uiso   1.00
C861   C     0.32472   0.13187   0.77843   0.00000  Uiso   1.00
N862   N     0.30694   0.10958   0.74850   0.00000  Uiso   1.00
C863   C     0.00861   0.20147   0.88823   0.00000  Uiso   1.00
N864   N     0.02639   0.22376   0.91816   0.00000  Uiso   1.00
C865   C     0.19839   0.03789   0.75337   0.00000  Uiso   1.00
N866   N     0.21153   0.05231   0.72052   0.00000  Uiso   1.00
C867   C     0.13495   0.29544   0.91329   0.00000  Uiso   1.00
N868   N     0.12181   0.28102   0.94614   0.00000  Uiso   1.00
N869   N     0.08653   0.12676   0.70162   0.00000  Uiso   1.00
O870   O     0.04024   0.13597   0.68318   0.00000  Uiso   1.00
O871   O     0.09402   0.09186   0.72246   0.00000  Uiso   1.00
N872   N     0.24680   0.20658   0.96505   0.00000  Uiso   1.00
O873   O     0.29310   0.19736   0.98348   0.00000  Uiso   1.00
O874   O     0.23932   0.24148   0.94421   0.00000  Uiso   1.00
O875   O     0.50000   0.10655   0.87291   0.00000  Uiso   1.00
O876   O     0.50000   0.22678   0.79375   0.00000  Uiso   1.00
O877   O     0.50000   0.10654   0.79372   0.00000  Uiso   1.00
O878   O     0.50000   0.22679   0.87294   0.00000  Uiso   1.00
C879   C     0.50056   0.08744   0.83291   0.00000  Uiso   1.00
C880   C     0.49944   0.24589   0.83376   0.00000  Uiso   1.00
O881   O     0.42495   0.16667   0.86379   0.00000  Uiso   1.00
O882   O     0.57505   0.16666   0.80288   0.00000  Uiso   1.00
O883   O     0.42494   0.16666   0.78460   0.00000  Uiso   1.00
O884   O     0.57506   0.16667   0.88207   0.00000  Uiso   1.00
C885   C     0.40145   0.16582   0.82140   0.00000  Uiso   1.00
C886   C     0.59855   0.16751   0.84527   0.00000  Uiso   1.00
Cu887  Cu    0.50000   0.16667   0.88022   0.00000  Uiso   1.00
Cu888  Cu    0.50000   0.16666   0.78645   0.00000  Uiso   1.00
N889   N     0.50001   0.16668   0.95069   0.00000  Uiso   1.00
N890   N     0.49999   0.16666   0.71597   0.00000  Uiso   1.00
C891   C     0.34677   0.15963   0.81633   0.00000  Uiso   1.00
C892   C     0.65323   0.17370   0.85033   0.00000  Uiso   1.00
C893   C     0.51510   0.01963   0.79419   0.00000  Uiso   1.00
C894   C     0.48490   0.31371   0.87248   0.00000  Uiso   1.00
C895   C     0.51427   0.31054   0.79584   0.00000  Uiso   1.00
C896   C     0.48573   0.02279   0.87083   0.00000  Uiso   1.00
H897   H     0.52593   0.29301   0.76675   0.00000  Uiso   1.00
H898   H     0.47407   0.04032   0.89992   0.00000  Uiso   1.00
C899   C     0.49935   0.29056   0.83453   0.00000  Uiso   1.00
C900   C     0.50065   0.04277   0.83214   0.00000  Uiso   1.00
C901   C     0.46169   0.14718   0.68517   0.00000  Uiso   1.00
C902   C     0.53831   0.18615   0.98149   0.00000  Uiso   1.00
C903   C     0.46200   0.14745   0.96922   0.00000  Uiso   1.00
C904   C     0.53800   0.18588   0.69744   0.00000  Uiso   1.00
H905   H     0.43178   0.13180   0.94587   0.00000  Uiso   1.00
H906   H     0.56822   0.20153   0.72080   0.00000  Uiso   1.00
C907   C     0.65806   0.13187   0.77843   0.00000  Uiso   1.00
N908   N     0.64027   0.10958   0.74850   0.00000  Uiso   1.00
C909   C     0.34194   0.20147   0.88823   0.00000  Uiso   1.00
N910   N     0.35973   0.22376   0.91816   0.00000  Uiso   1.00
C911   C     0.53172   0.03789   0.75337   0.00000  Uiso   1.00
N912   N     0.54486   0.05231   0.72052   0.00000  Uiso   1.00
C913   C     0.46828   0.29544   0.91329   0.00000  Uiso   1.00
N914   N     0.45514   0.28102   0.94614   0.00000  Uiso   1.00
N915   N     0.41987   0.12676   0.70162   0.00000  Uiso   1.00
O916   O     0.37357   0.13597   0.68318   0.00000  Uiso   1.00
O917   O     0.42735   0.09186   0.72246   0.00000  Uiso   1.00
N918   N     0.58013   0.20658   0.96505   0.00000  Uiso   1.00
O919   O     0.62643   0.19736   0.98348   0.00000  Uiso   1.00
O920   O     0.57265   0.24148   0.94421   0.00000  Uiso   1.00
O921   O     0.83333   0.10655   0.87291   0.00000  Uiso   1.00
O922   O     0.83334   0.22678   0.79375   0.00000  Uiso   1.00
O923   O     0.83333   0.10654   0.79372   0.00000  Uiso   1.00
O924   O     0.83334   0.22679   0.87294   0.00000  Uiso   1.00
C925   C     0.83389   0.08744   0.83291   0.00000  Uiso   1.00
C926   C     0.83277   0.24589   0.83376   0.00000  Uiso   1.00
O927   O     0.75828   0.16667   0.86379   0.00000  Uiso   1.00
O928   O     0.90839   0.16666   0.80288   0.00000  Uiso   1.00
O929   O     0.75828   0.16666   0.78460   0.00000  Uiso   1.00
O930   O     0.90839   0.16667   0.88207   0.00000  Uiso   1.00
C931   C     0.73479   0.16582   0.82140   0.00000  Uiso   1.00
C932   C     0.93188   0.16751   0.84527   0.00000  Uiso   1.00
Cu933  Cu    0.83333   0.16667   0.88022   0.00000  Uiso   1.00
Cu934  Cu    0.83333   0.16666   0.78645   0.00000  Uiso   1.00
N935   N     0.83335   0.16668   0.95069   0.00000  Uiso   1.00
N936   N     0.83332   0.16666   0.71597   0.00000  Uiso   1.00
C937   C     0.68010   0.15963   0.81633   0.00000  Uiso   1.00
C938   C     0.98657   0.17370   0.85033   0.00000  Uiso   1.00
C939   C     0.84843   0.01963   0.79419   0.00000  Uiso   1.00
C940   C     0.81823   0.31371   0.87248   0.00000  Uiso   1.00
C941   C     0.84760   0.31054   0.79584   0.00000  Uiso   1.00
C942   C     0.81907   0.02279   0.87083   0.00000  Uiso   1.00
H943   H     0.85927   0.29301   0.76675   0.00000  Uiso   1.00
H944   H     0.80740   0.04032   0.89992   0.00000  Uiso   1.00
C945   C     0.83268   0.29056   0.83453   0.00000  Uiso   1.00
C946   C     0.83398   0.04277   0.83214   0.00000  Uiso   1.00
C947   C     0.79502   0.14718   0.68517   0.00000  Uiso   1.00
C948   C     0.87164   0.18615   0.98149   0.00000  Uiso   1.00
C949   C     0.79534   0.14745   0.96922   0.00000  Uiso   1.00
C950   C     0.87133   0.18588   0.69744   0.00000  Uiso   1.00
H951   H     0.76511   0.13180   0.94587   0.00000  Uiso   1.00
H952   H     0.90156   0.20153   0.72080   0.00000  Uiso   1.00
C953   C     0.99139   0.13187   0.77843   0.00000  Uiso   1.00
N954   N     0.97361   0.10958   0.74850   0.00000  Uiso   1.00
C955   C     0.67528   0.20147   0.88823   0.00000  Uiso   1.00
N956   N     0.69306   0.22376   0.91816   0.00000  Uiso   1.00
C957   C     0.86505   0.03789   0.75337   0.00000  Uiso   1.00
N958   N     0.87819   0.05231   0.72052   0.00000  Uiso   1.00
C959   C     0.80161   0.29544   0.91329   0.00000  Uiso   1.00
N960   N     0.78847   0.28102   0.94614   0.00000  Uiso   1.00
N961   N     0.75320   0.12676   0.70162   0.00000  Uiso   1.00
O962   O     0.70690   0.13597   0.68318   0.00000  Uiso   1.00
O963   O     0.76068   0.09186   0.72246   0.00000  Uiso   1.00
N964   N     0.91347   0.20658   0.96505   0.00000  Uiso   1.00
O965   O     0.95976   0.19736   0.98348   0.00000  Uiso   1.00
O966   O     0.90598   0.24148   0.94421   0.00000  Uiso   1.00
O967   O     0.16666   0.43989   0.87291   0.00000  Uiso   1.00
O968   O     0.16667   0.56011   0.79375   0.00000  Uiso   1.00
O969   O     0.16666   0.43988   0.79372   0.00000  Uiso   1.00
O970   O     0.16667   0.56012   0.87294   0.00000  Uiso   1.00
C971   C     0.16723   0.42078   0.83291   0.00000  Uiso   1.00
C972   C     0.16611   0.57922   0.83376   0.00000  Uiso   1.00
O973   O     0.09161   0.50000   0.86379   0.00000  Uiso   1.00
O974   O     0.24172   0.50000   0.80288   0.00000  Uiso   1.00
O975   O     0.09161   0.49999   0.78460   0.00000  Uiso   1.00
O976   O     0.24172   0.50001   0.88207   0.00000  Uiso   1.00
C977   C     0.06812   0.49916   0.82140   0.00000  Uiso   1.00
C978   C     0.26521   0.50084   0.84527   0.00000  Uiso   1.00
Cu979  Cu    0.16667   0.50001   0.88022   0.00000  Uiso   1.00
Cu980  Cu    0.16667   0.49999   0.78645   0.00000  Uiso   1.00
N981   N     0.16668   0.50001   0.95069   0.00000  Uiso   1.00
N982   N     0.16665   0.49999   0.71597   0.00000  Uiso   1.00
C983   C     0.01343   0.49297   0.81633   0.00000  Uiso   1.00
C984   C     0.31990   0.50703   0.85033   0.00000  Uiso   1.00
C985   C     0.18177   0.35296   0.79419   0.00000  Uiso   1.00
C986   C     0.15157   0.64704   0.87248   0.00000  Uiso   1.00
C987   C     0.18093   0.64387   0.79584   0.00000  Uiso   1.00
C988   C     0.15240   0.35613   0.87083   0.00000  Uiso   1.00
H989   H     0.19260   0.62634   0.76675   0.00000  Uiso   1.00
H990   H     0.14073   0.37366   0.89992   0.00000  Uiso   1.00
C991   C     0.16602   0.62390   0.83453   0.00000  Uiso   1.00
C992   C     0.16732   0.37610   0.83214   0.00000  Uiso   1.00
C993   C     0.12836   0.48051   0.68517   0.00000  Uiso   1.00
C994   C     0.20498   0.51949   0.98149   0.00000  Uiso   1.00
C995   C     0.12867   0.48078   0.96922   0.00000  Uiso   1.00
C996   C     0.20466   0.51922   0.69744   0.00000  Uiso   1.00
H997   H     0.09844   0.46514   0.94587   0.00000  Uiso   1.00
H998   H     0.23489   0.53486   0.72080   0.00000  Uiso   1.00
C999   C     0.32472   0.46520   0.77843   0.00000  Uiso   1.00
N1000  N     0.30694   0.44291   0.74850   0.00000  Uiso   1.00
C1001  C     0.00861   0.53480   0.88823   0.00000  Uiso   1.00
N1002  N     0.02639   0.55709   0.91816   0.00000  Uiso   1.00
C1003  C     0.19839   0.37123   0.75337   0.00000  Uiso   1.00
N1004  N     0.21153   0.38565   0.72052   0.00000  Uiso   1.00
C1005  C     0.13495   0.62877   0.91329   0.00000  Uiso   1.00
N1006  N     0.12181   0.61435   0.94614   0.00000  Uiso   1.00
N1007  N     0.08653   0.46009   0.70162   0.00000  Uiso   1.00
O1008  O     0.04024   0.46931   0.68318   0.00000  Uiso   1.00
O1009  O     0.09402   0.42519   0.72246   0.00000  Uiso   1.00
N1010  N     0.24680   0.53991   0.96505   0.00000  Uiso   1.00
O1011  O     0.29310   0.53069   0.98348   0.00000  Uiso   1.00
O1012  O     0.23932   0.57481   0.94421   0.00000  Uiso   1.00
O1013  O     0.50000   0.43989   0.87291   0.00000  Uiso   1.00
O1014  O     0.50000   0.56011   0.79375   0.00000  Uiso   1.00
O1015  O     0.50000   0.43988   0.79372   0.00000  Uiso   1.00
O1016  O     0.50000   0.56012   0.87294   0.00000  Uiso   1.00
C1017  C     0.50056   0.42078   0.83291   0.00000  Uiso   1.00
C1018  C     0.49944   0.57922   0.83376   0.00000  Uiso   1.00
O1019  O     0.42495   0.50000   0.86379   0.00000  Uiso   1.00
O1020  O     0.57505   0.50000   0.80288   0.00000  Uiso   1.00
O1021  O     0.42494   0.49999   0.78460   0.00000  Uiso   1.00
O1022  O     0.57506   0.50001   0.88207   0.00000  Uiso   1.00
C1023  C     0.40145   0.49916   0.82140   0.00000  Uiso   1.00
C1024  C     0.59855   0.50084   0.84527   0.00000  Uiso   1.00
Cu1025 Cu    0.50000   0.50001   0.88022   0.00000  Uiso   1.00
Cu1026 Cu    0.50000   0.49999   0.78645   0.00000  Uiso   1.00
N1027  N     0.50001   0.50001   0.95069   0.00000  Uiso   1.00
N1028  N     0.49999   0.49999   0.71597   0.00000  Uiso   1.00
C1029  C     0.34677   0.49297   0.81633   0.00000  Uiso   1.00
C1030  C     0.65323   0.50703   0.85033   0.00000  Uiso   1.00
C1031  C     0.51510   0.35296   0.79419   0.00000  Uiso   1.00
C1032  C     0.48490   0.64704   0.87248   0.00000  Uiso   1.00
C1033  C     0.51427   0.64387   0.79584   0.00000  Uiso   1.00
C1034  C     0.48573   0.35613   0.87083   0.00000  Uiso   1.00
H1035  H     0.52593   0.62634   0.76675   0.00000  Uiso   1.00
H1036  H     0.47407   0.37366   0.89992   0.00000  Uiso   1.00
C1037  C     0.49935   0.62390   0.83453   0.00000  Uiso   1.00
C1038  C     0.50065   0.37610   0.83214   0.00000  Uiso   1.00
C1039  C     0.46169   0.48051   0.68517   0.00000  Uiso   1.00
C1040  C     0.53831   0.51949   0.98149   0.00000  Uiso   1.00
C1041  C     0.46200   0.48078   0.96922   0.00000  Uiso   1.00
C1042  C     0.53800   0.51922   0.69744   0.00000  Uiso   1.00
H1043  H     0.43178   0.46514   0.94587   0.00000  Uiso   1.00
H1044  H     0.56822   0.53486   0.72080   0.00000  Uiso   1.00
C1045  C     0.65806   0.46520   0.77843   0.00000  Uiso   1.00
N1046  N     0.64027   0.44291   0.74850   0.00000  Uiso   1.00
C1047  C     0.34194   0.53480   0.88823   0.00000  Uiso   1.00
N1048  N     0.35973   0.55709   0.91816   0.00000  Uiso   1.00
C1049  C     0.53172   0.37123   0.75337   0.00000  Uiso   1.00
N1050  N     0.54486   0.38565   0.72052   0.00000  Uiso   1.00
C1051  C     0.46828   0.62877   0.91329   0.00000  Uiso   1.00
N1052  N     0.45514   0.61435   0.94614   0.00000  Uiso   1.00
N1053  N     0.41987   0.46009   0.70162   0.00000  Uiso   1.00
O1054  O     0.37357   0.46931   0.68318   0.00000  Uiso   1.00
O1055  O     0.42735   0.42519   0.72246   0.00000  Uiso   1.00
N1056  N     0.58013   0.53991   0.96505   0.00000  Uiso   1.00
O1057  O     0.62643   0.53069   0.98348   0.00000  Uiso   1.00
O1058  O     0.57265   0.57481   0.94421   0.00000  Uiso   1.00
O1059  O     0.83333   0.43989   0.87291   0.00000  Uiso   1.00
O1060  O     0.83334   0.56011   0.79375   0.00000  Uiso   1.00
O1061  O     0.83333   0.43988   0.79372   0.00000  Uiso   1.00
O1062  O     0.83334   0.56012   0.87294   0.00000  Uiso   1.00
C1063  C     0.83389   0.42078   0.83291   0.00000  Uiso   1.00
C1064  C     0.83277   0.57922   0.83376   0.00000  Uiso   1.00
O1065  O     0.75828   0.50000   0.86379   0.00000  Uiso   1.00
O1066  O     0.90839   0.50000   0.80288   0.00000  Uiso   1.00
O1067  O     0.75828   0.49999   0.78460   0.00000  Uiso   1.00
O1068  O     0.90839   0.50001   0.88207   0.00000  Uiso   1.00
C1069  C     0.73479   0.49916   0.82140   0.00000  Uiso   1.00
C1070  C     0.93188   0.50084   0.84527   0.00000  Uiso   1.00
Cu1071 Cu    0.83333   0.50001   0.88022   0.00000  Uiso   1.00
Cu1072 Cu    0.83333   0.49999   0.78645   0.00000  Uiso   1.00
N1073  N     0.83335   0.50001   0.95069   0.00000  Uiso   1.00
N1074  N     0.83332   0.49999   0.71597   0.00000  Uiso   1.00
C1075  C     0.68010   0.49297   0.81633   0.00000  Uiso   1.00
C1076  C     0.98657   0.50703   0.85033   0.00000  Uiso   1.00
C1077  C     0.84843   0.35296   0.79419   0.00000  Uiso   1.00
C1078  C     0.81823   0.64704   0.87248   0.00000  Uiso   1.00
C1079  C     0.84760   0.64387   0.79584   0.00000  Uiso   1.00
C1080  C     0.81907   0.35613   0.87083   0.00000  Uiso   1.00
H1081  H     0.85927   0.62634   0.76675   0.00000  Uiso   1.00
H1082  H     0.80740   0.37366   0.89992   0.00000  Uiso   1.00
C1083  C     0.83268   0.62390   0.83453   0.00000  Uiso   1.00
C1084  C     0.83398   0.37610   0.83214   0.00000  Uiso   1.00
C1085  C     0.79502   0.48051   0.68517   0.00000  Uiso   1.00
C1086  C     0.87164   0.51949   0.98149   0.00000  Uiso   1.00
C1087  C     0.79534   0.48078   0.96922   0.00000  Uiso   1.00
C1088  C     0.87133   0.51922   0.69744   0.00000  Uiso   1.00
H1089  H     0.76511   0.46514   0.94587   0.00000  Uiso   1.00
H1090  H     0.90156   0.53486   0.72080   0.00000  Uiso   1.00
C1091  C     0.99139   0.46520   0.77843   0.00000  Uiso   1.00
N1092  N     0.97361   0.44291   0.74850   0.00000  Uiso   1.00
C1093  C     0.67528   0.53480   0.88823   0.00000  Uiso   1.00
N1094  N     0.69306   0.55709   0.91816   0.00000  Uiso   1.00
C1095  C     0.86505   0.37123   0.75337   0.00000  Uiso   1.00
N1096  N     0.87819   0.38565   0.72052   0.00000  Uiso   1.00
C1097  C     0.80161   0.62877   0.91329   0.00000  Uiso   1.00
N1098  N     0.78847   0.61435   0.94614   0.00000  Uiso   1.00
N1099  N     0.75320   0.46009   0.70162   0.00000  Uiso   1.00
O1100  O     0.70690   0.46931   0.68318   0.00000  Uiso   1.00
O1101  O     0.76068   0.42519   0.72246   0.00000  Uiso   1.00
N1102  N     0.91347   0.53991   0.96505   0.00000  Uiso   1.00
O1103  O     0.95976   0.53069   0.98348   0.00000  Uiso   1.00
O1104  O     0.90598   0.57481   0.94421   0.00000  Uiso   1.00
O1105  O     0.16666   0.77322   0.87291   0.00000  Uiso   1.00
O1106  O     0.16667   0.89345   0.79375   0.00000  Uiso   1.00
O1107  O     0.16666   0.77321   0.79372   0.00000  Uiso   1.00
O1108  O     0.16667   0.89346   0.87294   0.00000  Uiso   1.00
C1109  C     0.16723   0.75411   0.83291   0.00000  Uiso   1.00
C1110  C     0.16611   0.91256   0.83376   0.00000  Uiso   1.00
O1111  O     0.09161   0.83334   0.86379   0.00000  Uiso   1.00
O1112  O     0.24172   0.83333   0.80288   0.00000  Uiso   1.00
O1113  O     0.09161   0.83333   0.78460   0.00000  Uiso   1.00
O1114  O     0.24172   0.83334   0.88207   0.00000  Uiso   1.00
C1115  C     0.06812   0.83249   0.82140   0.00000  Uiso   1.00
C1116  C     0.26521   0.83418   0.84527   0.00000  Uiso   1.00
Cu1117 Cu    0.16667   0.83334   0.88022   0.00000  Uiso   1.00
Cu1118 Cu    0.16667   0.83333   0.78645   0.00000  Uiso   1.00
N1119  N     0.16668   0.83334   0.95069   0.00000  Uiso   1.00
N1120  N     0.16665   0.83332   0.71597   0.00000  Uiso   1.00
C1121  C     0.01343   0.82630   0.81633   0.00000  Uiso   1.00
C1122  C     0.31990   0.84037   0.85033   0.00000  Uiso   1.00
C1123  C     0.18177   0.68629   0.79419   0.00000  Uiso   1.00
C1124  C     0.15157   0.98037   0.87248   0.00000  Uiso   1.00
C1125  C     0.18093   0.97721   0.79584   0.00000  Uiso   1.00
C1126  C     0.15240   0.68946   0.87083   0.00000  Uiso   1.00
H1127  H     0.19260   0.95968   0.76675   0.00000  Uiso   1.00
H1128  H     0.14073   0.70699   0.89992   0.00000  Uiso   1.00
C1129  C     0.16602   0.95723   0.83453   0.00000  Uiso   1.00
C1130  C     0.16732   0.70944   0.83214   0.00000  Uiso   1.00
C1131  C     0.12836   0.81385   0.68517   0.00000  Uiso   1.00
C1132  C     0.20498   0.85282   0.98149   0.00000  Uiso   1.00
C1133  C     0.12867   0.81412   0.96922   0.00000  Uiso   1.00
C1134  C     0.20466   0.85255   0.69744   0.00000  Uiso   1.00
H1135  H     0.09844   0.79847   0.94587   0.00000  Uiso   1.00
H1136  H     0.23489   0.86820   0.72080   0.00000  Uiso   1.00
C1137  C     0.32472   0.79854   0.77843   0.00000  Uiso   1.00
N1138  N     0.30694   0.77624   0.74850   0.00000  Uiso   1.00
C1139  C     0.00861   0.86813   0.88823   0.00000  Uiso   1.00
N1140  N     0.02639   0.89043   0.91816   0.00000  Uiso   1.00
C1141  C     0.19839   0.70456   0.75337   0.00000  Uiso   1.00
N1142  N     0.21153   0.71898   0.72052   0.00000  Uiso   1.00
C1143  C     0.13495   0.96211   0.91329   0.00000  Uiso   1.00
N1144  N     0.12181   0.94769   0.94614   0.00000  Uiso   1.00
N1145  N     0.08653   0.79342   0.70162   0.00000  Uiso   1.00
O1146  O     0.04024   0.80264   0.68318   0.00000  Uiso   1.00
O1147  O     0.09402   0.75852   0.72246   0.00000  Uiso   1.00
N1148  N     0.24680   0.87324   0.96505   0.00000  Uiso   1.00
O1149  O     0.29310   0.86402   0.98348   0.00000  Uiso   1.00
O1150  O     0.23932   0.90815   0.94421   0.00000  Uiso   1.00
O1151  O     0.50000   0.77322   0.87291   0.00000  Uiso   1.00
O1152  O     0.50000   0.89345   0.79375   0.00000  Uiso   1.00
O1153  O     0.50000   0.77321   0.79372   0.00000  Uiso   1.00
O1154  O     0.50000   0.89346   0.87294   0.00000  Uiso   1.00
C1155  C     0.50056   0.75411   0.83291   0.00000  Uiso   1.00
C1156  C     0.49944   0.91256   0.83376   0.00000  Uiso   1.00
O1157  O     0.42495   0.83334   0.86379   0.00000  Uiso   1.00
O1158  O     0.57505   0.83333   0.80288   0.00000  Uiso   1.00
O1159  O     0.42494   0.83333   0.78460   0.00000  Uiso   1.00
O1160  O     0.57506   0.83334   0.88207   0.00000  Uiso   1.00
C1161  C     0.40145   0.83249   0.82140   0.00000  Uiso   1.00
C1162  C     0.59855   0.83418   0.84527   0.00000  Uiso   1.00
Cu1163 Cu    0.50000   0.83334   0.88022   0.00000  Uiso   1.00
Cu1164 Cu    0.50000   0.83333   0.78645   0.00000  Uiso   1.00
N1165  N     0.50001   0.83334   0.95069   0.00000  Uiso   1.00
N1166  N     0.49999   0.83332   0.71597   0.00000  Uiso   1.00
C1167  C     0.34677   0.82630   0.81633   0.00000  Uiso   1.00
C1168  C     0.65323   0.84037   0.85033   0.00000  Uiso   1.00
C1169  C     0.51510   0.68629   0.79419   0.00000  Uiso   1.00
C1170  C     0.48490   0.98037   0.87248   0.00000  Uiso   1.00
C1171  C     0.51427   0.97721   0.79584   0.00000  Uiso   1.00
C1172  C     0.48573   0.68946   0.87083   0.00000  Uiso   1.00
H1173  H     0.52593   0.95968   0.76675   0.00000  Uiso   1.00
H1174  H     0.47407   0.70699   0.89992   0.00000  Uiso   1.00
C1175  C     0.49935   0.95723   0.83453   0.00000  Uiso   1.00
C1176  C     0.50065   0.70944   0.83214   0.00000  Uiso   1.00
C1177  C     0.46169   0.81385   0.68517   0.00000  Uiso   1.00
C1178  C     0.53831   0.85282   0.98149   0.00000  Uiso   1.00
C1179  C     0.46200   0.81412   0.96922   0.00000  Uiso   1.00
C1180  C     0.53800   0.85255   0.69744   0.00000  Uiso   1.00
H1181  H     0.43178   0.79847   0.94587   0.00000  Uiso   1.00
H1182  H     0.56822   0.86820   0.72080   0.00000  Uiso   1.00
C1183  C     0.65806   0.79854   0.77843   0.00000  Uiso   1.00
N1184  N     0.64027   0.77624   0.74850   0.00000  Uiso   1.00
C1185  C     0.34194   0.86813   0.88823   0.00000  Uiso   1.00
N1186  N     0.35973   0.89043   0.91816   0.00000  Uiso   1.00
C1187  C     0.53172   0.70456   0.75337   0.00000  Uiso   1.00
N1188  N     0.54486   0.71898   0.72052   0.00000  Uiso   1.00
C1189  C     0.46828   0.96211   0.91329   0.00000  Uiso   1.00
N1190  N     0.45514   0.94769   0.94614   0.00000  Uiso   1.00
N1191  N     0.41987   0.79342   0.70162   0.00000  Uiso   1.00
O1192  O     0.37357   0.80264   0.68318   0.00000  Uiso   1.00
O1193  O     0.42735   0.75852   0.72246   0.00000  Uiso   1.00
N1194  N     0.58013   0.87324   0.96505   0.00000  Uiso   1.00
O1195  O     0.62643   0.86402   0.98348   0.00000  Uiso   1.00
O1196  O     0.57265   0.90815   0.94421   0.00000  Uiso   1.00
O1197  O     0.83333   0.77322   0.87291   0.00000  Uiso   1.00
O1198  O     0.83334   0.89345   0.79375   0.00000  Uiso   1.00
O1199  O     0.83333   0.77321   0.79372   0.00000  Uiso   1.00
O1200  O     0.83334   0.89346   0.87294   0.00000  Uiso   1.00
C1201  C     0.83389   0.75411   0.83291   0.00000  Uiso   1.00
C1202  C     0.83277   0.91256   0.83376   0.00000  Uiso   1.00
O1203  O     0.75828   0.83334   0.86379   0.00000  Uiso   1.00
O1204  O     0.90839   0.83333   0.80288   0.00000  Uiso   1.00
O1205  O     0.75828   0.83333   0.78460   0.00000  Uiso   1.00
O1206  O     0.90839   0.83334   0.88207   0.00000  Uiso   1.00
C1207  C     0.73479   0.83249   0.82140   0.00000  Uiso   1.00
C1208  C     0.93188   0.83418   0.84527   0.00000  Uiso   1.00
Cu1209 Cu    0.83333   0.83334   0.88022   0.00000  Uiso   1.00
Cu1210 Cu    0.83333   0.83333   0.78645   0.00000  Uiso   1.00
N1211  N     0.83335   0.83334   0.95069   0.00000  Uiso   1.00
N1212  N     0.83332   0.83332   0.71597   0.00000  Uiso   1.00
C1213  C     0.68010   0.82630   0.81633   0.00000  Uiso   1.00
C1214  C     0.98657   0.84037   0.85033   0.00000  Uiso   1.00
C1215  C     0.84843   0.68629   0.79419   0.00000  Uiso   1.00
C1216  C     0.81823   0.98037   0.87248   0.00000  Uiso   1.00
C1217  C     0.84760   0.97721   0.79584   0.00000  Uiso   1.00
C1218  C     0.81907   0.68946   0.87083   0.00000  Uiso   1.00
H1219  H     0.85927   0.95968   0.76675   0.00000  Uiso   1.00
H1220  H     0.80740   0.70699   0.89992   0.00000  Uiso   1.00
C1221  C     0.83268   0.95723   0.83453   0.00000  Uiso   1.00
C1222  C     0.83398   0.70944   0.83214   0.00000  Uiso   1.00
C1223  C     0.79502   0.81385   0.68517   0.00000  Uiso   1.00
C1224  C     0.87164   0.85282   0.98149   0.00000  Uiso   1.00
C1225  C     0.79534   0.81412   0.96922   0.00000  Uiso   1.00
C1226  C     0.87133   0.85255   0.69744   0.00000  Uiso   1.00
H1227  H     0.76511   0.79847   0.94587   0.00000  Uiso   1.00
H1228  H     0.90156   0.86820   0.72080   0.00000  Uiso   1.00
C1229  C     0.99139   0.79854   0.77843   0.00000  Uiso   1.00
N1230  N     0.97361   0.77624   0.74850   0.00000  Uiso   1.00
C1231  C     0.67528   0.86813   0.88823   0.00000  Uiso   1.00
N1232  N     0.69306   0.89043   0.91816   0.00000  Uiso   1.00
C1233  C     0.86505   0.70456   0.75337   0.00000  Uiso   1.00
N1234  N     0.87819   0.71898   0.72052   0.00000  Uiso   1.00
C1235  C     0.80161   0.96211   0.91329   0.00000  Uiso   1.00
N1236  N     0.78847   0.94769   0.94614   0.00000  Uiso   1.00
N1237  N     0.75320   0.79342   0.70162   0.00000  Uiso   1.00
O1238  O     0.70690   0.80264   0.68318   0.00000  Uiso   1.00
O1239  O     0.76068   0.75852   0.72246   0.00000  Uiso   1.00
N1240  N     0.91347   0.87324   0.96505   0.00000  Uiso   1.00
O1241  O     0.95976   0.86402   0.98348   0.00000  Uiso   1.00
O1242  O     0.90598   0.90815   0.94421   0.00000  Uiso   1.00
loop_
_geom_bond_atom_site_label_1
_geom_bond_atom_site_label_2
_geom_bond_distance
_geom_bond_site_symmetry_2
_ccdc_geom_bond_type
O1     C5      1.298   .     A
O1     Cu13    1.967   .     S
O2     C6      1.298   .     A
O2     Cu14    1.967   .     S
O3     Cu14    1.975   .     S
O3     C5      1.294   .     A
O4     C6      1.294   .     A
O4     Cu13    1.975   .     S
C5     C26     1.456   .     S
C6     C25     1.456   .     S
O7     C11     1.283   .     A
O7     Cu13    1.970   .     S
O8     C12     1.283   .     A
O8     Cu14    1.970   .     S
O9     Cu14    1.976   .     S
O9     C11     1.301   .     A
O10    C12     1.301   .     A
O10    Cu13    1.976   .     S
C11    C17     1.443   .     S
C12    C18     1.443   .     S
Cu13   Cu14    2.692   .     S
Cu13   N15     2.023   .     S
Cu14   N16     2.023   .     S
N15    C28     1.384   .     A
N15    C29     1.356   .     A
N16    C27     1.384   .     A
N16    C30     1.356   .     A
C17    C110    1.362   1_455 S
C17    C125    1.452   1_455 S
C18    C63     1.362   .     S
C18    C81     1.452   .     S
C19    C26     1.413   .     A
C19    C37     1.446   .     S
C19    C297    1.385   1_545 S
C20    C25     1.413   .     A
C20    C39     1.446   .     S
C20    C160    1.385   .     S
C21    H23     1.085   .     S
C21    C25     1.401   .     A
C21    C157    1.385   .     S
C22    C26     1.401   .     A
C22    H24     1.085   .     S
C22    C296    1.385   1_545 S
C27    N41     1.427   .     S
C27    C857    1.416   1_554 S
C28    N44     1.427   .     S
C28    C444    1.416   .     S
C29    H31     1.082   .     S
C29    C441    1.416   .     S
C30    H32     1.082   .     S
C30    C856    1.416   1_554 S
C33    N34     1.157   .     T
C33    C63     1.452   .     S
C35    N36     1.157   .     T
C35    C110    1.452   1_455 S
C37    N38     1.157   .     T
C39    N40     1.157   .     T
N41    O43     1.299   .     A
N41    O42     1.301   .     A
N44    O46     1.299   .     A
N44    O45     1.301   .     A
O47    C51     1.298   .     A
O47    Cu59    1.967   .     S
O48    C52     1.298   .     A
O48    Cu60    1.967   .     S
O49    Cu60    1.975   .     S
O49    C51     1.294   .     A
O50    C52     1.294   .     A
O50    Cu59    1.975   .     S
C51    C72     1.456   .     S
C52    C71     1.456   .     S
O53    C57     1.283   .     A
O53    Cu59    1.970   .     S
O54    C58     1.283   .     A
O54    Cu60    1.970   .     S
O55    Cu60    1.976   .     S
O55    C57     1.301   .     A
O56    C58     1.301   .     A
O56    Cu59    1.976   .     S
C57    C63     1.443   .     S
C58    C64     1.443   .     S
Cu59   Cu60    2.692   .     S
Cu59   N61     2.023   .     S
Cu60   N62     2.023   .     S
N61    C74     1.384   .     A
N61    C75     1.356   .     A
N62    C73     1.384   .     A
N62    C76     1.356   .     A
C64    C109    1.362   .     S
C64    C127    1.452   .     S
C65    C72     1.413   .     A
C65    C83     1.446   .     S
C65    C343    1.385   1_545 S
C66    C71     1.413   .     A
C66    C85     1.446   .     S
C66    C206    1.385   .     S
C67    H69     1.085   .     S
C67    C71     1.401   .     A
C67    C203    1.385   .     S
C68    C72     1.401   .     A
C68    H70     1.085   .     S
C68    C342    1.385   1_545 S
C73    N87     1.427   .     S
C73    C903    1.416   1_554 S
C74    N90     1.427   .     S
C74    C490    1.416   .     S
C75    H77     1.082   .     S
C75    C487    1.416   .     S
C76    H78     1.082   .     S
C76    C902    1.416   1_554 S
C79    N80     1.157   .     T
C79    C109    1.452   .     S
C81    N82     1.157   .     T
C83    N84     1.157   .     T
C85    N86     1.157   .     T
N87    O89     1.299   .     A
N87    O88     1.301   .     A
N90    O92     1.299   .     A
N90    O91     1.301   .     A
O93    C97     1.298   .     A
O93    Cu105   1.967   .     S
O94    C98     1.298   .     A
O94    Cu106   1.967   .     S
O95    Cu106   1.975   .     S
O95    C97     1.294   .     A
O96    C98     1.294   .     A
O96    Cu105   1.975   .     S
C97    C118    1.456   .     S
C98    C117    1.456   .     S
O99    C103    1.283   .     A
O99    Cu105   1.970   .     S
O100   C104    1.283   .     A
O100   Cu106   1.970   .     S
O101   Cu106   1.976   .     S
O101   C103    1.301   .     A
O102   C104    1.301   .     A
O102   Cu105   1.976   .     S
C103   C109    1.443   .     S
C104   C110    1.443   .     S
Cu105  Cu106   2.692   .     S
Cu105  N107    2.023   .     S
Cu106  N108    2.023   .     S
N107   C120    1.384   .     A
N107   C121    1.356   .     A
N108   C119    1.384   .     A
N108   C122    1.356   .     A
C110   C17     1.362   1_655 S
C110   C35     1.452   1_655 S
C111   C118    1.413   .     A
C111   C129    1.446   .     S
C111   C389    1.385   1_545 S
C112   C117    1.413   .     A
C112   C131    1.446   .     S
C112   C252    1.385   .     S
C113   H115    1.085   .     S
C113   C117    1.401   .     A
C113   C249    1.385   .     S
C114   C118    1.401   .     A
C114   H116    1.085   .     S
C114   C388    1.385   1_545 S
C119   N133    1.427   .     S
C119   C949    1.416   1_554 S
C120   N136    1.427   .     S
C120   C536    1.416   .     S
C121   H123    1.082   .     S
C121   C533    1.416   .     S
C122   H124    1.082   .     S
C122   C948    1.416   1_554 S
C125   N126    1.157   .     T
C125   C17     1.452   1_655 S
C127   N128    1.157   .     T
C129   N130    1.157   .     T
C131   N132    1.157   .     T
N133   O135    1.299   .     A
N133   O134    1.301   .     A
N136   O138    1.299   .     A
N136   O137    1.301   .     A
O139   C143    1.298   .     A
O139   Cu151   1.967   .     S
O140   C144    1.298   .     A
O140   Cu152   1.967   .     S
O141   Cu152   1.975   .     S
O141   C143    1.294   .     A
O142   C144    1.294   .     A
O142   Cu151   1.975   .     S
C143   C164    1.456   .     S
C144   C163    1.456   .     S
O145   C149    1.283   .     A
O145   Cu151   1.970   .     S
O146   C150    1.283   .     A
O146   Cu152   1.970   .     S
O147   Cu152   1.976   .     S
O147   C149    1.301   .     A
O148   C150    1.301   .     A
O148   Cu151   1.976   .     S
C149   C155    1.443   .     S
C150   C156    1.443   .     S
Cu151  Cu152   2.692   .     S
Cu151  N153    2.023   .     S
Cu152  N154    2.023   .     S
N153   C166    1.384   .     A
N153   C167    1.356   .     A
N154   C165    1.384   .     A
N154   C168    1.356   .     A
C155   C248    1.362   1_455 S
C155   C263    1.452   1_455 S
C156   C201    1.362   .     S
C156   C219    1.452   .     S
C157   C164    1.413   .     A
C157   C175    1.446   .     S
C158   C163    1.413   .     A
C158   C177    1.446   .     S
C158   C298    1.385   .     S
C159   H161    1.085   .     S
C159   C163    1.401   .     A
C159   C295    1.385   .     S
C160   C164    1.401   .     A
C160   H162    1.085   .     S
C165   N179    1.427   .     S
C165   C995    1.416   1_554 S
C166   N182    1.427   .     S
C166   C582    1.416   .     S
C167   H169    1.082   .     S
C167   C579    1.416   .     S
C168   H170    1.082   .     S
C168   C994    1.416   1_554 S
C171   N172    1.157   .     T
C171   C201    1.452   .     S
C173   N174    1.157   .     T
C173   C248    1.452   1_455 S
C175   N176    1.157   .     T
C177   N178    1.157   .     T
N179   O181    1.299   .     A
N179   O180    1.301   .     A
N182   O184    1.299   .     A
N182   O183    1.301   .     A
O185   C189    1.298   .     A
O185   Cu197   1.967   .     S
O186   C190    1.298   .     A
O186   Cu198   1.967   .     S
O187   Cu198   1.975   .     S
O187   C189    1.294   .     A
O188   C190    1.294   .     A
O188   Cu197   1.975   .     S
C189   C210    1.456   .     S
C190   C209    1.456   .     S
O191   C195    1.283   .     A
O191   Cu197   1.970   .     S
O192   C196    1.283   .     A
O192   Cu198   1.970   .     S
O193   Cu198   1.976   .     S
O193   C195    1.301   .     A
O194   C196    1.301   .     A
O194   Cu197   1.976   .     S
C195   C201    1.443   .     S
C196   C202    1.443   .     S
Cu197  Cu198   2.692   .     S
Cu197  N199    2.023   .     S
Cu198  N200    2.023   .     S
N199   C212    1.384   .     A
N199   C213    1.356   .     A
N200   C211    1.384   .     A
N200   C214    1.356   .     A
C202   C247    1.362   .     S
C202   C265    1.452   .     S
C203   C210    1.413   .     A
C203   C221    1.446   .     S
C204   C209    1.413   .     A
C204   C223    1.446   .     S
C204   C344    1.385   .     S
C205   H207    1.085   .     S
C205   C209    1.401   .     A
C205   C341    1.385   .     S
C206   C210    1.401   .     A
C206   H208    1.085   .     S
C211   N225    1.427   .     S
C211   C1041   1.416   1_554 S
C212   N228    1.427   .     S
C212   C628    1.416   .     S
C213   H215    1.082   .     S
C213   C625    1.416   .     S
C214   H216    1.082   .     S
C214   C1040   1.416   1_554 S
C217   N218    1.157   .     T
C217   C247    1.452   .     S
C219   N220    1.157   .     T
C221   N222    1.157   .     T
C223   N224    1.157   .     T
N225   O227    1.299   .     A
N225   O226    1.301   .     A
N228   O230    1.299   .     A
N228   O229    1.301   .     A
O231   C235    1.298   .     A
O231   Cu243   1.967   .     S
O232   C236    1.298   .     A
O232   Cu244   1.967   .     S
O233   Cu244   1.975   .     S
O233   C235    1.294   .     A
O234   C236    1.294   .     A
O234   Cu243   1.975   .     S
C235   C256    1.456   .     S
C236   C255    1.456   .     S
O237   C241    1.283   .     A
O237   Cu243   1.970   .     S
O238   C242    1.283   .     A
O238   Cu244   1.970   .     S
O239   Cu244   1.976   .     S
O239   C241    1.301   .     A
O240   C242    1.301   .     A
O240   Cu243   1.976   .     S
C241   C247    1.443   .     S
C242   C248    1.443   .     S
Cu243  Cu244   2.692   .     S
Cu243  N245    2.023   .     S
Cu244  N246    2.023   .     S
N245   C258    1.384   .     A
N245   C259    1.356   .     A
N246   C257    1.384   .     A
N246   C260    1.356   .     A
C248   C155    1.362   1_655 S
C248   C173    1.452   1_655 S
C249   C256    1.413   .     A
C249   C267    1.446   .     S
C250   C255    1.413   .     A
C250   C269    1.446   .     S
C250   C390    1.385   .     S
C251   H253    1.085   .     S
C251   C255    1.401   .     A
C251   C387    1.385   .     S
C252   C256    1.401   .     A
C252   H254    1.085   .     S
C257   N271    1.427   .     S
C257   C1087   1.416   1_554 S
C258   N274    1.427   .     S
C258   C674    1.416   .     S
C259   H261    1.082   .     S
C259   C671    1.416   .     S
C260   H262    1.082   .     S
C260   C1086   1.416   1_554 S
C263   N264    1.157   .     T
C263   C155    1.452   1_655 S
C265   N266    1.157   .     T
C267   N268    1.157   .     T
C269   N270    1.157   .     T
N271   O273    1.299   .     A
N271   O272    1.301   .     A
N274   O276    1.299   .     A
N274   O275    1.301   .     A
O277   C281    1.298   .     A
O277   Cu289   1.967   .     S
O278   C282    1.298   .     A
O278   Cu290   1.967   .     S
O279   Cu290   1.975   .     S
O279   C281    1.294   .     A
O280   C282    1.294   .     A
O280   Cu289   1.975   .     S
C281   C302    1.456   .     S
C282   C301    1.456   .     S
O283   C287    1.283   .     A
O283   Cu289   1.970   .     S
O284   C288    1.283   .     A
O284   Cu290   1.970   .     S
O285   Cu290   1.976   .     S
O285   C287    1.301   .     A
O286   C288    1.301   .     A
O286   Cu289   1.976   .     S
C287   C293    1.443   .     S
C288   C294    1.443   .     S
Cu289  Cu290   2.692   .     S
Cu289  N291    2.023   .     S
Cu290  N292    2.023   .     S
N291   C304    1.384   .     A
N291   C305    1.356   .     A
N292   C303    1.384   .     A
N292   C306    1.356   .     A
C293   C386    1.362   1_455 S
C293   C401    1.452   1_455 S
C294   C339    1.362   .     S
C294   C357    1.452   .     S
C295   C302    1.413   .     A
C295   C313    1.446   .     S
C296   C301    1.413   .     A
C296   C315    1.446   .     S
C296   C22     1.385   1_565 S
C297   H299    1.085   .     S
C297   C301    1.401   .     A
C297   C19     1.385   1_565 S
C298   C302    1.401   .     A
C298   H300    1.085   .     S
C303   N317    1.427   .     S
C303   C1133   1.416   1_554 S
C304   N320    1.427   .     S
C304   C720    1.416   .     S
C305   H307    1.082   .     S
C305   C717    1.416   .     S
C306   H308    1.082   .     S
C306   C1132   1.416   1_554 S
C309   N310    1.157   .     T
C309   C339    1.452   .     S
C311   N312    1.157   .     T
C311   C386    1.452   1_455 S
C313   N314    1.157   .     T
C315   N316    1.157   .     T
N317   O319    1.299   .     A
N317   O318    1.301   .     A
N320   O322    1.299   .     A
N320   O321    1.301   .     A
O323   C327    1.298   .     A
O323   Cu335   1.967   .     S
O324   C328    1.298   .     A
O324   Cu336   1.967   .     S
O325   Cu336   1.975   .     S
O325   C327    1.294   .     A
O326   C328    1.294   .     A
O326   Cu335   1.975   .     S
C327   C348    1.456   .     S
C328   C347    1.456   .     S
O329   C333    1.283   .     A
O329   Cu335   1.970   .     S
O330   C334    1.283   .     A
O330   Cu336   1.970   .     S
O331   Cu336   1.976   .     S
O331   C333    1.301   .     A
O332   C334    1.301   .     A
O332   Cu335   1.976   .     S
C333   C339    1.443   .     S
C334   C340    1.443   .     S
Cu335  Cu336   2.692   .     S
Cu335  N337    2.023   .     S
Cu336  N338    2.023   .     S
N337   C350    1.384   .     A
N337   C351    1.356   .     A
N338   C349    1.384   .     A
N338   C352    1.356   .     A
C340   C385    1.362   .     S
C340   C403    1.452   .     S
C341   C348    1.413   .     A
C341   C359    1.446   .     S
C342   C347    1.413   .     A
C342   C361    1.446   .     S
C342   C68     1.385   1_565 S
C343   H345    1.085   .     S
C343   C347    1.401   .     A
C343   C65     1.385   1_565 S
C344   C348    1.401   .     A
C344   H346    1.085   .     S
C349   N363    1.427   .     S
C349   C1179   1.416   1_554 S
C350   N366    1.427   .     S
C350   C766    1.416   .     S
C351   H353    1.082   .     S
C351   C763    1.416   .     S
C352   H354    1.082   .     S
C352   C1178   1.416   1_554 S
C355   N356    1.157   .     T
C355   C385    1.452   .     S
C357   N358    1.157   .     T
C359   N360    1.157   .     T
C361   N362    1.157   .     T
N363   O365    1.299   .     A
N363   O364    1.301   .     A
N366   O368    1.299   .     A
N366   O367    1.301   .     A
O369   C373    1.298   .     A
O369   Cu381   1.967   .     S
O370   C374    1.298   .     A
O370   Cu382   1.967   .     S
O371   Cu382   1.975   .     S
O371   C373    1.294   .     A
O372   C374    1.294   .     A
O372   Cu381   1.975   .     S
C373   C394    1.456   .     S
C374   C393    1.456   .     S
O375   C379    1.283   .     A
O375   Cu381   1.970   .     S
O376   C380    1.283   .     A
O376   Cu382   1.970   .     S
O377   Cu382   1.976   .     S
O377   C379    1.301   .     A
O378   C380    1.301   .     A
O378   Cu381   1.976   .     S
C379   C385    1.443   .     S
C380   C386    1.443   .     S
Cu381  Cu382   2.692   .     S
Cu381  N383    2.023   .     S
Cu382  N384    2.023   .     S
N383   C396    1.384   .     A
N383   C397    1.356   .     A
N384   C395    1.384   .     A
N384   C398    1.356   .     A
C386   C293    1.362   1_655 S
C386   C311    1.452   1_655 S
C387   C394    1.413   .     A
C387   C405    1.446   .     S
C388   C393    1.413   .     A
C388   C407    1.446   .     S
C388   C114    1.385   1_565 S
C389   H391    1.085   .     S
C389   C393    1.401   .     A
C389   C111    1.385   1_565 S
C390   C394    1.401   .     A
C390   H392    1.085   .     S
C395   N409    1.427   .     S
C395   C1225   1.416   1_554 S
C396   N412    1.427   .     S
C396   C812    1.416   .     S
C397   H399    1.082   .     S
C397   C809    1.416   .     S
C398   H400    1.082   .     S
C398   C1224   1.416   1_554 S
C401   N402    1.157   .     T
C401   C293    1.452   1_655 S
C403   N404    1.157   .     T
C405   N406    1.157   .     T
C407   N408    1.157   .     T
N409   O411    1.299   .     A
N409   O410    1.301   .     A
N412   O414    1.299   .     A
N412   O413    1.301   .     A
O415   C419    1.298   .     A
O415   Cu427   1.967   .     S
O416   C420    1.298   .     A
O416   Cu428   1.967   .     S
O417   Cu428   1.975   .     S
O417   C419    1.294   .     A
O418   C420    1.294   .     A
O418   Cu427   1.975   .     S
C419   C440    1.456   .     S
C420   C439    1.456   .     S
O421   C425    1.283   .     A
O421   Cu427   1.970   .     S
O422   C426    1.283   .     A
O422   Cu428   1.970   .     S
O423   Cu428   1.976   .     S
O423   C425    1.301   .     A
O424   C426    1.301   .     A
O424   Cu427   1.976   .     S
C425   C431    1.443   .     S
C426   C432    1.443   .     S
Cu427  Cu428   2.692   .     S
Cu427  N429    2.023   .     S
Cu428  N430    2.023   .     S
N429   C442    1.384   .     A
N429   C443    1.356   .     A
N430   C441    1.384   .     A
N430   C444    1.356   .     A
C431   C524    1.362   1_455 S
C431   C539    1.452   1_455 S
C432   C477    1.362   .     S
C432   C495    1.452   .     S
C433   C440    1.413   .     A
C433   C451    1.446   .     S
C433   C711    1.385   1_545 S
C434   C439    1.413   .     A
C434   C453    1.446   .     S
C434   C574    1.385   .     S
C435   H437    1.085   .     S
C435   C439    1.401   .     A
C435   C571    1.385   .     S
C436   C440    1.401   .     A
C436   H438    1.085   .     S
C436   C710    1.385   1_545 S
C441   N455    1.427   .     S
C442   N458    1.427   .     S
C442   C858    1.416   .     S
C443   H445    1.082   .     S
C443   C855    1.416   .     S
C444   H446    1.082   .     S
C447   N448    1.157   .     T
C447   C477    1.452   .     S
C449   N450    1.157   .     T
C449   C524    1.452   1_455 S
C451   N452    1.157   .     T
C453   N454    1.157   .     T
N455   O457    1.299   .     A
N455   O456    1.301   .     A
N458   O460    1.299   .     A
N458   O459    1.301   .     A
O461   C465    1.298   .     A
O461   Cu473   1.967   .     S
O462   C466    1.298   .     A
O462   Cu474   1.967   .     S
O463   Cu474   1.975   .     S
O463   C465    1.294   .     A
O464   C466    1.294   .     A
O464   Cu473   1.975   .     S
C465   C486    1.456   .     S
C466   C485    1.456   .     S
O467   C471    1.283   .     A
O467   Cu473   1.970   .     S
O468   C472    1.283   .     A
O468   Cu474   1.970   .     S
O469   Cu474   1.976   .     S
O469   C471    1.301   .     A
O470   C472    1.301   .     A
O470   Cu473   1.976   .     S
C471   C477    1.443   .     S
C472   C478    1.443   .     S
Cu473  Cu474   2.692   .     S
Cu473  N475    2.023   .     S
Cu474  N476    2.023   .     S
N475   C488    1.384   .     A
N475   C489    1.356   .     A
N476   C487    1.384   .     A
N476   C490    1.356   .     A
C478   C523    1.362   .     S
C478   C541    1.452   .     S
C479   C486    1.413   .     A
C479   C497    1.446   .     S
C479   C757    1.385   1_545 S
C480   C485    1.413   .     A
C480   C499    1.446   .     S
C480   C620    1.385   .     S
C481   H483    1.085   .     S
C481   C485    1.401   .     A
C481   C617    1.385   .     S
C482   C486    1.401   .     A
C482   H484    1.085   .     S
C482   C756    1.385   1_545 S
C487   N501    1.427   .     S
C488   N504    1.427   .     S
C488   C904    1.416   .     S
C489   H491    1.082   .     S
C489   C901    1.416   .     S
C490   H492    1.082   .     S
C493   N494    1.157   .     T
C493   C523    1.452   .     S
C495   N496    1.157   .     T
C497   N498    1.157   .     T
C499   N500    1.157   .     T
N501   O503    1.299   .     A
N501   O502    1.301   .     A
N504   O506    1.299   .     A
N504   O505    1.301   .     A
O507   C511    1.298   .     A
O507   Cu519   1.967   .     S
O508   C512    1.298   .     A
O508   Cu520   1.967   .     S
O509   Cu520   1.975   .     S
O509   C511    1.294   .     A
O510   C512    1.294   .     A
O510   Cu519   1.975   .     S
C511   C532    1.456   .     S
C512   C531    1.456   .     S
O513   C517    1.283   .     A
O513   Cu519   1.970   .     S
O514   C518    1.283   .     A
O514   Cu520   1.970   .     S
O515   Cu520   1.976   .     S
O515   C517    1.301   .     A
O516   C518    1.301   .     A
O516   Cu519   1.976   .     S
C517   C523    1.443   .     S
C518   C524    1.443   .     S
Cu519  Cu520   2.692   .     S
Cu519  N521    2.023   .     S
Cu520  N522    2.023   .     S
N521   C534    1.384   .     A
N521   C535    1.356   .     A
N522   C533    1.384   .     A
N522   C536    1.356   .     A
C524   C431    1.362   1_655 S
C524   C449    1.452   1_655 S
C525   C532    1.413   .     A
C525   C543    1.446   .     S
C525   C803    1.385   1_545 S
C526   C531    1.413   .     A
C526   C545    1.446   .     S
C526   C666    1.385   .     S
C527   H529    1.085   .     S
C527   C531    1.401   .     A
C527   C663    1.385   .     S
C528   C532    1.401   .     A
C528   H530    1.085   .     S
C528   C802    1.385   1_545 S
C533   N547    1.427   .     S
C534   N550    1.427   .     S
C534   C950    1.416   .     S
C535   H537    1.082   .     S
C535   C947    1.416   .     S
C536   H538    1.082   .     S
C539   N540    1.157   .     T
C539   C431    1.452   1_655 S
C541   N542    1.157   .     T
C543   N544    1.157   .     T
C545   N546    1.157   .     T
N547   O549    1.299   .     A
N547   O548    1.301   .     A
N550   O552    1.299   .     A
N550   O551    1.301   .     A
O553   C557    1.298   .     A
O553   Cu565   1.967   .     S
O554   C558    1.298   .     A
O554   Cu566   1.967   .     S
O555   Cu566   1.975   .     S
O555   C557    1.294   .     A
O556   C558    1.294   .     A
O556   Cu565   1.975   .     S
C557   C578    1.456   .     S
C558   C577    1.456   .     S
O559   C563    1.283   .     A
O559   Cu565   1.970   .     S
O560   C564    1.283   .     A
O560   Cu566   1.970   .     S
O561   Cu566   1.976   .     S
O561   C563    1.301   .     A
O562   C564    1.301   .     A
O562   Cu565   1.976   .     S
C563   C569    1.443   .     S
C564   C570    1.443   .     S
Cu565  Cu566   2.692   .     S
Cu565  N567    2.023   .     S
Cu566  N568    2.023   .     S
N567   C580    1.384   .     A
N567   C581    1.356   .     A
N568   C579    1.384   .     A
N568   C582    1.356   .     A
C569   C662    1.362   1_455 S
C569   C677    1.452   1_455 S
C570   C615    1.362   .     S
C570   C633    1.452   .     S
C571   C578    1.413   .     A
C571   C589    1.446   .     S
C572   C577    1.413   .     A
C572   C591    1.446   .     S
C572   C712    1.385   .     S
C573   H575    1.085   .     S
C573   C577    1.401   .     A
C573   C709    1.385   .     S
C574   C578    1.401   .     A
C574   H576    1.085   .     S
C579   N593    1.427   .     S
C580   N596    1.427   .     S
C580   C996    1.416   .     S
C581   H583    1.082   .     S
C581   C993    1.416   .     S
C582   H584    1.082   .     S
C585   N586    1.157   .     T
C585   C615    1.452   .     S
C587   N588    1.157   .     T
C587   C662    1.452   1_455 S
C589   N590    1.157   .     T
C591   N592    1.157   .     T
N593   O595    1.299   .     A
N593   O594    1.301   .     A
N596   O598    1.299   .     A
N596   O597    1.301   .     A
O599   C603    1.298   .     A
O599   Cu611   1.967   .     S
O600   C604    1.298   .     A
O600   Cu612   1.967   .     S
O601   Cu612   1.975   .     S
O601   C603    1.294   .     A
O602   C604    1.294   .     A
O602   Cu611   1.975   .     S
C603   C624    1.456   .     S
C604   C623    1.456   .     S
O605   C609    1.283   .     A
O605   Cu611   1.970   .     S
O606   C610    1.283   .     A
O606   Cu612   1.970   .     S
O607   Cu612   1.976   .     S
O607   C609    1.301   .     A
O608   C610    1.301   .     A
O608   Cu611   1.976   .     S
C609   C615    1.443   .     S
C610   C616    1.443   .     S
Cu611  Cu612   2.692   .     S
Cu611  N613    2.023   .     S
Cu612  N614    2.023   .     S
N613   C626    1.384   .     A
N613   C627    1.356   .     A
N614   C625    1.384   .     A
N614   C628    1.356   .     A
C616   C661    1.362   .     S
C616   C679    1.452   .     S
C617   C624    1.413   .     A
C617   C635    1.446   .     S
C618   C623    1.413   .     A
C618   C637    1.446   .     S
C618   C758    1.385   .     S
C619   H621    1.085   .     S
C619   C623    1.401   .     A
C619   C755    1.385   .     S
C620   C624    1.401   .     A
C620   H622    1.085   .     S
C625   N639    1.427   .     S
C626   N642    1.427   .     S
C626   C1042   1.416   .     S
C627   H629    1.082   .     S
C627   C1039   1.416   .     S
C628   H630    1.082   .     S
C631   N632    1.157   .     T
C631   C661    1.452   .     S
C633   N634    1.157   .     T
C635   N636    1.157   .     T
C637   N638    1.157   .     T
N639   O641    1.299   .     A
N639   O640    1.301   .     A
N642   O644    1.299   .     A
N642   O643    1.301   .     A
O645   C649    1.298   .     A
O645   Cu657   1.967   .     S
O646   C650    1.298   .     A
O646   Cu658   1.967   .     S
O647   Cu658   1.975   .     S
O647   C649    1.294   .     A
O648   C650    1.294   .     A
O648   Cu657   1.975   .     S
C649   C670    1.456   .     S
C650   C669    1.456   .     S
O651   C655    1.283   .     A
O651   Cu657   1.970   .     S
O652   C656    1.283   .     A
O652   Cu658   1.970   .     S
O653   Cu658   1.976   .     S
O653   C655    1.301   .     A
O654   C656    1.301   .     A
O654   Cu657   1.976   .     S
C655   C661    1.443   .     S
C656   C662    1.443   .     S
Cu657  Cu658   2.692   .     S
Cu657  N659    2.023   .     S
Cu658  N660    2.023   .     S
N659   C672    1.384   .     A
N659   C673    1.356   .     A
N660   C671    1.384   .     A
N660   C674    1.356   .     A
C662   C569    1.362   1_655 S
C662   C587    1.452   1_655 S
C663   C670    1.413   .     A
C663   C681    1.446   .     S
C664   C669    1.413   .     A
C664   C683    1.446   .     S
C664   C804    1.385   .     S
C665   H667    1.085   .     S
C665   C669    1.401   .     A
C665   C801    1.385   .     S
C666   C670    1.401   .     A
C666   H668    1.085   .     S
C671   N685    1.427   .     S
C672   N688    1.427   .     S
C672   C1088   1.416   .     S
C673   H675    1.082   .     S
C673   C1085   1.416   .     S
C674   H676    1.082   .     S
C677   N678    1.157   .     T
C677   C569    1.452   1_655 S
C679   N680    1.157   .     T
C681   N682    1.157   .     T
C683   N684    1.157   .     T
N685   O687    1.299   .     A
N685   O686    1.301   .     A
N688   O690    1.299   .     A
N688   O689    1.301   .     A
O691   C695    1.298   .     A
O691   Cu703   1.967   .     S
O692   C696    1.298   .     A
O692   Cu704   1.967   .     S
O693   Cu704   1.975   .     S
O693   C695    1.294   .     A
O694   C696    1.294   .     A
O694   Cu703   1.975   .     S
C695   C716    1.456   .     S
C696   C715    1.456   .     S
O697   C701    1.283   .     A
O697   Cu703   1.970   .     S
O698   C702    1.283   .     A
O698   Cu704   1.970   .     S
O699   Cu704   1.976   .     S
O699   C701    1.301   .     A
O700   C702    1.301   .     A
O700   Cu703   1.976   .     S
C701   C707    1.443   .     S
C702   C708    1.443   .     S
Cu703  Cu704   2.692   .     S
Cu703  N705    2.023   .     S
Cu704  N706    2.023   .     S
N705   C718    1.384   .     A
N705   C719    1.356   .     A
N706   C717    1.384   .     A
N706   C720    1.356   .     A
C707   C800    1.362   1_455 S
C707   C815    1.452   1_455 S
C708   C753    1.362   .     S
C708   C771    1.452   .     S
C709   C716    1.413   .     A
C709   C727    1.446   .     S
C710   C715    1.413   .     A
C710   C729    1.446   .     S
C710   C436    1.385   1_565 S
C711   H713    1.085   .     S
C711   C715    1.401   .     A
C711   C433    1.385   1_565 S
C712   C716    1.401   .     A
C712   H714    1.085   .     S
C717   N731    1.427   .     S
C718   N734    1.427   .     S
C718   C1134   1.416   .     S
C719   H721    1.082   .     S
C719   C1131   1.416   .     S
C720   H722    1.082   .     S
C723   N724    1.157   .     T
C723   C753    1.452   .     S
C725   N726    1.157   .     T
C725   C800    1.452   1_455 S
C727   N728    1.157   .     T
C729   N730    1.157   .     T
N731   O733    1.299   .     A
N731   O732    1.301   .     A
N734   O736    1.299   .     A
N734   O735    1.301   .     A
O737   C741    1.298   .     A
O737   Cu749   1.967   .     S
O738   C742    1.298   .     A
O738   Cu750   1.967   .     S
O739   Cu750   1.975   .     S
O739   C741    1.294   .     A
O740   C742    1.294   .     A
O740   Cu749   1.975   .     S
C741   C762    1.456   .     S
C742   C761    1.456   .     S
O743   C747    1.283   .     A
O743   Cu749   1.970   .     S
O744   C748    1.283   .     A
O744   Cu750   1.970   .     S
O745   Cu750   1.976   .     S
O745   C747    1.301   .     A
O746   C748    1.301   .     A
O746   Cu749   1.976   .     S
C747   C753    1.443   .     S
C748   C754    1.443   .     S
Cu749  Cu750   2.692   .     S
Cu749  N751    2.023   .     S
Cu750  N752    2.023   .     S
N751   C764    1.384   .     A
N751   C765    1.356   .     A
N752   C763    1.384   .     A
N752   C766    1.356   .     A
C754   C799    1.362   .     S
C754   C817    1.452   .     S
C755   C762    1.413   .     A
C755   C773    1.446   .     S
C756   C761    1.413   .     A
C756   C775    1.446   .     S
C756   C482    1.385   1_565 S
C757   H759    1.085   .     S
C757   C761    1.401   .     A
C757   C479    1.385   1_565 S
C758   C762    1.401   .     A
C758   H760    1.085   .     S
C763   N777    1.427   .     S
C764   N780    1.427   .     S
C764   C1180   1.416   .     S
C765   H767    1.082   .     S
C765   C1177   1.416   .     S
C766   H768    1.082   .     S
C769   N770    1.157   .     T
C769   C799    1.452   .     S
C771   N772    1.157   .     T
C773   N774    1.157   .     T
C775   N776    1.157   .     T
N777   O779    1.299   .     A
N777   O778    1.301   .     A
N780   O782    1.299   .     A
N780   O781    1.301   .     A
O783   C787    1.298   .     A
O783   Cu795   1.967   .     S
O784   C788    1.298   .     A
O784   Cu796   1.967   .     S
O785   Cu796   1.975   .     S
O785   C787    1.294   .     A
O786   C788    1.294   .     A
O786   Cu795   1.975   .     S
C787   C808    1.456   .     S
C788   C807    1.456   .     S
O789   C793    1.283   .     A
O789   Cu795   1.970   .     S
O790   C794    1.283   .     A
O790   Cu796   1.970   .     S
O791   Cu796   1.976   .     S
O791   C793    1.301   .     A
O792   C794    1.301   .     A
O792   Cu795   1.976   .     S
C793   C799    1.443   .     S
C794   C800    1.443   .     S
Cu795  Cu796   2.692   .     S
Cu795  N797    2.023   .     S
Cu796  N798    2.023   .     S
N797   C810    1.384   .     A
N797   C811    1.356   .     A
N798   C809    1.384   .     A
N798   C812    1.356   .     A
C800   C707    1.362   1_655 S
C800   C725    1.452   1_655 S
C801   C808    1.413   .     A
C801   C819    1.446   .     S
C802   C807    1.413   .     A
C802   C821    1.446   .     S
C802   C528    1.385   1_565 S
C803   H805    1.085   .     S
C803   C807    1.401   .     A
C803   C525    1.385   1_565 S
C804   C808    1.401   .     A
C804   H806    1.085   .     S
C809   N823    1.427   .     S
C810   N826    1.427   .     S
C810   C1226   1.416   .     S
C811   H813    1.082   .     S
C811   C1223   1.416   .     S
C812   H814    1.082   .     S
C815   N816    1.157   .     T
C815   C707    1.452   1_655 S
C817   N818    1.157   .     T
C819   N820    1.157   .     T
C821   N822    1.157   .     T
N823   O825    1.299   .     A
N823   O824    1.301   .     A
N826   O828    1.299   .     A
N826   O827    1.301   .     A
O829   C833    1.298   .     A
O829   Cu841   1.967   .     S
O830   C834    1.298   .     A
O830   Cu842   1.967   .     S
O831   Cu842   1.975   .     S
O831   C833    1.294   .     A
O832   C834    1.294   .     A
O832   Cu841   1.975   .     S
C833   C854    1.456   .     S
C834   C853    1.456   .     S
O835   C839    1.283   .     A
O835   Cu841   1.970   .     S
O836   C840    1.283   .     A
O836   Cu842   1.970   .     S
O837   Cu842   1.976   .     S
O837   C839    1.301   .     A
O838   C840    1.301   .     A
O838   Cu841   1.976   .     S
C839   C845    1.443   .     S
C840   C846    1.443   .     S
Cu841  Cu842   2.692   .     S
Cu841  N843    2.023   .     S
Cu842  N844    2.023   .     S
N843   C856    1.384   .     A
N843   C857    1.356   .     A
N844   C855    1.384   .     A
N844   C858    1.356   .     A
C845   C938    1.362   1_455 S
C845   C953    1.452   1_455 S
C846   C891    1.362   .     S
C846   C909    1.452   .     S
C847   C854    1.413   .     A
C847   C865    1.446   .     S
C847   C1125   1.385   1_545 S
C848   C853    1.413   .     A
C848   C867    1.446   .     S
C848   C988    1.385   .     S
C849   H851    1.085   .     S
C849   C853    1.401   .     A
C849   C985    1.385   .     S
C850   C854    1.401   .     A
C850   H852    1.085   .     S
C850   C1124   1.385   1_545 S
C855   N869    1.427   .     S
C856   N872    1.427   .     S
C856   C30     1.416   1_556 S
C857   H859    1.082   .     S
C857   C27     1.416   1_556 S
C858   H860    1.082   .     S
C861   N862    1.157   .     T
C861   C891    1.452   .     S
C863   N864    1.157   .     T
C863   C938    1.452   1_455 S
C865   N866    1.157   .     T
C867   N868    1.157   .     T
N869   O871    1.299   .     A
N869   O870    1.301   .     A
N872   O874    1.299   .     A
N872   O873    1.301   .     A
O875   C879    1.298   .     A
O875   Cu887   1.967   .     S
O876   C880    1.298   .     A
O876   Cu888   1.967   .     S
O877   Cu888   1.975   .     S
O877   C879    1.294   .     A
O878   C880    1.294   .     A
O878   Cu887   1.975   .     S
C879   C900    1.456   .     S
C880   C899    1.456   .     S
O881   C885    1.283   .     A
O881   Cu887   1.970   .     S
O882   C886    1.283   .     A
O882   Cu888   1.970   .     S
O883   Cu888   1.976   .     S
O883   C885    1.301   .     A
O884   C886    1.301   .     A
O884   Cu887   1.976   .     S
C885   C891    1.443   .     S
C886   C892    1.443   .     S
Cu887  Cu888   2.692   .     S
Cu887  N889    2.023   .     S
Cu888  N890    2.023   .     S
N889   C902    1.384   .     A
N889   C903    1.356   .     A
N890   C901    1.384   .     A
N890   C904    1.356   .     A
C892   C937    1.362   .     S
C892   C955    1.452   .     S
C893   C900    1.413   .     A
C893   C911    1.446   .     S
C893   C1171   1.385   1_545 S
C894   C899    1.413   .     A
C894   C913    1.446   .     S
C894   C1034   1.385   .     S
C895   H897    1.085   .     S
C895   C899    1.401   .     A
C895   C1031   1.385   .     S
C896   C900    1.401   .     A
C896   H898    1.085   .     S
C896   C1170   1.385   1_545 S
C901   N915    1.427   .     S
C902   N918    1.427   .     S
C902   C76     1.416   1_556 S
C903   H905    1.082   .     S
C903   C73     1.416   1_556 S
C904   H906    1.082   .     S
C907   N908    1.157   .     T
C907   C937    1.452   .     S
C909   N910    1.157   .     T
C911   N912    1.157   .     T
C913   N914    1.157   .     T
N915   O917    1.299   .     A
N915   O916    1.301   .     A
N918   O920    1.299   .     A
N918   O919    1.301   .     A
O921   C925    1.298   .     A
O921   Cu933   1.967   .     S
O922   C926    1.298   .     A
O922   Cu934   1.967   .     S
O923   Cu934   1.975   .     S
O923   C925    1.294   .     A
O924   C926    1.294   .     A
O924   Cu933   1.975   .     S
C925   C946    1.456   .     S
C926   C945    1.456   .     S
O927   C931    1.283   .     A
O927   Cu933   1.970   .     S
O928   C932    1.283   .     A
O928   Cu934   1.970   .     S
O929   Cu934   1.976   .     S
O929   C931    1.301   .     A
O930   C932    1.301   .     A
O930   Cu933   1.976   .     S
C931   C937    1.443   .     S
C932   C938    1.443   .     S
Cu933  Cu934   2.692   .     S
Cu933  N935    2.023   .     S
Cu934  N936    2.023   .     S
N935   C948    1.384   .     A
N935   C949    1.356   .     A
N936   C947    1.384   .     A
N936   C950    1.356   .     A
C938   C845    1.362   1_655 S
C938   C863    1.452   1_655 S
C939   C946    1.413   .     A
C939   C957    1.446   .     S
C939   C1217   1.385   1_545 S
C940   C945    1.413   .     A
C940   C959    1.446   .     S
C940   C1080   1.385   .     S
C941   H943    1.085   .     S
C941   C945    1.401   .     A
C941   C1077   1.385   .     S
C942   C946    1.401   .     A
C942   H944    1.085   .     S
C942   C1216   1.385   1_545 S
C947   N961    1.427   .     S
C948   N964    1.427   .     S
C948   C122    1.416   1_556 S
C949   H951    1.082   .     S
C949   C119    1.416   1_556 S
C950   H952    1.082   .     S
C953   N954    1.157   .     T
C953   C845    1.452   1_655 S
C955   N956    1.157   .     T
C957   N958    1.157   .     T
C959   N960    1.157   .     T
N961   O963    1.299   .     A
N961   O962    1.301   .     A
N964   O966    1.299   .     A
N964   O965    1.301   .     A
O967   C971    1.298   .     A
O967   Cu979   1.967   .     S
O968   C972    1.298   .     A
O968   Cu980   1.967   .     S
O969   Cu980   1.975   .     S
O969   C971    1.294   .     A
O970   C972    1.294   .     A
O970   Cu979   1.975   .     S
C971   C992    1.456   .     S
C972   C991    1.456   .     S
O973   C977    1.283   .     A
O973   Cu979   1.970   .     S
O974   C978    1.283   .     A
O974   Cu980   1.970   .     S
O975   Cu980   1.976   .     S
O975   C977    1.301   .     A
O976   C978    1.301   .     A
O976   Cu979   1.976   .     S
C977   C983    1.443   .     S
C978   C984    1.443   .     S
Cu979  Cu980   2.692   .     S
Cu979  N981    2.023   .     S
Cu980  N982    2.023   .     S
N981   C994    1.384   .     A
N981   C995    1.356   .     A
N982   C993    1.384   .     A
N982   C996    1.356   .     A
C983   C1076   1.362   1_455 S
C983   C1091   1.452   1_455 S
C984   C1029   1.362   .     S
C984   C1047   1.452   .     S
C985   C992    1.413   .     A
C985   C1003   1.446   .     S
C986   C991    1.413   .     A
C986   C1005   1.446   .     S
C986   C1126   1.385   .     S
C987   H989    1.085   .     S
C987   C991    1.401   .     A
C987   C1123   1.385   .     S
C988   C992    1.401   .     A
C988   H990    1.085   .     S
C993   N1007   1.427   .     S
C994   N1010   1.427   .     S
C994   C168    1.416   1_556 S
C995   H997    1.082   .     S
C995   C165    1.416   1_556 S
C996   H998    1.082   .     S
C999   N1000   1.157   .     T
C999   C1029   1.452   .     S
C1001  N1002   1.157   .     T
C1001  C1076   1.452   1_455 S
C1003  N1004   1.157   .     T
C1005  N1006   1.157   .     T
N1007  O1009   1.299   .     A
N1007  O1008   1.301   .     A
N1010  O1012   1.299   .     A
N1010  O1011   1.301   .     A
O1013  C1017   1.298   .     A
O1013  Cu1025  1.967   .     S
O1014  C1018   1.298   .     A
O1014  Cu1026  1.967   .     S
O1015  Cu1026  1.975   .     S
O1015  C1017   1.294   .     A
O1016  C1018   1.294   .     A
O1016  Cu1025  1.975   .     S
C1017  C1038   1.456   .     S
C1018  C1037   1.456   .     S
O1019  C1023   1.283   .     A
O1019  Cu1025  1.970   .     S
O1020  C1024   1.283   .     A
O1020  Cu1026  1.970   .     S
O1021  Cu1026  1.976   .     S
O1021  C1023   1.301   .     A
O1022  C1024   1.301   .     A
O1022  Cu1025  1.976   .     S
C1023  C1029   1.443   .     S
C1024  C1030   1.443   .     S
Cu1025 Cu1026  2.692   .     S
Cu1025 N1027   2.023   .     S
Cu1026 N1028   2.023   .     S
N1027  C1040   1.384   .     A
N1027  C1041   1.356   .     A
N1028  C1039   1.384   .     A
N1028  C1042   1.356   .     A
C1030  C1075   1.362   .     S
C1030  C1093   1.452   .     S
C1031  C1038   1.413   .     A
C1031  C1049   1.446   .     S
C1032  C1037   1.413   .     A
C1032  C1051   1.446   .     S
C1032  C1172   1.385   .     S
C1033  H1035   1.085   .     S
C1033  C1037   1.401   .     A
C1033  C1169   1.385   .     S
C1034  C1038   1.401   .     A
C1034  H1036   1.085   .     S
C1039  N1053   1.427   .     S
C1040  N1056   1.427   .     S
C1040  C214    1.416   1_556 S
C1041  H1043   1.082   .     S
C1041  C211    1.416   1_556 S
C1042  H1044   1.082   .     S
C1045  N1046   1.157   .     T
C1045  C1075   1.452   .     S
C1047  N1048   1.157   .     T
C1049  N1050   1.157   .     T
C1051  N1052   1.157   .     T
N1053  O1055   1.299   .     A
N1053  O1054   1.301   .     A
N1056  O1058   1.299   .     A
N1056  O1057   1.301   .     A
O1059  C1063   1.298   .     A
O1059  Cu1071  1.967   .     S
O1060  C1064   1.298   .     A
O1060  Cu1072  1.967   .     S
O1061  Cu1072  1.975   .     S
O1061  C1063   1.294   .     A
O1062  C1064   1.294   .     A
O1062  Cu1071  1.975   .     S
C1063  C1084   1.456   .     S
C1064  C1083   1.456   .     S
O1065  C1069   1.283   .     A
O1065  Cu1071  1.970   .     S
O1066  C1070   1.283   .     A
O1066  Cu1072  1.970   .     S
O1067  Cu1072  1.976   .     S
O1067  C1069   1.301   .     A
O1068  C1070   1.301   .     A
O1068  Cu1071  1.976   .     S
C1069  C1075   1.443   .     S
C1070  C1076   1.443   .     S
Cu1071 Cu1072  2.692   .     S
Cu1071 N1073   2.023   .     S
Cu1072 N1074   2.023   .     S
N1073  C1086   1.384   .     A
N1073  C1087   1.356   .     A
N1074  C1085   1.384   .     A
N1074  C1088   1.356   .     A
C1076  C983    1.362   1_655 S
C1076  C1001   1.452   1_655 S
C1077  C1084   1.413   .     A
C1077  C1095   1.446   .     S
C1078  C1083   1.413   .     A
C1078  C1097   1.446   .     S
C1078  C1218   1.385   .     S
C1079  H1081   1.085   .     S
C1079  C1083   1.401   .     A
C1079  C1215   1.385   .     S
C1080  C1084   1.401   .     A
C1080  H1082   1.085   .     S
C1085  N1099   1.427   .     S
C1086  N1102   1.427   .     S
C1086  C260    1.416   1_556 S
C1087  H1089   1.082   .     S
C1087  C257    1.416   1_556 S
C1088  H1090   1.082   .     S
C1091  N1092   1.157   .     T
C1091  C983    1.452   1_655 S
C1093  N1094   1.157   .     T
C1095  N1096   1.157   .     T
C1097  N1098   1.157   .     T
N1099  O1101   1.299   .     A
N1099  O1100   1.301   .     A
N1102  O1104   1.299   .     A
N1102  O1103   1.301   .     A
O1105  C1109   1.298   .     A
O1105  Cu1117  1.967   .     S
O1106  C1110   1.298   .     A
O1106  Cu1118  1.967   .     S
O1107  Cu1118  1.975   .     S
O1107  C1109   1.294   .     A
O1108  C1110   1.294   .     A
O1108  Cu1117  1.975   .     S
C1109  C1130   1.456   .     S
C1110  C1129   1.456   .     S
O1111  C1115   1.283   .     A
O1111  Cu1117  1.970   .     S
O1112  C1116   1.283   .     A
O1112  Cu1118  1.970   .     S
O1113  Cu1118  1.976   .     S
O1113  C1115   1.301   .     A
O1114  C1116   1.301   .     A
O1114  Cu1117  1.976   .     S
C1115  C1121   1.443   .     S
C1116  C1122   1.443   .     S
Cu1117 Cu1118  2.692   .     S
Cu1117 N1119   2.023   .     S
Cu1118 N1120   2.023   .     S
N1119  C1132   1.384   .     A
N1119  C1133   1.356   .     A
N1120  C1131   1.384   .     A
N1120  C1134   1.356   .     A
C1121  C1214   1.362   1_455 S
C1121  C1229   1.452   1_455 S
C1122  C1167   1.362   .     S
C1122  C1185   1.452   .     S
C1123  C1130   1.413   .     A
C1123  C1141   1.446   .     S
C1124  C1129   1.413   .     A
C1124  C1143   1.446   .     S
C1124  C850    1.385   1_565 S
C1125  H1127   1.085   .     S
C1125  C1129   1.401   .     A
C1125  C847    1.385   1_565 S
C1126  C1130   1.401   .     A
C1126  H1128   1.085   .     S
C1131  N1145   1.427   .     S
C1132  N1148   1.427   .     S
C1132  C306    1.416   1_556 S
C1133  H1135   1.082   .     S
C1133  C303    1.416   1_556 S
C1134  H1136   1.082   .     S
C1137  N1138   1.157   .     T
C1137  C1167   1.452   .     S
C1139  N1140   1.157   .     T
C1139  C1214   1.452   1_455 S
C1141  N1142   1.157   .     T
C1143  N1144   1.157   .     T
N1145  O1147   1.299   .     A
N1145  O1146   1.301   .     A
N1148  O1150   1.299   .     A
N1148  O1149   1.301   .     A
O1151  C1155   1.298   .     A
O1151  Cu1163  1.967   .     S
O1152  C1156   1.298   .     A
O1152  Cu1164  1.967   .     S
O1153  Cu1164  1.975   .     S
O1153  C1155   1.294   .     A
O1154  C1156   1.294   .     A
O1154  Cu1163  1.975   .     S
C1155  C1176   1.456   .     S
C1156  C1175   1.456   .     S
O1157  C1161   1.283   .     A
O1157  Cu1163  1.970   .     S
O1158  C1162   1.283   .     A
O1158  Cu1164  1.970   .     S
O1159  Cu1164  1.976   .     S
O1159  C1161   1.301   .     A
O1160  C1162   1.301   .     A
O1160  Cu1163  1.976   .     S
C1161  C1167   1.443   .     S
C1162  C1168   1.443   .     S
Cu1163 Cu1164  2.692   .     S
Cu1163 N1165   2.023   .     S
Cu1164 N1166   2.023   .     S
N1165  C1178   1.384   .     A
N1165  C1179   1.356   .     A
N1166  C1177   1.384   .     A
N1166  C1180   1.356   .     A
C1168  C1213   1.362   .     S
C1168  C1231   1.452   .     S
C1169  C1176   1.413   .     A
C1169  C1187   1.446   .     S
C1170  C1175   1.413   .     A
C1170  C1189   1.446   .     S
C1170  C896    1.385   1_565 S
C1171  H1173   1.085   .     S
C1171  C1175   1.401   .     A
C1171  C893    1.385   1_565 S
C1172  C1176   1.401   .     A
C1172  H1174   1.085   .     S
C1177  N1191   1.427   .     S
C1178  N1194   1.427   .     S
C1178  C352    1.416   1_556 S
C1179  H1181   1.082   .     S
C1179  C349    1.416   1_556 S
C1180  H1182   1.082   .     S
C1183  N1184   1.157   .     T
C1183  C1213   1.452   .     S
C1185  N1186   1.157   .     T
C1187  N1188   1.157   .     T
C1189  N1190   1.157   .     T
N1191  O1193   1.299   .     A
N1191  O1192   1.301   .     A
N1194  O1196   1.299   .     A
N1194  O1195   1.301   .     A
O1197  C1201   1.298   .     A
O1197  Cu1209  1.967   .     S
O1198  C1202   1.298   .     A
O1198  Cu1210  1.967   .     S
O1199  Cu1210  1.975   .     S
O1199  C1201   1.294   .     A
O1200  C1202   1.294   .     A
O1200  Cu1209  1.975   .     S
C1201  C1222   1.456   .     S
C1202  C1221   1.456   .     S
O1203  C1207   1.283   .     A
O1203  Cu1209  1.970   .     S
O1204  C1208   1.283   .     A
O1204  Cu1210  1.970   .     S
O1205  Cu1210  1.976   .     S
O1205  C1207   1.301   .     A
O1206  C1208   1.301   .     A
O1206  Cu1209  1.976   .     S
C1207  C1213   1.443   .     S
C1208  C1214   1.443   .     S
Cu1209 Cu1210  2.692   .     S
Cu1209 N1211   2.023   .     S
Cu1210 N1212   2.023   .     S
N1211  C1224   1.384   .     A
N1211  C1225   1.356   .     A
N1212  C1223   1.384   .     A
N1212  C1226   1.356   .     A
C1214  C1121   1.362   1_655 S
C1214  C1139   1.452   1_655 S
C1215  C1222   1.413   .     A
C1215  C1233   1.446   .     S
C1216  C1221   1.413   .     A
C1216  C1235   1.446   .     S
C1216  C942    1.385   1_565 S
C1217  H1219   1.085   .     S
C1217  C1221   1.401   .     A
C1217  C939    1.385   1_565 S
C1218  C1222   1.401   .     A
C1218  H1220   1.085   .     S
C1223  N1237   1.427   .     S
C1224  N1240   1.427   .     S
C1224  C398    1.416   1_556 S
C1225  H1227   1.082   .     S
C1225  C395    1.416   1_556 S
C1226  H1228   1.082   .     S
C1229  N1230   1.157   .     T
C1229  C1121   1.452   1_655 S
C1231  N1232   1.157   .     T
C1233  N1234   1.157   .     T
C1235  N1236   1.157   .     T
N1237  O1239   1.299   .     A
N1237  O1238   1.301   .     A
N1240  O1242   1.299   .     A
N1240  O1241   1.301   .     A
