data_str_m2_o10_o17_pcu_sym.11
_audit_creation_date              2020-01-03
_audit_creation_method            'Materials Studio'
_symmetry_space_group_name_H-M    'P1'
_symmetry_Int_Tables_number       1
_symmetry_cell_setting            triclinic
loop_
_symmetry_equiv_pos_as_xyz
  x,y,z
_cell_length_a                    29.8702
_cell_length_b                    26.0340
_cell_length_c                    22.8398
_cell_angle_alpha                 103.8916
_cell_angle_beta                  94.2293
_cell_angle_gamma                 94.8231
loop_
_atom_site_label
_atom_site_type_symbol
_atom_site_fract_x
_atom_site_fract_y
_atom_site_fract_z
_atom_site_U_iso_or_equiv
_atom_site_adp_type
_atom_site_occupancy
C1     C     0.24851   0.06663   0.15088   0.00000  Uiso   1.00
C2     C     0.08918   0.11933   0.14382   0.00000  Uiso   1.00
C3     C     0.38334   0.16677   0.16457   0.00000  Uiso   1.00
C4     C     0.11666   0.16656   0.16876   0.00000  Uiso   1.00
C5     C     0.40155   0.11988   0.13961   0.00000  Uiso   1.00
C6     C     0.09845   0.21345   0.19373   0.00000  Uiso   1.00
C7     C     0.44821   0.11947   0.14069   0.00000  Uiso   1.00
C8     C     0.05178   0.21386   0.19264   0.00000  Uiso   1.00
C9     C     0.47658   0.16707   0.16616   0.00000  Uiso   1.00
C10    C     0.02342   0.16626   0.16718   0.00000  Uiso   1.00
C11    C     0.45791   0.21535   0.19042   0.00000  Uiso   1.00
C12    C     0.25149   0.26671   0.18245   0.00000  Uiso   1.00
C13    C     0.04209   0.11798   0.14292   0.00000  Uiso   1.00
C14    C     0.46653   0.07185   0.11734   0.00000  Uiso   1.00
C15    C     0.03347   0.26149   0.21599   0.00000  Uiso   1.00
C16    C     0.03376   0.01743   0.09597   0.00000  Uiso   1.00
C17    C     0.00038   0.30104   0.07079   0.00000  Uiso   1.00
C18    C     0.46624   0.31590   0.23737   0.00000  Uiso   1.00
C19    C     0.49962   0.03229   0.26255   0.00000  Uiso   1.00
C20    C     0.19531   0.12325   0.31369   0.00000  Uiso   1.00
C21    C     0.18217   0.07103   0.33139   0.00000  Uiso   1.00
C22    C     0.14189   0.03849   0.28982   0.00000  Uiso   1.00
C23    C     0.01348   0.06992   0.11845   0.00000  Uiso   1.00
C24    C     0.30469   0.21008   0.01965   0.00000  Uiso   1.00
C25    C     0.31784   0.26230   0.00194   0.00000  Uiso   1.00
C26    C     0.35812   0.29483   0.04351   0.00000  Uiso   1.00
C27    C     0.48651   0.26341   0.21489   0.00000  Uiso   1.00
C28    C     0.24776   0.01023   0.14251   0.00000  Uiso   1.00
C29    C     0.25224   0.32310   0.19082   0.00000  Uiso   1.00
C30    C     0.16481   0.16684   0.16735   0.00000  Uiso   1.00
C31    C     0.33519   0.16649   0.16598   0.00000  Uiso   1.00
C32    C     0.41082   0.21400   0.18952   0.00000  Uiso   1.00
Cu33   Cu    0.25500   0.17246   0.22813   0.00000  Uiso   1.00
Cu34   Cu    0.24499   0.16087   0.10521   0.00000  Uiso   1.00
H35    H     0.39465   0.24925   0.20787   0.00000  Uiso   1.00
H36    H     0.47892   0.30533   0.03103   0.00000  Uiso   1.00
H37    H     0.01930   0.26594   0.05619   0.00000  Uiso   1.00
H38    H     0.05567   0.02134   0.05977   0.00000  Uiso   1.00
H39    H     0.05552   0.00996   0.13402   0.00000  Uiso   1.00
H40    H     0.02108   0.02800   0.30231   0.00000  Uiso   1.00
H41    H     0.02126   0.03985   0.22758   0.00000  Uiso   1.00
H42    H     0.48070   0.06738   0.27715   0.00000  Uiso   1.00
H43    H     0.44448   0.32337   0.19932   0.00000  Uiso   1.00
H44    H     0.44433   0.31198   0.27358   0.00000  Uiso   1.00
H45    H     0.11240   0.06197   0.29160   0.00000  Uiso   1.00
H46    H     0.10535   0.08408   0.12546   0.00000  Uiso   1.00
H47    H     0.15057   0.02660   0.24230   0.00000  Uiso   1.00
H48    H     0.13240   0.00190   0.30491   0.00000  Uiso   1.00
H49    H     0.21110   0.04662   0.32768   0.00000  Uiso   1.00
H50    H     0.17210   0.07848   0.04461   0.00000  Uiso   1.00
H51    H     0.16764   0.14939   0.32114   0.00000  Uiso   1.00
H52    H     0.19837   0.10923   0.26592   0.00000  Uiso   1.00
H53    H     0.34944   0.30673   0.09103   0.00000  Uiso   1.00
H54    H     0.38760   0.27135   0.04171   0.00000  Uiso   1.00
H55    H     0.36761   0.33142   0.02841   0.00000  Uiso   1.00
H56    H     0.32789   0.25485   0.28872   0.00000  Uiso   1.00
H57    H     0.37929   0.08361   0.12062   0.00000  Uiso   1.00
H58    H     0.28891   0.28671   0.00566   0.00000  Uiso   1.00
H59    H     0.30163   0.22410   0.06741   0.00000  Uiso   1.00
H60    H     0.33236   0.18394   0.01220   0.00000  Uiso   1.00
H61    H     0.12071   0.24973   0.21271   0.00000  Uiso   1.00
H62    H     0.44359   0.03626   0.09896   0.00000  Uiso   1.00
H63    H     0.05641   0.29707   0.23437   0.00000  Uiso   1.00
H64    H     0.24345   0.31884   0.09639   0.00000  Uiso   1.00
H65    H     0.25655   0.01449   0.23695   0.00000  Uiso   1.00
H66    H     0.47874   0.29349   0.10577   0.00000  Uiso   1.00
N67    N     0.23744   0.15214   0.01284   0.00000  Uiso   1.00
N68    N     0.26255   0.18119   0.32049   0.00000  Uiso   1.00
O69    O     0.25325   0.09538   0.20659   0.00000  Uiso   1.00
O70    O     0.24674   0.23796   0.12674   0.00000  Uiso   1.00
O71    O     0.24480   0.08559   0.10279   0.00000  Uiso   1.00
O72    O     0.25520   0.24774   0.23055   0.00000  Uiso   1.00
O73    O     0.18935   0.17155   0.21857   0.00000  Uiso   1.00
O74    O     0.31064   0.16179   0.11476   0.00000  Uiso   1.00
O75    O     0.18090   0.16176   0.11477   0.00000  Uiso   1.00
O76    O     0.31910   0.17157   0.21857   0.00000  Uiso   1.00
C77    C     0.74851   0.06663   0.15088   0.00000  Uiso   1.00
C78    C     0.58918   0.11933   0.14382   0.00000  Uiso   1.00
C79    C     0.88334   0.16677   0.16457   0.00000  Uiso   1.00
C80    C     0.61666   0.16656   0.16876   0.00000  Uiso   1.00
C81    C     0.90155   0.11988   0.13961   0.00000  Uiso   1.00
C82    C     0.59845   0.21345   0.19373   0.00000  Uiso   1.00
C83    C     0.94821   0.11947   0.14069   0.00000  Uiso   1.00
C84    C     0.55178   0.21386   0.19264   0.00000  Uiso   1.00
C85    C     0.97658   0.16707   0.16616   0.00000  Uiso   1.00
C86    C     0.52342   0.16626   0.16718   0.00000  Uiso   1.00
C87    C     0.95791   0.21535   0.19042   0.00000  Uiso   1.00
C88    C     0.75149   0.26671   0.18245   0.00000  Uiso   1.00
C89    C     0.54209   0.11798   0.14292   0.00000  Uiso   1.00
C90    C     0.96653   0.07185   0.11734   0.00000  Uiso   1.00
C91    C     0.53347   0.26149   0.21599   0.00000  Uiso   1.00
C92    C     0.53376   0.01743   0.09597   0.00000  Uiso   1.00
C93    C     0.50038   0.30104   0.07079   0.00000  Uiso   1.00
C94    C     0.96624   0.31590   0.23737   0.00000  Uiso   1.00
C95    C     0.99962   0.03229   0.26255   0.00000  Uiso   1.00
C96    C     0.69531   0.12325   0.31369   0.00000  Uiso   1.00
C97    C     0.68217   0.07103   0.33139   0.00000  Uiso   1.00
C98    C     0.64189   0.03849   0.28982   0.00000  Uiso   1.00
C99    C     0.51348   0.06992   0.11845   0.00000  Uiso   1.00
C100   C     0.80469   0.21008   0.01965   0.00000  Uiso   1.00
C101   C     0.81784   0.26230   0.00194   0.00000  Uiso   1.00
C102   C     0.85812   0.29483   0.04351   0.00000  Uiso   1.00
C103   C     0.98651   0.26341   0.21489   0.00000  Uiso   1.00
C104   C     0.74776   0.01023   0.14251   0.00000  Uiso   1.00
C105   C     0.75224   0.32310   0.19082   0.00000  Uiso   1.00
C106   C     0.66481   0.16684   0.16735   0.00000  Uiso   1.00
C107   C     0.83519   0.16649   0.16598   0.00000  Uiso   1.00
C108   C     0.91082   0.21400   0.18952   0.00000  Uiso   1.00
Cu109  Cu    0.75500   0.17246   0.22813   0.00000  Uiso   1.00
Cu110  Cu    0.74499   0.16087   0.10521   0.00000  Uiso   1.00
H111   H     0.89465   0.24925   0.20787   0.00000  Uiso   1.00
H112   H     0.97892   0.30533   0.03103   0.00000  Uiso   1.00
H113   H     0.51930   0.26594   0.05619   0.00000  Uiso   1.00
H114   H     0.55567   0.02134   0.05977   0.00000  Uiso   1.00
H115   H     0.55552   0.00996   0.13402   0.00000  Uiso   1.00
H116   H     0.52108   0.02800   0.30231   0.00000  Uiso   1.00
H117   H     0.52126   0.03985   0.22758   0.00000  Uiso   1.00
H118   H     0.98070   0.06738   0.27715   0.00000  Uiso   1.00
H119   H     0.94448   0.32337   0.19932   0.00000  Uiso   1.00
H120   H     0.94433   0.31198   0.27358   0.00000  Uiso   1.00
H121   H     0.61240   0.06197   0.29160   0.00000  Uiso   1.00
H122   H     0.60535   0.08408   0.12546   0.00000  Uiso   1.00
H123   H     0.65057   0.02660   0.24230   0.00000  Uiso   1.00
H124   H     0.63240   0.00190   0.30491   0.00000  Uiso   1.00
H125   H     0.71110   0.04662   0.32768   0.00000  Uiso   1.00
H126   H     0.67210   0.07848   0.04461   0.00000  Uiso   1.00
H127   H     0.66764   0.14939   0.32114   0.00000  Uiso   1.00
H128   H     0.69837   0.10923   0.26592   0.00000  Uiso   1.00
H129   H     0.84944   0.30673   0.09103   0.00000  Uiso   1.00
H130   H     0.88760   0.27135   0.04171   0.00000  Uiso   1.00
H131   H     0.86761   0.33142   0.02841   0.00000  Uiso   1.00
H132   H     0.82789   0.25485   0.28872   0.00000  Uiso   1.00
H133   H     0.87929   0.08361   0.12062   0.00000  Uiso   1.00
H134   H     0.78891   0.28671   0.00566   0.00000  Uiso   1.00
H135   H     0.80163   0.22410   0.06741   0.00000  Uiso   1.00
H136   H     0.83236   0.18394   0.01220   0.00000  Uiso   1.00
H137   H     0.62071   0.24973   0.21271   0.00000  Uiso   1.00
H138   H     0.94359   0.03626   0.09896   0.00000  Uiso   1.00
H139   H     0.55641   0.29707   0.23437   0.00000  Uiso   1.00
H140   H     0.74345   0.31884   0.09639   0.00000  Uiso   1.00
H141   H     0.75655   0.01449   0.23695   0.00000  Uiso   1.00
H142   H     0.97874   0.29349   0.10577   0.00000  Uiso   1.00
N143   N     0.73744   0.15214   0.01284   0.00000  Uiso   1.00
N144   N     0.76255   0.18119   0.32049   0.00000  Uiso   1.00
O145   O     0.75325   0.09538   0.20659   0.00000  Uiso   1.00
O146   O     0.74674   0.23796   0.12674   0.00000  Uiso   1.00
O147   O     0.74480   0.08559   0.10279   0.00000  Uiso   1.00
O148   O     0.75520   0.24774   0.23055   0.00000  Uiso   1.00
O149   O     0.68935   0.17155   0.21857   0.00000  Uiso   1.00
O150   O     0.81064   0.16179   0.11476   0.00000  Uiso   1.00
O151   O     0.68090   0.16176   0.11477   0.00000  Uiso   1.00
O152   O     0.81910   0.17157   0.21857   0.00000  Uiso   1.00
C153   C     0.24851   0.39996   0.15088   0.00000  Uiso   1.00
C154   C     0.08918   0.45267   0.14382   0.00000  Uiso   1.00
C155   C     0.38334   0.50011   0.16457   0.00000  Uiso   1.00
C156   C     0.11666   0.49989   0.16876   0.00000  Uiso   1.00
C157   C     0.40155   0.45321   0.13961   0.00000  Uiso   1.00
C158   C     0.09845   0.54679   0.19373   0.00000  Uiso   1.00
C159   C     0.44821   0.45280   0.14069   0.00000  Uiso   1.00
C160   C     0.05178   0.54719   0.19264   0.00000  Uiso   1.00
C161   C     0.47658   0.50040   0.16616   0.00000  Uiso   1.00
C162   C     0.02342   0.49959   0.16718   0.00000  Uiso   1.00
C163   C     0.45791   0.54868   0.19042   0.00000  Uiso   1.00
C164   C     0.25149   0.60004   0.18245   0.00000  Uiso   1.00
C165   C     0.04209   0.45131   0.14292   0.00000  Uiso   1.00
C166   C     0.46653   0.40518   0.11734   0.00000  Uiso   1.00
C167   C     0.03347   0.59482   0.21599   0.00000  Uiso   1.00
C168   C     0.03376   0.35076   0.09597   0.00000  Uiso   1.00
C169   C     0.00038   0.63437   0.07079   0.00000  Uiso   1.00
C170   C     0.46624   0.64924   0.23737   0.00000  Uiso   1.00
C171   C     0.49962   0.36563   0.26255   0.00000  Uiso   1.00
C172   C     0.19531   0.45658   0.31369   0.00000  Uiso   1.00
C173   C     0.18217   0.40437   0.33139   0.00000  Uiso   1.00
C174   C     0.14189   0.37183   0.28982   0.00000  Uiso   1.00
C175   C     0.01348   0.40325   0.11845   0.00000  Uiso   1.00
C176   C     0.30469   0.54342   0.01965   0.00000  Uiso   1.00
C177   C     0.31784   0.59563   0.00194   0.00000  Uiso   1.00
C178   C     0.35812   0.62816   0.04351   0.00000  Uiso   1.00
C179   C     0.48651   0.59674   0.21489   0.00000  Uiso   1.00
C180   C     0.24776   0.34356   0.14251   0.00000  Uiso   1.00
C181   C     0.25224   0.65644   0.19082   0.00000  Uiso   1.00
C182   C     0.16481   0.50018   0.16735   0.00000  Uiso   1.00
C183   C     0.33519   0.49982   0.16598   0.00000  Uiso   1.00
C184   C     0.41082   0.54733   0.18952   0.00000  Uiso   1.00
Cu185  Cu    0.25500   0.50579   0.22813   0.00000  Uiso   1.00
Cu186  Cu    0.24499   0.49421   0.10521   0.00000  Uiso   1.00
H187   H     0.39465   0.58258   0.20787   0.00000  Uiso   1.00
H188   H     0.47892   0.63867   0.03103   0.00000  Uiso   1.00
H189   H     0.01930   0.59928   0.05619   0.00000  Uiso   1.00
H190   H     0.05567   0.35468   0.05977   0.00000  Uiso   1.00
H191   H     0.05552   0.34329   0.13402   0.00000  Uiso   1.00
H192   H     0.02108   0.36133   0.30231   0.00000  Uiso   1.00
H193   H     0.02126   0.37318   0.22758   0.00000  Uiso   1.00
H194   H     0.48070   0.40072   0.27715   0.00000  Uiso   1.00
H195   H     0.44448   0.65670   0.19932   0.00000  Uiso   1.00
H196   H     0.44433   0.64532   0.27358   0.00000  Uiso   1.00
H197   H     0.11240   0.39530   0.29160   0.00000  Uiso   1.00
H198   H     0.10535   0.41742   0.12546   0.00000  Uiso   1.00
H199   H     0.15057   0.35993   0.24230   0.00000  Uiso   1.00
H200   H     0.13240   0.33524   0.30491   0.00000  Uiso   1.00
H201   H     0.21110   0.37996   0.32768   0.00000  Uiso   1.00
H202   H     0.17210   0.41181   0.04461   0.00000  Uiso   1.00
H203   H     0.16764   0.48272   0.32114   0.00000  Uiso   1.00
H204   H     0.19837   0.44257   0.26592   0.00000  Uiso   1.00
H205   H     0.34944   0.64006   0.09103   0.00000  Uiso   1.00
H206   H     0.38760   0.60468   0.04171   0.00000  Uiso   1.00
H207   H     0.36761   0.66475   0.02841   0.00000  Uiso   1.00
H208   H     0.32789   0.58818   0.28872   0.00000  Uiso   1.00
H209   H     0.37929   0.41694   0.12062   0.00000  Uiso   1.00
H210   H     0.28891   0.62005   0.00566   0.00000  Uiso   1.00
H211   H     0.30163   0.55744   0.06741   0.00000  Uiso   1.00
H212   H     0.33236   0.51727   0.01220   0.00000  Uiso   1.00
H213   H     0.12071   0.58306   0.21271   0.00000  Uiso   1.00
H214   H     0.44359   0.36960   0.09896   0.00000  Uiso   1.00
H215   H     0.05641   0.63040   0.23437   0.00000  Uiso   1.00
H216   H     0.24345   0.65218   0.09639   0.00000  Uiso   1.00
H217   H     0.25655   0.34782   0.23695   0.00000  Uiso   1.00
H218   H     0.47874   0.62682   0.10577   0.00000  Uiso   1.00
N219   N     0.23744   0.48547   0.01284   0.00000  Uiso   1.00
N220   N     0.26255   0.51453   0.32049   0.00000  Uiso   1.00
O221   O     0.25325   0.42871   0.20659   0.00000  Uiso   1.00
O222   O     0.24674   0.57129   0.12674   0.00000  Uiso   1.00
O223   O     0.24480   0.41892   0.10279   0.00000  Uiso   1.00
O224   O     0.25520   0.58108   0.23055   0.00000  Uiso   1.00
O225   O     0.18935   0.50488   0.21857   0.00000  Uiso   1.00
O226   O     0.31064   0.49512   0.11476   0.00000  Uiso   1.00
O227   O     0.18090   0.49510   0.11477   0.00000  Uiso   1.00
O228   O     0.31910   0.50490   0.21857   0.00000  Uiso   1.00
C229   C     0.74851   0.39996   0.15088   0.00000  Uiso   1.00
C230   C     0.58918   0.45267   0.14382   0.00000  Uiso   1.00
C231   C     0.88334   0.50011   0.16457   0.00000  Uiso   1.00
C232   C     0.61666   0.49989   0.16876   0.00000  Uiso   1.00
C233   C     0.90155   0.45321   0.13961   0.00000  Uiso   1.00
C234   C     0.59845   0.54679   0.19373   0.00000  Uiso   1.00
C235   C     0.94821   0.45280   0.14069   0.00000  Uiso   1.00
C236   C     0.55178   0.54719   0.19264   0.00000  Uiso   1.00
C237   C     0.97658   0.50040   0.16616   0.00000  Uiso   1.00
C238   C     0.52342   0.49959   0.16718   0.00000  Uiso   1.00
C239   C     0.95791   0.54868   0.19042   0.00000  Uiso   1.00
C240   C     0.75149   0.60004   0.18245   0.00000  Uiso   1.00
C241   C     0.54209   0.45131   0.14292   0.00000  Uiso   1.00
C242   C     0.96653   0.40518   0.11734   0.00000  Uiso   1.00
C243   C     0.53347   0.59482   0.21599   0.00000  Uiso   1.00
C244   C     0.53376   0.35076   0.09597   0.00000  Uiso   1.00
C245   C     0.50038   0.63437   0.07079   0.00000  Uiso   1.00
C246   C     0.96624   0.64924   0.23737   0.00000  Uiso   1.00
C247   C     0.99962   0.36563   0.26255   0.00000  Uiso   1.00
C248   C     0.69531   0.45658   0.31369   0.00000  Uiso   1.00
C249   C     0.68217   0.40437   0.33139   0.00000  Uiso   1.00
C250   C     0.64189   0.37183   0.28982   0.00000  Uiso   1.00
C251   C     0.51348   0.40325   0.11845   0.00000  Uiso   1.00
C252   C     0.80469   0.54342   0.01965   0.00000  Uiso   1.00
C253   C     0.81784   0.59563   0.00194   0.00000  Uiso   1.00
C254   C     0.85812   0.62816   0.04351   0.00000  Uiso   1.00
C255   C     0.98651   0.59674   0.21489   0.00000  Uiso   1.00
C256   C     0.74776   0.34356   0.14251   0.00000  Uiso   1.00
C257   C     0.75224   0.65644   0.19082   0.00000  Uiso   1.00
C258   C     0.66481   0.50018   0.16735   0.00000  Uiso   1.00
C259   C     0.83519   0.49982   0.16598   0.00000  Uiso   1.00
C260   C     0.91082   0.54733   0.18952   0.00000  Uiso   1.00
Cu261  Cu    0.75500   0.50579   0.22813   0.00000  Uiso   1.00
Cu262  Cu    0.74499   0.49421   0.10521   0.00000  Uiso   1.00
H263   H     0.89465   0.58258   0.20787   0.00000  Uiso   1.00
H264   H     0.97892   0.63867   0.03103   0.00000  Uiso   1.00
H265   H     0.51930   0.59928   0.05619   0.00000  Uiso   1.00
H266   H     0.55567   0.35468   0.05977   0.00000  Uiso   1.00
H267   H     0.55552   0.34329   0.13402   0.00000  Uiso   1.00
H268   H     0.52108   0.36133   0.30231   0.00000  Uiso   1.00
H269   H     0.52126   0.37318   0.22758   0.00000  Uiso   1.00
H270   H     0.98070   0.40072   0.27715   0.00000  Uiso   1.00
H271   H     0.94448   0.65670   0.19932   0.00000  Uiso   1.00
H272   H     0.94433   0.64532   0.27358   0.00000  Uiso   1.00
H273   H     0.61240   0.39530   0.29160   0.00000  Uiso   1.00
H274   H     0.60535   0.41742   0.12546   0.00000  Uiso   1.00
H275   H     0.65057   0.35993   0.24230   0.00000  Uiso   1.00
H276   H     0.63240   0.33524   0.30491   0.00000  Uiso   1.00
H277   H     0.71110   0.37996   0.32768   0.00000  Uiso   1.00
H278   H     0.67210   0.41181   0.04461   0.00000  Uiso   1.00
H279   H     0.66764   0.48272   0.32114   0.00000  Uiso   1.00
H280   H     0.69837   0.44257   0.26592   0.00000  Uiso   1.00
H281   H     0.84944   0.64006   0.09103   0.00000  Uiso   1.00
H282   H     0.88760   0.60468   0.04171   0.00000  Uiso   1.00
H283   H     0.86761   0.66475   0.02841   0.00000  Uiso   1.00
H284   H     0.82789   0.58818   0.28872   0.00000  Uiso   1.00
H285   H     0.87929   0.41694   0.12062   0.00000  Uiso   1.00
H286   H     0.78891   0.62005   0.00566   0.00000  Uiso   1.00
H287   H     0.80163   0.55744   0.06741   0.00000  Uiso   1.00
H288   H     0.83236   0.51727   0.01220   0.00000  Uiso   1.00
H289   H     0.62071   0.58306   0.21271   0.00000  Uiso   1.00
H290   H     0.94359   0.36960   0.09896   0.00000  Uiso   1.00
H291   H     0.55641   0.63040   0.23437   0.00000  Uiso   1.00
H292   H     0.74345   0.65218   0.09639   0.00000  Uiso   1.00
H293   H     0.75655   0.34782   0.23695   0.00000  Uiso   1.00
H294   H     0.97874   0.62682   0.10577   0.00000  Uiso   1.00
N295   N     0.73744   0.48547   0.01284   0.00000  Uiso   1.00
N296   N     0.76255   0.51453   0.32049   0.00000  Uiso   1.00
O297   O     0.75325   0.42871   0.20659   0.00000  Uiso   1.00
O298   O     0.74674   0.57129   0.12674   0.00000  Uiso   1.00
O299   O     0.74480   0.41892   0.10279   0.00000  Uiso   1.00
O300   O     0.75520   0.58108   0.23055   0.00000  Uiso   1.00
O301   O     0.68935   0.50488   0.21857   0.00000  Uiso   1.00
O302   O     0.81064   0.49512   0.11476   0.00000  Uiso   1.00
O303   O     0.68090   0.49510   0.11477   0.00000  Uiso   1.00
O304   O     0.81910   0.50490   0.21857   0.00000  Uiso   1.00
C305   C     0.24851   0.73329   0.15088   0.00000  Uiso   1.00
C306   C     0.08918   0.78600   0.14382   0.00000  Uiso   1.00
C307   C     0.38334   0.83344   0.16457   0.00000  Uiso   1.00
C308   C     0.11666   0.83323   0.16876   0.00000  Uiso   1.00
C309   C     0.40155   0.78654   0.13961   0.00000  Uiso   1.00
C310   C     0.09845   0.88012   0.19373   0.00000  Uiso   1.00
C311   C     0.44821   0.78614   0.14069   0.00000  Uiso   1.00
C312   C     0.05178   0.88053   0.19264   0.00000  Uiso   1.00
C313   C     0.47658   0.83374   0.16616   0.00000  Uiso   1.00
C314   C     0.02342   0.83293   0.16718   0.00000  Uiso   1.00
C315   C     0.45791   0.88202   0.19042   0.00000  Uiso   1.00
C316   C     0.25149   0.93337   0.18245   0.00000  Uiso   1.00
C317   C     0.04209   0.78465   0.14292   0.00000  Uiso   1.00
C318   C     0.46653   0.73851   0.11734   0.00000  Uiso   1.00
C319   C     0.03347   0.92815   0.21599   0.00000  Uiso   1.00
C320   C     0.03376   0.68409   0.09597   0.00000  Uiso   1.00
C321   C     0.00038   0.96771   0.07079   0.00000  Uiso   1.00
C322   C     0.46624   0.98257   0.23737   0.00000  Uiso   1.00
C323   C     0.49962   0.69896   0.26255   0.00000  Uiso   1.00
C324   C     0.19531   0.78991   0.31369   0.00000  Uiso   1.00
C325   C     0.18217   0.73770   0.33139   0.00000  Uiso   1.00
C326   C     0.14189   0.70516   0.28982   0.00000  Uiso   1.00
C327   C     0.01348   0.73659   0.11845   0.00000  Uiso   1.00
C328   C     0.30469   0.87675   0.01965   0.00000  Uiso   1.00
C329   C     0.31784   0.92896   0.00194   0.00000  Uiso   1.00
C330   C     0.35812   0.96150   0.04351   0.00000  Uiso   1.00
C331   C     0.48651   0.93008   0.21489   0.00000  Uiso   1.00
C332   C     0.24776   0.67690   0.14251   0.00000  Uiso   1.00
C333   C     0.25224   0.98977   0.19082   0.00000  Uiso   1.00
C334   C     0.16481   0.83351   0.16735   0.00000  Uiso   1.00
C335   C     0.33519   0.83315   0.16598   0.00000  Uiso   1.00
C336   C     0.41082   0.88067   0.18952   0.00000  Uiso   1.00
Cu337  Cu    0.25500   0.83913   0.22813   0.00000  Uiso   1.00
Cu338  Cu    0.24499   0.82754   0.10521   0.00000  Uiso   1.00
H339   H     0.39465   0.91592   0.20787   0.00000  Uiso   1.00
H340   H     0.47892   0.97200   0.03103   0.00000  Uiso   1.00
H341   H     0.01930   0.93261   0.05619   0.00000  Uiso   1.00
H342   H     0.05567   0.68801   0.05977   0.00000  Uiso   1.00
H343   H     0.05552   0.67663   0.13402   0.00000  Uiso   1.00
H344   H     0.02108   0.69467   0.30231   0.00000  Uiso   1.00
H345   H     0.02126   0.70651   0.22758   0.00000  Uiso   1.00
H346   H     0.48070   0.73405   0.27715   0.00000  Uiso   1.00
H347   H     0.44448   0.99004   0.19932   0.00000  Uiso   1.00
H348   H     0.44433   0.97865   0.27358   0.00000  Uiso   1.00
H349   H     0.11240   0.72864   0.29160   0.00000  Uiso   1.00
H350   H     0.10535   0.75075   0.12546   0.00000  Uiso   1.00
H351   H     0.15057   0.69326   0.24230   0.00000  Uiso   1.00
H352   H     0.13240   0.66857   0.30491   0.00000  Uiso   1.00
H353   H     0.21110   0.71329   0.32768   0.00000  Uiso   1.00
H354   H     0.17210   0.74515   0.04461   0.00000  Uiso   1.00
H355   H     0.16764   0.81605   0.32114   0.00000  Uiso   1.00
H356   H     0.19837   0.77590   0.26592   0.00000  Uiso   1.00
H357   H     0.34944   0.97339   0.09103   0.00000  Uiso   1.00
H358   H     0.38760   0.93801   0.04171   0.00000  Uiso   1.00
H359   H     0.36761   0.99809   0.02841   0.00000  Uiso   1.00
H360   H     0.32789   0.92152   0.28872   0.00000  Uiso   1.00
H361   H     0.37929   0.75027   0.12062   0.00000  Uiso   1.00
H362   H     0.28891   0.95338   0.00566   0.00000  Uiso   1.00
H363   H     0.30163   0.89077   0.06741   0.00000  Uiso   1.00
H364   H     0.33236   0.85061   0.01220   0.00000  Uiso   1.00
H365   H     0.12071   0.91639   0.21271   0.00000  Uiso   1.00
H366   H     0.44359   0.70293   0.09896   0.00000  Uiso   1.00
H367   H     0.05641   0.96373   0.23437   0.00000  Uiso   1.00
H368   H     0.24345   0.98551   0.09639   0.00000  Uiso   1.00
H369   H     0.25655   0.68116   0.23695   0.00000  Uiso   1.00
H370   H     0.47874   0.96015   0.10577   0.00000  Uiso   1.00
N371   N     0.23744   0.81881   0.01284   0.00000  Uiso   1.00
N372   N     0.26255   0.84786   0.32049   0.00000  Uiso   1.00
O373   O     0.25325   0.76204   0.20659   0.00000  Uiso   1.00
O374   O     0.24674   0.90462   0.12674   0.00000  Uiso   1.00
O375   O     0.24480   0.75226   0.10279   0.00000  Uiso   1.00
O376   O     0.25520   0.91441   0.23055   0.00000  Uiso   1.00
O377   O     0.18935   0.83821   0.21857   0.00000  Uiso   1.00
O378   O     0.31064   0.82845   0.11476   0.00000  Uiso   1.00
O379   O     0.18090   0.82843   0.11477   0.00000  Uiso   1.00
O380   O     0.31910   0.83824   0.21857   0.00000  Uiso   1.00
C381   C     0.74851   0.73329   0.15088   0.00000  Uiso   1.00
C382   C     0.58918   0.78600   0.14382   0.00000  Uiso   1.00
C383   C     0.88334   0.83344   0.16457   0.00000  Uiso   1.00
C384   C     0.61666   0.83323   0.16876   0.00000  Uiso   1.00
C385   C     0.90155   0.78654   0.13961   0.00000  Uiso   1.00
C386   C     0.59845   0.88012   0.19373   0.00000  Uiso   1.00
C387   C     0.94821   0.78614   0.14069   0.00000  Uiso   1.00
C388   C     0.55178   0.88053   0.19264   0.00000  Uiso   1.00
C389   C     0.97658   0.83374   0.16616   0.00000  Uiso   1.00
C390   C     0.52342   0.83293   0.16718   0.00000  Uiso   1.00
C391   C     0.95791   0.88202   0.19042   0.00000  Uiso   1.00
C392   C     0.75149   0.93337   0.18245   0.00000  Uiso   1.00
C393   C     0.54209   0.78465   0.14292   0.00000  Uiso   1.00
C394   C     0.96653   0.73851   0.11734   0.00000  Uiso   1.00
C395   C     0.53347   0.92815   0.21599   0.00000  Uiso   1.00
C396   C     0.53376   0.68409   0.09597   0.00000  Uiso   1.00
C397   C     0.50038   0.96771   0.07079   0.00000  Uiso   1.00
C398   C     0.96624   0.98257   0.23737   0.00000  Uiso   1.00
C399   C     0.99962   0.69896   0.26255   0.00000  Uiso   1.00
C400   C     0.69531   0.78991   0.31369   0.00000  Uiso   1.00
C401   C     0.68217   0.73770   0.33139   0.00000  Uiso   1.00
C402   C     0.64189   0.70516   0.28982   0.00000  Uiso   1.00
C403   C     0.51348   0.73659   0.11845   0.00000  Uiso   1.00
C404   C     0.80469   0.87675   0.01965   0.00000  Uiso   1.00
C405   C     0.81784   0.92896   0.00194   0.00000  Uiso   1.00
C406   C     0.85812   0.96150   0.04351   0.00000  Uiso   1.00
C407   C     0.98651   0.93008   0.21489   0.00000  Uiso   1.00
C408   C     0.74776   0.67690   0.14251   0.00000  Uiso   1.00
C409   C     0.75224   0.98977   0.19082   0.00000  Uiso   1.00
C410   C     0.66481   0.83351   0.16735   0.00000  Uiso   1.00
C411   C     0.83519   0.83315   0.16598   0.00000  Uiso   1.00
C412   C     0.91082   0.88067   0.18952   0.00000  Uiso   1.00
Cu413  Cu    0.75500   0.83913   0.22813   0.00000  Uiso   1.00
Cu414  Cu    0.74499   0.82754   0.10521   0.00000  Uiso   1.00
H415   H     0.89465   0.91592   0.20787   0.00000  Uiso   1.00
H416   H     0.97892   0.97200   0.03103   0.00000  Uiso   1.00
H417   H     0.51930   0.93261   0.05619   0.00000  Uiso   1.00
H418   H     0.55567   0.68801   0.05977   0.00000  Uiso   1.00
H419   H     0.55552   0.67663   0.13402   0.00000  Uiso   1.00
H420   H     0.52108   0.69467   0.30231   0.00000  Uiso   1.00
H421   H     0.52126   0.70651   0.22758   0.00000  Uiso   1.00
H422   H     0.98070   0.73405   0.27715   0.00000  Uiso   1.00
H423   H     0.94448   0.99004   0.19932   0.00000  Uiso   1.00
H424   H     0.94433   0.97865   0.27358   0.00000  Uiso   1.00
H425   H     0.61240   0.72864   0.29160   0.00000  Uiso   1.00
H426   H     0.60535   0.75075   0.12546   0.00000  Uiso   1.00
H427   H     0.65057   0.69326   0.24230   0.00000  Uiso   1.00
H428   H     0.63240   0.66857   0.30491   0.00000  Uiso   1.00
H429   H     0.71110   0.71329   0.32768   0.00000  Uiso   1.00
H430   H     0.67210   0.74515   0.04461   0.00000  Uiso   1.00
H431   H     0.66764   0.81605   0.32114   0.00000  Uiso   1.00
H432   H     0.69837   0.77590   0.26592   0.00000  Uiso   1.00
H433   H     0.84944   0.97339   0.09103   0.00000  Uiso   1.00
H434   H     0.88760   0.93801   0.04171   0.00000  Uiso   1.00
H435   H     0.86761   0.99809   0.02841   0.00000  Uiso   1.00
H436   H     0.82789   0.92152   0.28872   0.00000  Uiso   1.00
H437   H     0.87929   0.75027   0.12062   0.00000  Uiso   1.00
H438   H     0.78891   0.95338   0.00566   0.00000  Uiso   1.00
H439   H     0.80163   0.89077   0.06741   0.00000  Uiso   1.00
H440   H     0.83236   0.85061   0.01220   0.00000  Uiso   1.00
H441   H     0.62071   0.91639   0.21271   0.00000  Uiso   1.00
H442   H     0.94359   0.70293   0.09896   0.00000  Uiso   1.00
H443   H     0.55641   0.96373   0.23437   0.00000  Uiso   1.00
H444   H     0.74345   0.98551   0.09639   0.00000  Uiso   1.00
H445   H     0.75655   0.68116   0.23695   0.00000  Uiso   1.00
H446   H     0.97874   0.96015   0.10577   0.00000  Uiso   1.00
N447   N     0.73744   0.81881   0.01284   0.00000  Uiso   1.00
N448   N     0.76255   0.84786   0.32049   0.00000  Uiso   1.00
O449   O     0.75325   0.76204   0.20659   0.00000  Uiso   1.00
O450   O     0.74674   0.90462   0.12674   0.00000  Uiso   1.00
O451   O     0.74480   0.75226   0.10279   0.00000  Uiso   1.00
O452   O     0.75520   0.91441   0.23055   0.00000  Uiso   1.00
O453   O     0.68935   0.83821   0.21857   0.00000  Uiso   1.00
O454   O     0.81064   0.82845   0.11476   0.00000  Uiso   1.00
O455   O     0.68090   0.82843   0.11477   0.00000  Uiso   1.00
O456   O     0.81910   0.83824   0.21857   0.00000  Uiso   1.00
C457   C     0.24851   0.06663   0.48421   0.00000  Uiso   1.00
C458   C     0.08918   0.11933   0.47715   0.00000  Uiso   1.00
C459   C     0.38334   0.16677   0.49791   0.00000  Uiso   1.00
C460   C     0.11666   0.16656   0.50209   0.00000  Uiso   1.00
C461   C     0.40155   0.11988   0.47294   0.00000  Uiso   1.00
C462   C     0.09845   0.21345   0.52706   0.00000  Uiso   1.00
C463   C     0.44821   0.11947   0.47403   0.00000  Uiso   1.00
C464   C     0.05178   0.21386   0.52597   0.00000  Uiso   1.00
C465   C     0.47658   0.16707   0.49949   0.00000  Uiso   1.00
C466   C     0.02342   0.16626   0.50051   0.00000  Uiso   1.00
C467   C     0.45791   0.21535   0.52375   0.00000  Uiso   1.00
C468   C     0.25149   0.26671   0.51579   0.00000  Uiso   1.00
C469   C     0.04209   0.11798   0.47625   0.00000  Uiso   1.00
C470   C     0.46653   0.07185   0.45068   0.00000  Uiso   1.00
C471   C     0.03347   0.26149   0.54933   0.00000  Uiso   1.00
C472   C     0.03376   0.01743   0.42930   0.00000  Uiso   1.00
C473   C     0.00038   0.30104   0.40412   0.00000  Uiso   1.00
C474   C     0.46624   0.31590   0.57071   0.00000  Uiso   1.00
C475   C     0.49962   0.03229   0.59588   0.00000  Uiso   1.00
C476   C     0.19531   0.12325   0.64702   0.00000  Uiso   1.00
C477   C     0.18217   0.07103   0.66472   0.00000  Uiso   1.00
C478   C     0.14189   0.03849   0.62315   0.00000  Uiso   1.00
C479   C     0.01348   0.06992   0.45178   0.00000  Uiso   1.00
C480   C     0.30469   0.21008   0.35298   0.00000  Uiso   1.00
C481   C     0.31784   0.26230   0.33528   0.00000  Uiso   1.00
C482   C     0.35812   0.29483   0.37684   0.00000  Uiso   1.00
C483   C     0.48651   0.26341   0.54822   0.00000  Uiso   1.00
C484   C     0.24776   0.01023   0.47585   0.00000  Uiso   1.00
C485   C     0.25224   0.32310   0.52415   0.00000  Uiso   1.00
C486   C     0.16481   0.16684   0.50068   0.00000  Uiso   1.00
C487   C     0.33519   0.16649   0.49932   0.00000  Uiso   1.00
C488   C     0.41082   0.21400   0.52285   0.00000  Uiso   1.00
Cu489  Cu    0.25500   0.17246   0.56146   0.00000  Uiso   1.00
Cu490  Cu    0.24499   0.16087   0.43854   0.00000  Uiso   1.00
H491   H     0.39465   0.24925   0.54120   0.00000  Uiso   1.00
H492   H     0.47892   0.30533   0.36436   0.00000  Uiso   1.00
H493   H     0.01930   0.26594   0.38953   0.00000  Uiso   1.00
H494   H     0.05567   0.02134   0.39310   0.00000  Uiso   1.00
H495   H     0.05552   0.00996   0.46736   0.00000  Uiso   1.00
H496   H     0.02108   0.02800   0.63564   0.00000  Uiso   1.00
H497   H     0.02126   0.03985   0.56091   0.00000  Uiso   1.00
H498   H     0.48070   0.06738   0.61048   0.00000  Uiso   1.00
H499   H     0.44448   0.32337   0.53265   0.00000  Uiso   1.00
H500   H     0.44433   0.31198   0.60691   0.00000  Uiso   1.00
H501   H     0.11240   0.06197   0.62494   0.00000  Uiso   1.00
H502   H     0.10535   0.08408   0.45880   0.00000  Uiso   1.00
H503   H     0.15057   0.02660   0.57563   0.00000  Uiso   1.00
H504   H     0.13240   0.00190   0.63825   0.00000  Uiso   1.00
H505   H     0.21110   0.04662   0.66102   0.00000  Uiso   1.00
H506   H     0.17210   0.07848   0.37794   0.00000  Uiso   1.00
H507   H     0.16764   0.14939   0.65447   0.00000  Uiso   1.00
H508   H     0.19837   0.10923   0.59925   0.00000  Uiso   1.00
H509   H     0.34944   0.30673   0.42436   0.00000  Uiso   1.00
H510   H     0.38760   0.27135   0.37505   0.00000  Uiso   1.00
H511   H     0.36761   0.33142   0.36174   0.00000  Uiso   1.00
H512   H     0.32789   0.25485   0.62205   0.00000  Uiso   1.00
H513   H     0.37929   0.08361   0.45396   0.00000  Uiso   1.00
H514   H     0.28891   0.28671   0.33899   0.00000  Uiso   1.00
H515   H     0.30163   0.22410   0.40075   0.00000  Uiso   1.00
H516   H     0.33236   0.18394   0.34553   0.00000  Uiso   1.00
H517   H     0.12071   0.24973   0.54604   0.00000  Uiso   1.00
H518   H     0.44359   0.03626   0.43229   0.00000  Uiso   1.00
H519   H     0.05641   0.29707   0.56771   0.00000  Uiso   1.00
H520   H     0.24345   0.31884   0.42972   0.00000  Uiso   1.00
H521   H     0.25655   0.01449   0.57028   0.00000  Uiso   1.00
H522   H     0.47874   0.29349   0.43910   0.00000  Uiso   1.00
N523   N     0.23744   0.15214   0.34617   0.00000  Uiso   1.00
N524   N     0.26255   0.18119   0.65383   0.00000  Uiso   1.00
O525   O     0.25325   0.09538   0.53992   0.00000  Uiso   1.00
O526   O     0.24674   0.23796   0.46008   0.00000  Uiso   1.00
O527   O     0.24480   0.08559   0.43612   0.00000  Uiso   1.00
O528   O     0.25520   0.24774   0.56388   0.00000  Uiso   1.00
O529   O     0.18935   0.17155   0.55191   0.00000  Uiso   1.00
O530   O     0.31064   0.16179   0.44809   0.00000  Uiso   1.00
O531   O     0.18090   0.16176   0.44810   0.00000  Uiso   1.00
O532   O     0.31910   0.17157   0.55190   0.00000  Uiso   1.00
C533   C     0.74851   0.06663   0.48421   0.00000  Uiso   1.00
C534   C     0.58918   0.11933   0.47715   0.00000  Uiso   1.00
C535   C     0.88334   0.16677   0.49791   0.00000  Uiso   1.00
C536   C     0.61666   0.16656   0.50209   0.00000  Uiso   1.00
C537   C     0.90155   0.11988   0.47294   0.00000  Uiso   1.00
C538   C     0.59845   0.21345   0.52706   0.00000  Uiso   1.00
C539   C     0.94821   0.11947   0.47403   0.00000  Uiso   1.00
C540   C     0.55178   0.21386   0.52597   0.00000  Uiso   1.00
C541   C     0.97658   0.16707   0.49949   0.00000  Uiso   1.00
C542   C     0.52342   0.16626   0.50051   0.00000  Uiso   1.00
C543   C     0.95791   0.21535   0.52375   0.00000  Uiso   1.00
C544   C     0.75149   0.26671   0.51579   0.00000  Uiso   1.00
C545   C     0.54209   0.11798   0.47625   0.00000  Uiso   1.00
C546   C     0.96653   0.07185   0.45068   0.00000  Uiso   1.00
C547   C     0.53347   0.26149   0.54933   0.00000  Uiso   1.00
C548   C     0.53376   0.01743   0.42930   0.00000  Uiso   1.00
C549   C     0.50038   0.30104   0.40412   0.00000  Uiso   1.00
C550   C     0.96624   0.31590   0.57071   0.00000  Uiso   1.00
C551   C     0.99962   0.03229   0.59588   0.00000  Uiso   1.00
C552   C     0.69531   0.12325   0.64702   0.00000  Uiso   1.00
C553   C     0.68217   0.07103   0.66472   0.00000  Uiso   1.00
C554   C     0.64189   0.03849   0.62315   0.00000  Uiso   1.00
C555   C     0.51348   0.06992   0.45178   0.00000  Uiso   1.00
C556   C     0.80469   0.21008   0.35298   0.00000  Uiso   1.00
C557   C     0.81784   0.26230   0.33528   0.00000  Uiso   1.00
C558   C     0.85812   0.29483   0.37684   0.00000  Uiso   1.00
C559   C     0.98651   0.26341   0.54822   0.00000  Uiso   1.00
C560   C     0.74776   0.01023   0.47585   0.00000  Uiso   1.00
C561   C     0.75224   0.32310   0.52415   0.00000  Uiso   1.00
C562   C     0.66481   0.16684   0.50068   0.00000  Uiso   1.00
C563   C     0.83519   0.16649   0.49932   0.00000  Uiso   1.00
C564   C     0.91082   0.21400   0.52285   0.00000  Uiso   1.00
Cu565  Cu    0.75500   0.17246   0.56146   0.00000  Uiso   1.00
Cu566  Cu    0.74499   0.16087   0.43854   0.00000  Uiso   1.00
H567   H     0.89465   0.24925   0.54120   0.00000  Uiso   1.00
H568   H     0.97892   0.30533   0.36436   0.00000  Uiso   1.00
H569   H     0.51930   0.26594   0.38953   0.00000  Uiso   1.00
H570   H     0.55567   0.02134   0.39310   0.00000  Uiso   1.00
H571   H     0.55552   0.00996   0.46736   0.00000  Uiso   1.00
H572   H     0.52108   0.02800   0.63564   0.00000  Uiso   1.00
H573   H     0.52126   0.03985   0.56091   0.00000  Uiso   1.00
H574   H     0.98070   0.06738   0.61048   0.00000  Uiso   1.00
H575   H     0.94448   0.32337   0.53265   0.00000  Uiso   1.00
H576   H     0.94433   0.31198   0.60691   0.00000  Uiso   1.00
H577   H     0.61240   0.06197   0.62494   0.00000  Uiso   1.00
H578   H     0.60535   0.08408   0.45880   0.00000  Uiso   1.00
H579   H     0.65057   0.02660   0.57563   0.00000  Uiso   1.00
H580   H     0.63240   0.00190   0.63825   0.00000  Uiso   1.00
H581   H     0.71110   0.04662   0.66102   0.00000  Uiso   1.00
H582   H     0.67210   0.07848   0.37794   0.00000  Uiso   1.00
H583   H     0.66764   0.14939   0.65447   0.00000  Uiso   1.00
H584   H     0.69837   0.10923   0.59925   0.00000  Uiso   1.00
H585   H     0.84944   0.30673   0.42436   0.00000  Uiso   1.00
H586   H     0.88760   0.27135   0.37505   0.00000  Uiso   1.00
H587   H     0.86761   0.33142   0.36174   0.00000  Uiso   1.00
H588   H     0.82789   0.25485   0.62205   0.00000  Uiso   1.00
H589   H     0.87929   0.08361   0.45396   0.00000  Uiso   1.00
H590   H     0.78891   0.28671   0.33899   0.00000  Uiso   1.00
H591   H     0.80163   0.22410   0.40075   0.00000  Uiso   1.00
H592   H     0.83236   0.18394   0.34553   0.00000  Uiso   1.00
H593   H     0.62071   0.24973   0.54604   0.00000  Uiso   1.00
H594   H     0.94359   0.03626   0.43229   0.00000  Uiso   1.00
H595   H     0.55641   0.29707   0.56771   0.00000  Uiso   1.00
H596   H     0.74345   0.31884   0.42972   0.00000  Uiso   1.00
H597   H     0.75655   0.01449   0.57028   0.00000  Uiso   1.00
H598   H     0.97874   0.29349   0.43910   0.00000  Uiso   1.00
N599   N     0.73744   0.15214   0.34617   0.00000  Uiso   1.00
N600   N     0.76255   0.18119   0.65383   0.00000  Uiso   1.00
O601   O     0.75325   0.09538   0.53992   0.00000  Uiso   1.00
O602   O     0.74674   0.23796   0.46008   0.00000  Uiso   1.00
O603   O     0.74480   0.08559   0.43612   0.00000  Uiso   1.00
O604   O     0.75520   0.24774   0.56388   0.00000  Uiso   1.00
O605   O     0.68935   0.17155   0.55191   0.00000  Uiso   1.00
O606   O     0.81064   0.16179   0.44809   0.00000  Uiso   1.00
O607   O     0.68090   0.16176   0.44810   0.00000  Uiso   1.00
O608   O     0.81910   0.17157   0.55190   0.00000  Uiso   1.00
C609   C     0.24851   0.39996   0.48421   0.00000  Uiso   1.00
C610   C     0.08918   0.45267   0.47715   0.00000  Uiso   1.00
C611   C     0.38334   0.50011   0.49791   0.00000  Uiso   1.00
C612   C     0.11666   0.49989   0.50209   0.00000  Uiso   1.00
C613   C     0.40155   0.45321   0.47294   0.00000  Uiso   1.00
C614   C     0.09845   0.54679   0.52706   0.00000  Uiso   1.00
C615   C     0.44821   0.45280   0.47403   0.00000  Uiso   1.00
C616   C     0.05178   0.54719   0.52597   0.00000  Uiso   1.00
C617   C     0.47658   0.50040   0.49949   0.00000  Uiso   1.00
C618   C     0.02342   0.49959   0.50051   0.00000  Uiso   1.00
C619   C     0.45791   0.54868   0.52375   0.00000  Uiso   1.00
C620   C     0.25149   0.60004   0.51579   0.00000  Uiso   1.00
C621   C     0.04209   0.45131   0.47625   0.00000  Uiso   1.00
C622   C     0.46653   0.40518   0.45068   0.00000  Uiso   1.00
C623   C     0.03347   0.59482   0.54933   0.00000  Uiso   1.00
C624   C     0.03376   0.35076   0.42930   0.00000  Uiso   1.00
C625   C     0.00038   0.63437   0.40412   0.00000  Uiso   1.00
C626   C     0.46624   0.64924   0.57071   0.00000  Uiso   1.00
C627   C     0.49962   0.36563   0.59588   0.00000  Uiso   1.00
C628   C     0.19531   0.45658   0.64702   0.00000  Uiso   1.00
C629   C     0.18217   0.40437   0.66472   0.00000  Uiso   1.00
C630   C     0.14189   0.37183   0.62315   0.00000  Uiso   1.00
C631   C     0.01348   0.40325   0.45178   0.00000  Uiso   1.00
C632   C     0.30469   0.54342   0.35298   0.00000  Uiso   1.00
C633   C     0.31784   0.59563   0.33528   0.00000  Uiso   1.00
C634   C     0.35812   0.62816   0.37684   0.00000  Uiso   1.00
C635   C     0.48651   0.59674   0.54822   0.00000  Uiso   1.00
C636   C     0.24776   0.34356   0.47585   0.00000  Uiso   1.00
C637   C     0.25224   0.65644   0.52415   0.00000  Uiso   1.00
C638   C     0.16481   0.50018   0.50068   0.00000  Uiso   1.00
C639   C     0.33519   0.49982   0.49932   0.00000  Uiso   1.00
C640   C     0.41082   0.54733   0.52285   0.00000  Uiso   1.00
Cu641  Cu    0.25500   0.50579   0.56146   0.00000  Uiso   1.00
Cu642  Cu    0.24499   0.49421   0.43854   0.00000  Uiso   1.00
H643   H     0.39465   0.58258   0.54120   0.00000  Uiso   1.00
H644   H     0.47892   0.63867   0.36436   0.00000  Uiso   1.00
H645   H     0.01930   0.59928   0.38953   0.00000  Uiso   1.00
H646   H     0.05567   0.35468   0.39310   0.00000  Uiso   1.00
H647   H     0.05552   0.34329   0.46736   0.00000  Uiso   1.00
H648   H     0.02108   0.36133   0.63564   0.00000  Uiso   1.00
H649   H     0.02126   0.37318   0.56091   0.00000  Uiso   1.00
H650   H     0.48070   0.40072   0.61048   0.00000  Uiso   1.00
H651   H     0.44448   0.65670   0.53265   0.00000  Uiso   1.00
H652   H     0.44433   0.64532   0.60691   0.00000  Uiso   1.00
H653   H     0.11240   0.39530   0.62494   0.00000  Uiso   1.00
H654   H     0.10535   0.41742   0.45880   0.00000  Uiso   1.00
H655   H     0.15057   0.35993   0.57563   0.00000  Uiso   1.00
H656   H     0.13240   0.33524   0.63825   0.00000  Uiso   1.00
H657   H     0.21110   0.37996   0.66102   0.00000  Uiso   1.00
H658   H     0.17210   0.41181   0.37794   0.00000  Uiso   1.00
H659   H     0.16764   0.48272   0.65447   0.00000  Uiso   1.00
H660   H     0.19837   0.44257   0.59925   0.00000  Uiso   1.00
H661   H     0.34944   0.64006   0.42436   0.00000  Uiso   1.00
H662   H     0.38760   0.60468   0.37505   0.00000  Uiso   1.00
H663   H     0.36761   0.66475   0.36174   0.00000  Uiso   1.00
H664   H     0.32789   0.58818   0.62205   0.00000  Uiso   1.00
H665   H     0.37929   0.41694   0.45396   0.00000  Uiso   1.00
H666   H     0.28891   0.62005   0.33899   0.00000  Uiso   1.00
H667   H     0.30163   0.55744   0.40075   0.00000  Uiso   1.00
H668   H     0.33236   0.51727   0.34553   0.00000  Uiso   1.00
H669   H     0.12071   0.58306   0.54604   0.00000  Uiso   1.00
H670   H     0.44359   0.36960   0.43229   0.00000  Uiso   1.00
H671   H     0.05641   0.63040   0.56771   0.00000  Uiso   1.00
H672   H     0.24345   0.65218   0.42972   0.00000  Uiso   1.00
H673   H     0.25655   0.34782   0.57028   0.00000  Uiso   1.00
H674   H     0.47874   0.62682   0.43910   0.00000  Uiso   1.00
N675   N     0.23744   0.48547   0.34617   0.00000  Uiso   1.00
N676   N     0.26255   0.51453   0.65383   0.00000  Uiso   1.00
O677   O     0.25325   0.42871   0.53992   0.00000  Uiso   1.00
O678   O     0.24674   0.57129   0.46008   0.00000  Uiso   1.00
O679   O     0.24480   0.41892   0.43612   0.00000  Uiso   1.00
O680   O     0.25520   0.58108   0.56388   0.00000  Uiso   1.00
O681   O     0.18935   0.50488   0.55191   0.00000  Uiso   1.00
O682   O     0.31064   0.49512   0.44809   0.00000  Uiso   1.00
O683   O     0.18090   0.49510   0.44810   0.00000  Uiso   1.00
O684   O     0.31910   0.50490   0.55190   0.00000  Uiso   1.00
C685   C     0.74851   0.39996   0.48421   0.00000  Uiso   1.00
C686   C     0.58918   0.45267   0.47715   0.00000  Uiso   1.00
C687   C     0.88334   0.50011   0.49791   0.00000  Uiso   1.00
C688   C     0.61666   0.49989   0.50209   0.00000  Uiso   1.00
C689   C     0.90155   0.45321   0.47294   0.00000  Uiso   1.00
C690   C     0.59845   0.54679   0.52706   0.00000  Uiso   1.00
C691   C     0.94821   0.45280   0.47403   0.00000  Uiso   1.00
C692   C     0.55178   0.54719   0.52597   0.00000  Uiso   1.00
C693   C     0.97658   0.50040   0.49949   0.00000  Uiso   1.00
C694   C     0.52342   0.49959   0.50051   0.00000  Uiso   1.00
C695   C     0.95791   0.54868   0.52375   0.00000  Uiso   1.00
C696   C     0.75149   0.60004   0.51579   0.00000  Uiso   1.00
C697   C     0.54209   0.45131   0.47625   0.00000  Uiso   1.00
C698   C     0.96653   0.40518   0.45068   0.00000  Uiso   1.00
C699   C     0.53347   0.59482   0.54933   0.00000  Uiso   1.00
C700   C     0.53376   0.35076   0.42930   0.00000  Uiso   1.00
C701   C     0.50038   0.63437   0.40412   0.00000  Uiso   1.00
C702   C     0.96624   0.64924   0.57071   0.00000  Uiso   1.00
C703   C     0.99962   0.36563   0.59588   0.00000  Uiso   1.00
C704   C     0.69531   0.45658   0.64702   0.00000  Uiso   1.00
C705   C     0.68217   0.40437   0.66472   0.00000  Uiso   1.00
C706   C     0.64189   0.37183   0.62315   0.00000  Uiso   1.00
C707   C     0.51348   0.40325   0.45178   0.00000  Uiso   1.00
C708   C     0.80469   0.54342   0.35298   0.00000  Uiso   1.00
C709   C     0.81784   0.59563   0.33528   0.00000  Uiso   1.00
C710   C     0.85812   0.62816   0.37684   0.00000  Uiso   1.00
C711   C     0.98651   0.59674   0.54822   0.00000  Uiso   1.00
C712   C     0.74776   0.34356   0.47585   0.00000  Uiso   1.00
C713   C     0.75224   0.65644   0.52415   0.00000  Uiso   1.00
C714   C     0.66481   0.50018   0.50068   0.00000  Uiso   1.00
C715   C     0.83519   0.49982   0.49932   0.00000  Uiso   1.00
C716   C     0.91082   0.54733   0.52285   0.00000  Uiso   1.00
Cu717  Cu    0.75500   0.50579   0.56146   0.00000  Uiso   1.00
Cu718  Cu    0.74499   0.49421   0.43854   0.00000  Uiso   1.00
H719   H     0.89465   0.58258   0.54120   0.00000  Uiso   1.00
H720   H     0.97892   0.63867   0.36436   0.00000  Uiso   1.00
H721   H     0.51930   0.59928   0.38953   0.00000  Uiso   1.00
H722   H     0.55567   0.35468   0.39310   0.00000  Uiso   1.00
H723   H     0.55552   0.34329   0.46736   0.00000  Uiso   1.00
H724   H     0.52108   0.36133   0.63564   0.00000  Uiso   1.00
H725   H     0.52126   0.37318   0.56091   0.00000  Uiso   1.00
H726   H     0.98070   0.40072   0.61048   0.00000  Uiso   1.00
H727   H     0.94448   0.65670   0.53265   0.00000  Uiso   1.00
H728   H     0.94433   0.64532   0.60691   0.00000  Uiso   1.00
H729   H     0.61240   0.39530   0.62494   0.00000  Uiso   1.00
H730   H     0.60535   0.41742   0.45880   0.00000  Uiso   1.00
H731   H     0.65057   0.35993   0.57563   0.00000  Uiso   1.00
H732   H     0.63240   0.33524   0.63825   0.00000  Uiso   1.00
H733   H     0.71110   0.37996   0.66102   0.00000  Uiso   1.00
H734   H     0.67210   0.41181   0.37794   0.00000  Uiso   1.00
H735   H     0.66764   0.48272   0.65447   0.00000  Uiso   1.00
H736   H     0.69837   0.44257   0.59925   0.00000  Uiso   1.00
H737   H     0.84944   0.64006   0.42436   0.00000  Uiso   1.00
H738   H     0.88760   0.60468   0.37505   0.00000  Uiso   1.00
H739   H     0.86761   0.66475   0.36174   0.00000  Uiso   1.00
H740   H     0.82789   0.58818   0.62205   0.00000  Uiso   1.00
H741   H     0.87929   0.41694   0.45396   0.00000  Uiso   1.00
H742   H     0.78891   0.62005   0.33899   0.00000  Uiso   1.00
H743   H     0.80163   0.55744   0.40075   0.00000  Uiso   1.00
H744   H     0.83236   0.51727   0.34553   0.00000  Uiso   1.00
H745   H     0.62071   0.58306   0.54604   0.00000  Uiso   1.00
H746   H     0.94359   0.36960   0.43229   0.00000  Uiso   1.00
H747   H     0.55641   0.63040   0.56771   0.00000  Uiso   1.00
H748   H     0.74345   0.65218   0.42972   0.00000  Uiso   1.00
H749   H     0.75655   0.34782   0.57028   0.00000  Uiso   1.00
H750   H     0.97874   0.62682   0.43910   0.00000  Uiso   1.00
N751   N     0.73744   0.48547   0.34617   0.00000  Uiso   1.00
N752   N     0.76255   0.51453   0.65383   0.00000  Uiso   1.00
O753   O     0.75325   0.42871   0.53992   0.00000  Uiso   1.00
O754   O     0.74674   0.57129   0.46008   0.00000  Uiso   1.00
O755   O     0.74480   0.41892   0.43612   0.00000  Uiso   1.00
O756   O     0.75520   0.58108   0.56388   0.00000  Uiso   1.00
O757   O     0.68935   0.50488   0.55191   0.00000  Uiso   1.00
O758   O     0.81064   0.49512   0.44809   0.00000  Uiso   1.00
O759   O     0.68090   0.49510   0.44810   0.00000  Uiso   1.00
O760   O     0.81910   0.50490   0.55190   0.00000  Uiso   1.00
C761   C     0.24851   0.73329   0.48421   0.00000  Uiso   1.00
C762   C     0.08918   0.78600   0.47715   0.00000  Uiso   1.00
C763   C     0.38334   0.83344   0.49791   0.00000  Uiso   1.00
C764   C     0.11666   0.83323   0.50209   0.00000  Uiso   1.00
C765   C     0.40155   0.78654   0.47294   0.00000  Uiso   1.00
C766   C     0.09845   0.88012   0.52706   0.00000  Uiso   1.00
C767   C     0.44821   0.78614   0.47403   0.00000  Uiso   1.00
C768   C     0.05178   0.88053   0.52597   0.00000  Uiso   1.00
C769   C     0.47658   0.83374   0.49949   0.00000  Uiso   1.00
C770   C     0.02342   0.83293   0.50051   0.00000  Uiso   1.00
C771   C     0.45791   0.88202   0.52375   0.00000  Uiso   1.00
C772   C     0.25149   0.93337   0.51579   0.00000  Uiso   1.00
C773   C     0.04209   0.78465   0.47625   0.00000  Uiso   1.00
C774   C     0.46653   0.73851   0.45068   0.00000  Uiso   1.00
C775   C     0.03347   0.92815   0.54933   0.00000  Uiso   1.00
C776   C     0.03376   0.68409   0.42930   0.00000  Uiso   1.00
C777   C     0.00038   0.96771   0.40412   0.00000  Uiso   1.00
C778   C     0.46624   0.98257   0.57071   0.00000  Uiso   1.00
C779   C     0.49962   0.69896   0.59588   0.00000  Uiso   1.00
C780   C     0.19531   0.78991   0.64702   0.00000  Uiso   1.00
C781   C     0.18217   0.73770   0.66472   0.00000  Uiso   1.00
C782   C     0.14189   0.70516   0.62315   0.00000  Uiso   1.00
C783   C     0.01348   0.73659   0.45178   0.00000  Uiso   1.00
C784   C     0.30469   0.87675   0.35298   0.00000  Uiso   1.00
C785   C     0.31784   0.92896   0.33528   0.00000  Uiso   1.00
C786   C     0.35812   0.96150   0.37684   0.00000  Uiso   1.00
C787   C     0.48651   0.93008   0.54822   0.00000  Uiso   1.00
C788   C     0.24776   0.67690   0.47585   0.00000  Uiso   1.00
C789   C     0.25224   0.98977   0.52415   0.00000  Uiso   1.00
C790   C     0.16481   0.83351   0.50068   0.00000  Uiso   1.00
C791   C     0.33519   0.83315   0.49932   0.00000  Uiso   1.00
C792   C     0.41082   0.88067   0.52285   0.00000  Uiso   1.00
Cu793  Cu    0.25500   0.83913   0.56146   0.00000  Uiso   1.00
Cu794  Cu    0.24499   0.82754   0.43854   0.00000  Uiso   1.00
H795   H     0.39465   0.91592   0.54120   0.00000  Uiso   1.00
H796   H     0.47892   0.97200   0.36436   0.00000  Uiso   1.00
H797   H     0.01930   0.93261   0.38953   0.00000  Uiso   1.00
H798   H     0.05567   0.68801   0.39310   0.00000  Uiso   1.00
H799   H     0.05552   0.67663   0.46736   0.00000  Uiso   1.00
H800   H     0.02108   0.69467   0.63564   0.00000  Uiso   1.00
H801   H     0.02126   0.70651   0.56091   0.00000  Uiso   1.00
H802   H     0.48070   0.73405   0.61048   0.00000  Uiso   1.00
H803   H     0.44448   0.99004   0.53265   0.00000  Uiso   1.00
H804   H     0.44433   0.97865   0.60691   0.00000  Uiso   1.00
H805   H     0.11240   0.72864   0.62494   0.00000  Uiso   1.00
H806   H     0.10535   0.75075   0.45880   0.00000  Uiso   1.00
H807   H     0.15057   0.69326   0.57563   0.00000  Uiso   1.00
H808   H     0.13240   0.66857   0.63825   0.00000  Uiso   1.00
H809   H     0.21110   0.71329   0.66102   0.00000  Uiso   1.00
H810   H     0.17210   0.74515   0.37794   0.00000  Uiso   1.00
H811   H     0.16764   0.81605   0.65447   0.00000  Uiso   1.00
H812   H     0.19837   0.77590   0.59925   0.00000  Uiso   1.00
H813   H     0.34944   0.97339   0.42436   0.00000  Uiso   1.00
H814   H     0.38760   0.93801   0.37505   0.00000  Uiso   1.00
H815   H     0.36761   0.99809   0.36174   0.00000  Uiso   1.00
H816   H     0.32789   0.92152   0.62205   0.00000  Uiso   1.00
H817   H     0.37929   0.75027   0.45396   0.00000  Uiso   1.00
H818   H     0.28891   0.95338   0.33899   0.00000  Uiso   1.00
H819   H     0.30163   0.89077   0.40075   0.00000  Uiso   1.00
H820   H     0.33236   0.85061   0.34553   0.00000  Uiso   1.00
H821   H     0.12071   0.91639   0.54604   0.00000  Uiso   1.00
H822   H     0.44359   0.70293   0.43229   0.00000  Uiso   1.00
H823   H     0.05641   0.96373   0.56771   0.00000  Uiso   1.00
H824   H     0.24345   0.98551   0.42972   0.00000  Uiso   1.00
H825   H     0.25655   0.68116   0.57028   0.00000  Uiso   1.00
H826   H     0.47874   0.96015   0.43910   0.00000  Uiso   1.00
N827   N     0.23744   0.81881   0.34617   0.00000  Uiso   1.00
N828   N     0.26255   0.84786   0.65383   0.00000  Uiso   1.00
O829   O     0.25325   0.76204   0.53992   0.00000  Uiso   1.00
O830   O     0.24674   0.90462   0.46008   0.00000  Uiso   1.00
O831   O     0.24480   0.75226   0.43612   0.00000  Uiso   1.00
O832   O     0.25520   0.91441   0.56388   0.00000  Uiso   1.00
O833   O     0.18935   0.83821   0.55191   0.00000  Uiso   1.00
O834   O     0.31064   0.82845   0.44809   0.00000  Uiso   1.00
O835   O     0.18090   0.82843   0.44810   0.00000  Uiso   1.00
O836   O     0.31910   0.83824   0.55190   0.00000  Uiso   1.00
C837   C     0.74851   0.73329   0.48421   0.00000  Uiso   1.00
C838   C     0.58918   0.78600   0.47715   0.00000  Uiso   1.00
C839   C     0.88334   0.83344   0.49791   0.00000  Uiso   1.00
C840   C     0.61666   0.83323   0.50209   0.00000  Uiso   1.00
C841   C     0.90155   0.78654   0.47294   0.00000  Uiso   1.00
C842   C     0.59845   0.88012   0.52706   0.00000  Uiso   1.00
C843   C     0.94821   0.78614   0.47403   0.00000  Uiso   1.00
C844   C     0.55178   0.88053   0.52597   0.00000  Uiso   1.00
C845   C     0.97658   0.83374   0.49949   0.00000  Uiso   1.00
C846   C     0.52342   0.83293   0.50051   0.00000  Uiso   1.00
C847   C     0.95791   0.88202   0.52375   0.00000  Uiso   1.00
C848   C     0.75149   0.93337   0.51579   0.00000  Uiso   1.00
C849   C     0.54209   0.78465   0.47625   0.00000  Uiso   1.00
C850   C     0.96653   0.73851   0.45068   0.00000  Uiso   1.00
C851   C     0.53347   0.92815   0.54933   0.00000  Uiso   1.00
C852   C     0.53376   0.68409   0.42930   0.00000  Uiso   1.00
C853   C     0.50038   0.96771   0.40412   0.00000  Uiso   1.00
C854   C     0.96624   0.98257   0.57071   0.00000  Uiso   1.00
C855   C     0.99962   0.69896   0.59588   0.00000  Uiso   1.00
C856   C     0.69531   0.78991   0.64702   0.00000  Uiso   1.00
C857   C     0.68217   0.73770   0.66472   0.00000  Uiso   1.00
C858   C     0.64189   0.70516   0.62315   0.00000  Uiso   1.00
C859   C     0.51348   0.73659   0.45178   0.00000  Uiso   1.00
C860   C     0.80469   0.87675   0.35298   0.00000  Uiso   1.00
C861   C     0.81784   0.92896   0.33528   0.00000  Uiso   1.00
C862   C     0.85812   0.96150   0.37684   0.00000  Uiso   1.00
C863   C     0.98651   0.93008   0.54822   0.00000  Uiso   1.00
C864   C     0.74776   0.67690   0.47585   0.00000  Uiso   1.00
C865   C     0.75224   0.98977   0.52415   0.00000  Uiso   1.00
C866   C     0.66481   0.83351   0.50068   0.00000  Uiso   1.00
C867   C     0.83519   0.83315   0.49932   0.00000  Uiso   1.00
C868   C     0.91082   0.88067   0.52285   0.00000  Uiso   1.00
Cu869  Cu    0.75500   0.83913   0.56146   0.00000  Uiso   1.00
Cu870  Cu    0.74499   0.82754   0.43854   0.00000  Uiso   1.00
H871   H     0.89465   0.91592   0.54120   0.00000  Uiso   1.00
H872   H     0.97892   0.97200   0.36436   0.00000  Uiso   1.00
H873   H     0.51930   0.93261   0.38953   0.00000  Uiso   1.00
H874   H     0.55567   0.68801   0.39310   0.00000  Uiso   1.00
H875   H     0.55552   0.67663   0.46736   0.00000  Uiso   1.00
H876   H     0.52108   0.69467   0.63564   0.00000  Uiso   1.00
H877   H     0.52126   0.70651   0.56091   0.00000  Uiso   1.00
H878   H     0.98070   0.73405   0.61048   0.00000  Uiso   1.00
H879   H     0.94448   0.99004   0.53265   0.00000  Uiso   1.00
H880   H     0.94433   0.97865   0.60691   0.00000  Uiso   1.00
H881   H     0.61240   0.72864   0.62494   0.00000  Uiso   1.00
H882   H     0.60535   0.75075   0.45880   0.00000  Uiso   1.00
H883   H     0.65057   0.69326   0.57563   0.00000  Uiso   1.00
H884   H     0.63240   0.66857   0.63825   0.00000  Uiso   1.00
H885   H     0.71110   0.71329   0.66102   0.00000  Uiso   1.00
H886   H     0.67210   0.74515   0.37794   0.00000  Uiso   1.00
H887   H     0.66764   0.81605   0.65447   0.00000  Uiso   1.00
H888   H     0.69837   0.77590   0.59925   0.00000  Uiso   1.00
H889   H     0.84944   0.97339   0.42436   0.00000  Uiso   1.00
H890   H     0.88760   0.93801   0.37505   0.00000  Uiso   1.00
H891   H     0.86761   0.99809   0.36174   0.00000  Uiso   1.00
H892   H     0.82789   0.92152   0.62205   0.00000  Uiso   1.00
H893   H     0.87929   0.75027   0.45396   0.00000  Uiso   1.00
H894   H     0.78891   0.95338   0.33899   0.00000  Uiso   1.00
H895   H     0.80163   0.89077   0.40075   0.00000  Uiso   1.00
H896   H     0.83236   0.85061   0.34553   0.00000  Uiso   1.00
H897   H     0.62071   0.91639   0.54604   0.00000  Uiso   1.00
H898   H     0.94359   0.70293   0.43229   0.00000  Uiso   1.00
H899   H     0.55641   0.96373   0.56771   0.00000  Uiso   1.00
H900   H     0.74345   0.98551   0.42972   0.00000  Uiso   1.00
H901   H     0.75655   0.68116   0.57028   0.00000  Uiso   1.00
H902   H     0.97874   0.96015   0.43910   0.00000  Uiso   1.00
N903   N     0.73744   0.81881   0.34617   0.00000  Uiso   1.00
N904   N     0.76255   0.84786   0.65383   0.00000  Uiso   1.00
O905   O     0.75325   0.76204   0.53992   0.00000  Uiso   1.00
O906   O     0.74674   0.90462   0.46008   0.00000  Uiso   1.00
O907   O     0.74480   0.75226   0.43612   0.00000  Uiso   1.00
O908   O     0.75520   0.91441   0.56388   0.00000  Uiso   1.00
O909   O     0.68935   0.83821   0.55191   0.00000  Uiso   1.00
O910   O     0.81064   0.82845   0.44809   0.00000  Uiso   1.00
O911   O     0.68090   0.82843   0.44810   0.00000  Uiso   1.00
O912   O     0.81910   0.83824   0.55190   0.00000  Uiso   1.00
C913   C     0.24851   0.06663   0.81755   0.00000  Uiso   1.00
C914   C     0.08918   0.11933   0.81049   0.00000  Uiso   1.00
C915   C     0.38334   0.16677   0.83124   0.00000  Uiso   1.00
C916   C     0.11666   0.16656   0.83543   0.00000  Uiso   1.00
C917   C     0.40155   0.11988   0.80627   0.00000  Uiso   1.00
C918   C     0.09845   0.21345   0.86039   0.00000  Uiso   1.00
C919   C     0.44821   0.11947   0.80736   0.00000  Uiso   1.00
C920   C     0.05178   0.21386   0.85931   0.00000  Uiso   1.00
C921   C     0.47658   0.16707   0.83283   0.00000  Uiso   1.00
C922   C     0.02342   0.16626   0.83384   0.00000  Uiso   1.00
C923   C     0.45791   0.21535   0.85708   0.00000  Uiso   1.00
C924   C     0.25149   0.26671   0.84912   0.00000  Uiso   1.00
C925   C     0.04209   0.11798   0.80959   0.00000  Uiso   1.00
C926   C     0.46653   0.07185   0.78401   0.00000  Uiso   1.00
C927   C     0.03347   0.26149   0.88266   0.00000  Uiso   1.00
C928   C     0.03376   0.01743   0.76263   0.00000  Uiso   1.00
C929   C     0.00038   0.30104   0.73746   0.00000  Uiso   1.00
C930   C     0.46624   0.31590   0.90404   0.00000  Uiso   1.00
C931   C     0.49962   0.03229   0.92922   0.00000  Uiso   1.00
C932   C     0.19531   0.12325   0.98035   0.00000  Uiso   1.00
C933   C     0.18217   0.07103   0.99806   0.00000  Uiso   1.00
C934   C     0.14189   0.03849   0.95648   0.00000  Uiso   1.00
C935   C     0.01348   0.06992   0.78512   0.00000  Uiso   1.00
C936   C     0.30469   0.21008   0.68631   0.00000  Uiso   1.00
C937   C     0.31784   0.26230   0.66861   0.00000  Uiso   1.00
C938   C     0.35812   0.29483   0.71017   0.00000  Uiso   1.00
C939   C     0.48651   0.26341   0.88155   0.00000  Uiso   1.00
C940   C     0.24776   0.01023   0.80918   0.00000  Uiso   1.00
C941   C     0.25224   0.32310   0.85749   0.00000  Uiso   1.00
C942   C     0.16481   0.16684   0.83402   0.00000  Uiso   1.00
C943   C     0.33519   0.16649   0.83265   0.00000  Uiso   1.00
C944   C     0.41082   0.21400   0.85618   0.00000  Uiso   1.00
Cu945  Cu    0.25500   0.17246   0.89479   0.00000  Uiso   1.00
Cu946  Cu    0.24499   0.16087   0.77187   0.00000  Uiso   1.00
H947   H     0.39465   0.24925   0.87454   0.00000  Uiso   1.00
H948   H     0.47892   0.30533   0.69769   0.00000  Uiso   1.00
H949   H     0.01930   0.26594   0.72286   0.00000  Uiso   1.00
H950   H     0.05567   0.02134   0.72643   0.00000  Uiso   1.00
H951   H     0.05552   0.00996   0.80069   0.00000  Uiso   1.00
H952   H     0.02108   0.02800   0.96898   0.00000  Uiso   1.00
H953   H     0.02126   0.03985   0.89424   0.00000  Uiso   1.00
H954   H     0.48070   0.06738   0.94382   0.00000  Uiso   1.00
H955   H     0.44448   0.32337   0.86598   0.00000  Uiso   1.00
H956   H     0.44433   0.31198   0.94024   0.00000  Uiso   1.00
H957   H     0.11240   0.06197   0.95827   0.00000  Uiso   1.00
H958   H     0.10535   0.08408   0.79213   0.00000  Uiso   1.00
H959   H     0.15057   0.02660   0.90896   0.00000  Uiso   1.00
H960   H     0.13240   0.00190   0.97158   0.00000  Uiso   1.00
H961   H     0.21110   0.04662   0.99435   0.00000  Uiso   1.00
H962   H     0.17210   0.07848   0.71127   0.00000  Uiso   1.00
H963   H     0.16764   0.14939   0.98780   0.00000  Uiso   1.00
H964   H     0.19837   0.10923   0.93259   0.00000  Uiso   1.00
H965   H     0.34944   0.30673   0.75769   0.00000  Uiso   1.00
H966   H     0.38760   0.27135   0.70838   0.00000  Uiso   1.00
H967   H     0.36761   0.33142   0.69508   0.00000  Uiso   1.00
H968   H     0.32789   0.25485   0.95539   0.00000  Uiso   1.00
H969   H     0.37929   0.08361   0.78729   0.00000  Uiso   1.00
H970   H     0.28891   0.28671   0.67232   0.00000  Uiso   1.00
H971   H     0.30163   0.22410   0.73408   0.00000  Uiso   1.00
H972   H     0.33236   0.18394   0.67887   0.00000  Uiso   1.00
H973   H     0.12071   0.24973   0.87938   0.00000  Uiso   1.00
H974   H     0.44359   0.03626   0.76563   0.00000  Uiso   1.00
H975   H     0.05641   0.29707   0.90104   0.00000  Uiso   1.00
H976   H     0.24345   0.31884   0.76305   0.00000  Uiso   1.00
H977   H     0.25655   0.01449   0.90361   0.00000  Uiso   1.00
H978   H     0.47874   0.29349   0.77243   0.00000  Uiso   1.00
N979   N     0.23744   0.15214   0.67951   0.00000  Uiso   1.00
N980   N     0.26255   0.18119   0.98716   0.00000  Uiso   1.00
O981   O     0.25325   0.09538   0.87326   0.00000  Uiso   1.00
O982   O     0.24674   0.23796   0.79341   0.00000  Uiso   1.00
O983   O     0.24480   0.08559   0.76945   0.00000  Uiso   1.00
O984   O     0.25520   0.24774   0.89721   0.00000  Uiso   1.00
O985   O     0.18935   0.17155   0.88524   0.00000  Uiso   1.00
O986   O     0.31064   0.16179   0.78143   0.00000  Uiso   1.00
O987   O     0.18090   0.16176   0.78143   0.00000  Uiso   1.00
O988   O     0.31910   0.17157   0.88523   0.00000  Uiso   1.00
C989   C     0.74851   0.06663   0.81755   0.00000  Uiso   1.00
C990   C     0.58918   0.11933   0.81049   0.00000  Uiso   1.00
C991   C     0.88334   0.16677   0.83124   0.00000  Uiso   1.00
C992   C     0.61666   0.16656   0.83543   0.00000  Uiso   1.00
C993   C     0.90155   0.11988   0.80627   0.00000  Uiso   1.00
C994   C     0.59845   0.21345   0.86039   0.00000  Uiso   1.00
C995   C     0.94821   0.11947   0.80736   0.00000  Uiso   1.00
C996   C     0.55178   0.21386   0.85931   0.00000  Uiso   1.00
C997   C     0.97658   0.16707   0.83283   0.00000  Uiso   1.00
C998   C     0.52342   0.16626   0.83384   0.00000  Uiso   1.00
C999   C     0.95791   0.21535   0.85708   0.00000  Uiso   1.00
C1000  C     0.75149   0.26671   0.84912   0.00000  Uiso   1.00
C1001  C     0.54209   0.11798   0.80959   0.00000  Uiso   1.00
C1002  C     0.96653   0.07185   0.78401   0.00000  Uiso   1.00
C1003  C     0.53347   0.26149   0.88266   0.00000  Uiso   1.00
C1004  C     0.53376   0.01743   0.76263   0.00000  Uiso   1.00
C1005  C     0.50038   0.30104   0.73746   0.00000  Uiso   1.00
C1006  C     0.96624   0.31590   0.90404   0.00000  Uiso   1.00
C1007  C     0.99962   0.03229   0.92922   0.00000  Uiso   1.00
C1008  C     0.69531   0.12325   0.98035   0.00000  Uiso   1.00
C1009  C     0.68217   0.07103   0.99806   0.00000  Uiso   1.00
C1010  C     0.64189   0.03849   0.95648   0.00000  Uiso   1.00
C1011  C     0.51348   0.06992   0.78512   0.00000  Uiso   1.00
C1012  C     0.80469   0.21008   0.68631   0.00000  Uiso   1.00
C1013  C     0.81784   0.26230   0.66861   0.00000  Uiso   1.00
C1014  C     0.85812   0.29483   0.71017   0.00000  Uiso   1.00
C1015  C     0.98651   0.26341   0.88155   0.00000  Uiso   1.00
C1016  C     0.74776   0.01023   0.80918   0.00000  Uiso   1.00
C1017  C     0.75224   0.32310   0.85749   0.00000  Uiso   1.00
C1018  C     0.66481   0.16684   0.83402   0.00000  Uiso   1.00
C1019  C     0.83519   0.16649   0.83265   0.00000  Uiso   1.00
C1020  C     0.91082   0.21400   0.85618   0.00000  Uiso   1.00
Cu1021 Cu    0.75500   0.17246   0.89479   0.00000  Uiso   1.00
Cu1022 Cu    0.74499   0.16087   0.77187   0.00000  Uiso   1.00
H1023  H     0.89465   0.24925   0.87454   0.00000  Uiso   1.00
H1024  H     0.97892   0.30533   0.69769   0.00000  Uiso   1.00
H1025  H     0.51930   0.26594   0.72286   0.00000  Uiso   1.00
H1026  H     0.55567   0.02134   0.72643   0.00000  Uiso   1.00
H1027  H     0.55552   0.00996   0.80069   0.00000  Uiso   1.00
H1028  H     0.52108   0.02800   0.96898   0.00000  Uiso   1.00
H1029  H     0.52126   0.03985   0.89424   0.00000  Uiso   1.00
H1030  H     0.98070   0.06738   0.94382   0.00000  Uiso   1.00
H1031  H     0.94448   0.32337   0.86598   0.00000  Uiso   1.00
H1032  H     0.94433   0.31198   0.94024   0.00000  Uiso   1.00
H1033  H     0.61240   0.06197   0.95827   0.00000  Uiso   1.00
H1034  H     0.60535   0.08408   0.79213   0.00000  Uiso   1.00
H1035  H     0.65057   0.02660   0.90896   0.00000  Uiso   1.00
H1036  H     0.63240   0.00190   0.97158   0.00000  Uiso   1.00
H1037  H     0.71110   0.04662   0.99435   0.00000  Uiso   1.00
H1038  H     0.67210   0.07848   0.71127   0.00000  Uiso   1.00
H1039  H     0.66764   0.14939   0.98780   0.00000  Uiso   1.00
H1040  H     0.69837   0.10923   0.93259   0.00000  Uiso   1.00
H1041  H     0.84944   0.30673   0.75769   0.00000  Uiso   1.00
H1042  H     0.88760   0.27135   0.70838   0.00000  Uiso   1.00
H1043  H     0.86761   0.33142   0.69508   0.00000  Uiso   1.00
H1044  H     0.82789   0.25485   0.95539   0.00000  Uiso   1.00
H1045  H     0.87929   0.08361   0.78729   0.00000  Uiso   1.00
H1046  H     0.78891   0.28671   0.67232   0.00000  Uiso   1.00
H1047  H     0.80163   0.22410   0.73408   0.00000  Uiso   1.00
H1048  H     0.83236   0.18394   0.67887   0.00000  Uiso   1.00
H1049  H     0.62071   0.24973   0.87938   0.00000  Uiso   1.00
H1050  H     0.94359   0.03626   0.76563   0.00000  Uiso   1.00
H1051  H     0.55641   0.29707   0.90104   0.00000  Uiso   1.00
H1052  H     0.74345   0.31884   0.76305   0.00000  Uiso   1.00
H1053  H     0.75655   0.01449   0.90361   0.00000  Uiso   1.00
H1054  H     0.97874   0.29349   0.77243   0.00000  Uiso   1.00
N1055  N     0.73744   0.15214   0.67951   0.00000  Uiso   1.00
N1056  N     0.76255   0.18119   0.98716   0.00000  Uiso   1.00
O1057  O     0.75325   0.09538   0.87326   0.00000  Uiso   1.00
O1058  O     0.74674   0.23796   0.79341   0.00000  Uiso   1.00
O1059  O     0.74480   0.08559   0.76945   0.00000  Uiso   1.00
O1060  O     0.75520   0.24774   0.89721   0.00000  Uiso   1.00
O1061  O     0.68935   0.17155   0.88524   0.00000  Uiso   1.00
O1062  O     0.81064   0.16179   0.78143   0.00000  Uiso   1.00
O1063  O     0.68090   0.16176   0.78143   0.00000  Uiso   1.00
O1064  O     0.81910   0.17157   0.88523   0.00000  Uiso   1.00
C1065  C     0.24851   0.39996   0.81755   0.00000  Uiso   1.00
C1066  C     0.08918   0.45267   0.81049   0.00000  Uiso   1.00
C1067  C     0.38334   0.50011   0.83124   0.00000  Uiso   1.00
C1068  C     0.11666   0.49989   0.83543   0.00000  Uiso   1.00
C1069  C     0.40155   0.45321   0.80627   0.00000  Uiso   1.00
C1070  C     0.09845   0.54679   0.86039   0.00000  Uiso   1.00
C1071  C     0.44821   0.45280   0.80736   0.00000  Uiso   1.00
C1072  C     0.05178   0.54719   0.85931   0.00000  Uiso   1.00
C1073  C     0.47658   0.50040   0.83283   0.00000  Uiso   1.00
C1074  C     0.02342   0.49959   0.83384   0.00000  Uiso   1.00
C1075  C     0.45791   0.54868   0.85708   0.00000  Uiso   1.00
C1076  C     0.25149   0.60004   0.84912   0.00000  Uiso   1.00
C1077  C     0.04209   0.45131   0.80959   0.00000  Uiso   1.00
C1078  C     0.46653   0.40518   0.78401   0.00000  Uiso   1.00
C1079  C     0.03347   0.59482   0.88266   0.00000  Uiso   1.00
C1080  C     0.03376   0.35076   0.76263   0.00000  Uiso   1.00
C1081  C     0.00038   0.63437   0.73746   0.00000  Uiso   1.00
C1082  C     0.46624   0.64924   0.90404   0.00000  Uiso   1.00
C1083  C     0.49962   0.36563   0.92922   0.00000  Uiso   1.00
C1084  C     0.19531   0.45658   0.98035   0.00000  Uiso   1.00
C1085  C     0.18217   0.40437   0.99806   0.00000  Uiso   1.00
C1086  C     0.14189   0.37183   0.95648   0.00000  Uiso   1.00
C1087  C     0.01348   0.40325   0.78512   0.00000  Uiso   1.00
C1088  C     0.30469   0.54342   0.68631   0.00000  Uiso   1.00
C1089  C     0.31784   0.59563   0.66861   0.00000  Uiso   1.00
C1090  C     0.35812   0.62816   0.71017   0.00000  Uiso   1.00
C1091  C     0.48651   0.59674   0.88155   0.00000  Uiso   1.00
C1092  C     0.24776   0.34356   0.80918   0.00000  Uiso   1.00
C1093  C     0.25224   0.65644   0.85749   0.00000  Uiso   1.00
C1094  C     0.16481   0.50018   0.83402   0.00000  Uiso   1.00
C1095  C     0.33519   0.49982   0.83265   0.00000  Uiso   1.00
C1096  C     0.41082   0.54733   0.85618   0.00000  Uiso   1.00
Cu1097 Cu    0.25500   0.50579   0.89479   0.00000  Uiso   1.00
Cu1098 Cu    0.24499   0.49421   0.77187   0.00000  Uiso   1.00
H1099  H     0.39465   0.58258   0.87454   0.00000  Uiso   1.00
H1100  H     0.47892   0.63867   0.69769   0.00000  Uiso   1.00
H1101  H     0.01930   0.59928   0.72286   0.00000  Uiso   1.00
H1102  H     0.05567   0.35468   0.72643   0.00000  Uiso   1.00
H1103  H     0.05552   0.34329   0.80069   0.00000  Uiso   1.00
H1104  H     0.02108   0.36133   0.96898   0.00000  Uiso   1.00
H1105  H     0.02126   0.37318   0.89424   0.00000  Uiso   1.00
H1106  H     0.48070   0.40072   0.94382   0.00000  Uiso   1.00
H1107  H     0.44448   0.65670   0.86598   0.00000  Uiso   1.00
H1108  H     0.44433   0.64532   0.94024   0.00000  Uiso   1.00
H1109  H     0.11240   0.39530   0.95827   0.00000  Uiso   1.00
H1110  H     0.10535   0.41742   0.79213   0.00000  Uiso   1.00
H1111  H     0.15057   0.35993   0.90896   0.00000  Uiso   1.00
H1112  H     0.13240   0.33524   0.97158   0.00000  Uiso   1.00
H1113  H     0.21110   0.37996   0.99435   0.00000  Uiso   1.00
H1114  H     0.17210   0.41181   0.71127   0.00000  Uiso   1.00
H1115  H     0.16764   0.48272   0.98780   0.00000  Uiso   1.00
H1116  H     0.19837   0.44257   0.93259   0.00000  Uiso   1.00
H1117  H     0.34944   0.64006   0.75769   0.00000  Uiso   1.00
H1118  H     0.38760   0.60468   0.70838   0.00000  Uiso   1.00
H1119  H     0.36761   0.66475   0.69508   0.00000  Uiso   1.00
H1120  H     0.32789   0.58818   0.95539   0.00000  Uiso   1.00
H1121  H     0.37929   0.41694   0.78729   0.00000  Uiso   1.00
H1122  H     0.28891   0.62005   0.67232   0.00000  Uiso   1.00
H1123  H     0.30163   0.55744   0.73408   0.00000  Uiso   1.00
H1124  H     0.33236   0.51727   0.67887   0.00000  Uiso   1.00
H1125  H     0.12071   0.58306   0.87938   0.00000  Uiso   1.00
H1126  H     0.44359   0.36960   0.76563   0.00000  Uiso   1.00
H1127  H     0.05641   0.63040   0.90104   0.00000  Uiso   1.00
H1128  H     0.24345   0.65218   0.76305   0.00000  Uiso   1.00
H1129  H     0.25655   0.34782   0.90361   0.00000  Uiso   1.00
H1130  H     0.47874   0.62682   0.77243   0.00000  Uiso   1.00
N1131  N     0.23744   0.48547   0.67951   0.00000  Uiso   1.00
N1132  N     0.26255   0.51453   0.98716   0.00000  Uiso   1.00
O1133  O     0.25325   0.42871   0.87326   0.00000  Uiso   1.00
O1134  O     0.24674   0.57129   0.79341   0.00000  Uiso   1.00
O1135  O     0.24480   0.41892   0.76945   0.00000  Uiso   1.00
O1136  O     0.25520   0.58108   0.89721   0.00000  Uiso   1.00
O1137  O     0.18935   0.50488   0.88524   0.00000  Uiso   1.00
O1138  O     0.31064   0.49512   0.78143   0.00000  Uiso   1.00
O1139  O     0.18090   0.49510   0.78143   0.00000  Uiso   1.00
O1140  O     0.31910   0.50490   0.88523   0.00000  Uiso   1.00
C1141  C     0.74851   0.39996   0.81755   0.00000  Uiso   1.00
C1142  C     0.58918   0.45267   0.81049   0.00000  Uiso   1.00
C1143  C     0.88334   0.50011   0.83124   0.00000  Uiso   1.00
C1144  C     0.61666   0.49989   0.83543   0.00000  Uiso   1.00
C1145  C     0.90155   0.45321   0.80627   0.00000  Uiso   1.00
C1146  C     0.59845   0.54679   0.86039   0.00000  Uiso   1.00
C1147  C     0.94821   0.45280   0.80736   0.00000  Uiso   1.00
C1148  C     0.55178   0.54719   0.85931   0.00000  Uiso   1.00
C1149  C     0.97658   0.50040   0.83283   0.00000  Uiso   1.00
C1150  C     0.52342   0.49959   0.83384   0.00000  Uiso   1.00
C1151  C     0.95791   0.54868   0.85708   0.00000  Uiso   1.00
C1152  C     0.75149   0.60004   0.84912   0.00000  Uiso   1.00
C1153  C     0.54209   0.45131   0.80959   0.00000  Uiso   1.00
C1154  C     0.96653   0.40518   0.78401   0.00000  Uiso   1.00
C1155  C     0.53347   0.59482   0.88266   0.00000  Uiso   1.00
C1156  C     0.53376   0.35076   0.76263   0.00000  Uiso   1.00
C1157  C     0.50038   0.63437   0.73746   0.00000  Uiso   1.00
C1158  C     0.96624   0.64924   0.90404   0.00000  Uiso   1.00
C1159  C     0.99962   0.36563   0.92922   0.00000  Uiso   1.00
C1160  C     0.69531   0.45658   0.98035   0.00000  Uiso   1.00
C1161  C     0.68217   0.40437   0.99806   0.00000  Uiso   1.00
C1162  C     0.64189   0.37183   0.95648   0.00000  Uiso   1.00
C1163  C     0.51348   0.40325   0.78512   0.00000  Uiso   1.00
C1164  C     0.80469   0.54342   0.68631   0.00000  Uiso   1.00
C1165  C     0.81784   0.59563   0.66861   0.00000  Uiso   1.00
C1166  C     0.85812   0.62816   0.71017   0.00000  Uiso   1.00
C1167  C     0.98651   0.59674   0.88155   0.00000  Uiso   1.00
C1168  C     0.74776   0.34356   0.80918   0.00000  Uiso   1.00
C1169  C     0.75224   0.65644   0.85749   0.00000  Uiso   1.00
C1170  C     0.66481   0.50018   0.83402   0.00000  Uiso   1.00
C1171  C     0.83519   0.49982   0.83265   0.00000  Uiso   1.00
C1172  C     0.91082   0.54733   0.85618   0.00000  Uiso   1.00
Cu1173 Cu    0.75500   0.50579   0.89479   0.00000  Uiso   1.00
Cu1174 Cu    0.74499   0.49421   0.77187   0.00000  Uiso   1.00
H1175  H     0.89465   0.58258   0.87454   0.00000  Uiso   1.00
H1176  H     0.97892   0.63867   0.69769   0.00000  Uiso   1.00
H1177  H     0.51930   0.59928   0.72286   0.00000  Uiso   1.00
H1178  H     0.55567   0.35468   0.72643   0.00000  Uiso   1.00
H1179  H     0.55552   0.34329   0.80069   0.00000  Uiso   1.00
H1180  H     0.52108   0.36133   0.96898   0.00000  Uiso   1.00
H1181  H     0.52126   0.37318   0.89424   0.00000  Uiso   1.00
H1182  H     0.98070   0.40072   0.94382   0.00000  Uiso   1.00
H1183  H     0.94448   0.65670   0.86598   0.00000  Uiso   1.00
H1184  H     0.94433   0.64532   0.94024   0.00000  Uiso   1.00
H1185  H     0.61240   0.39530   0.95827   0.00000  Uiso   1.00
H1186  H     0.60535   0.41742   0.79213   0.00000  Uiso   1.00
H1187  H     0.65057   0.35993   0.90896   0.00000  Uiso   1.00
H1188  H     0.63240   0.33524   0.97158   0.00000  Uiso   1.00
H1189  H     0.71110   0.37996   0.99435   0.00000  Uiso   1.00
H1190  H     0.67210   0.41181   0.71127   0.00000  Uiso   1.00
H1191  H     0.66764   0.48272   0.98780   0.00000  Uiso   1.00
H1192  H     0.69837   0.44257   0.93259   0.00000  Uiso   1.00
H1193  H     0.84944   0.64006   0.75769   0.00000  Uiso   1.00
H1194  H     0.88760   0.60468   0.70838   0.00000  Uiso   1.00
H1195  H     0.86761   0.66475   0.69508   0.00000  Uiso   1.00
H1196  H     0.82789   0.58818   0.95539   0.00000  Uiso   1.00
H1197  H     0.87929   0.41694   0.78729   0.00000  Uiso   1.00
H1198  H     0.78891   0.62005   0.67232   0.00000  Uiso   1.00
H1199  H     0.80163   0.55744   0.73408   0.00000  Uiso   1.00
H1200  H     0.83236   0.51727   0.67887   0.00000  Uiso   1.00
H1201  H     0.62071   0.58306   0.87938   0.00000  Uiso   1.00
H1202  H     0.94359   0.36960   0.76563   0.00000  Uiso   1.00
H1203  H     0.55641   0.63040   0.90104   0.00000  Uiso   1.00
H1204  H     0.74345   0.65218   0.76305   0.00000  Uiso   1.00
H1205  H     0.75655   0.34782   0.90361   0.00000  Uiso   1.00
H1206  H     0.97874   0.62682   0.77243   0.00000  Uiso   1.00
N1207  N     0.73744   0.48547   0.67951   0.00000  Uiso   1.00
N1208  N     0.76255   0.51453   0.98716   0.00000  Uiso   1.00
O1209  O     0.75325   0.42871   0.87326   0.00000  Uiso   1.00
O1210  O     0.74674   0.57129   0.79341   0.00000  Uiso   1.00
O1211  O     0.74480   0.41892   0.76945   0.00000  Uiso   1.00
O1212  O     0.75520   0.58108   0.89721   0.00000  Uiso   1.00
O1213  O     0.68935   0.50488   0.88524   0.00000  Uiso   1.00
O1214  O     0.81064   0.49512   0.78143   0.00000  Uiso   1.00
O1215  O     0.68090   0.49510   0.78143   0.00000  Uiso   1.00
O1216  O     0.81910   0.50490   0.88523   0.00000  Uiso   1.00
C1217  C     0.24851   0.73329   0.81755   0.00000  Uiso   1.00
C1218  C     0.08918   0.78600   0.81049   0.00000  Uiso   1.00
C1219  C     0.38334   0.83344   0.83124   0.00000  Uiso   1.00
C1220  C     0.11666   0.83323   0.83543   0.00000  Uiso   1.00
C1221  C     0.40155   0.78654   0.80627   0.00000  Uiso   1.00
C1222  C     0.09845   0.88012   0.86039   0.00000  Uiso   1.00
C1223  C     0.44821   0.78614   0.80736   0.00000  Uiso   1.00
C1224  C     0.05178   0.88053   0.85931   0.00000  Uiso   1.00
C1225  C     0.47658   0.83374   0.83283   0.00000  Uiso   1.00
C1226  C     0.02342   0.83293   0.83384   0.00000  Uiso   1.00
C1227  C     0.45791   0.88202   0.85708   0.00000  Uiso   1.00
C1228  C     0.25149   0.93337   0.84912   0.00000  Uiso   1.00
C1229  C     0.04209   0.78465   0.80959   0.00000  Uiso   1.00
C1230  C     0.46653   0.73851   0.78401   0.00000  Uiso   1.00
C1231  C     0.03347   0.92815   0.88266   0.00000  Uiso   1.00
C1232  C     0.03376   0.68409   0.76263   0.00000  Uiso   1.00
C1233  C     0.00038   0.96771   0.73746   0.00000  Uiso   1.00
C1234  C     0.46624   0.98257   0.90404   0.00000  Uiso   1.00
C1235  C     0.49962   0.69896   0.92922   0.00000  Uiso   1.00
C1236  C     0.19531   0.78991   0.98035   0.00000  Uiso   1.00
C1237  C     0.18217   0.73770   0.99806   0.00000  Uiso   1.00
C1238  C     0.14189   0.70516   0.95648   0.00000  Uiso   1.00
C1239  C     0.01348   0.73659   0.78512   0.00000  Uiso   1.00
C1240  C     0.30469   0.87675   0.68631   0.00000  Uiso   1.00
C1241  C     0.31784   0.92896   0.66861   0.00000  Uiso   1.00
C1242  C     0.35812   0.96150   0.71017   0.00000  Uiso   1.00
C1243  C     0.48651   0.93008   0.88155   0.00000  Uiso   1.00
C1244  C     0.24776   0.67690   0.80918   0.00000  Uiso   1.00
C1245  C     0.25224   0.98977   0.85749   0.00000  Uiso   1.00
C1246  C     0.16481   0.83351   0.83402   0.00000  Uiso   1.00
C1247  C     0.33519   0.83315   0.83265   0.00000  Uiso   1.00
C1248  C     0.41082   0.88067   0.85618   0.00000  Uiso   1.00
Cu1249 Cu    0.25500   0.83913   0.89479   0.00000  Uiso   1.00
Cu1250 Cu    0.24499   0.82754   0.77187   0.00000  Uiso   1.00
H1251  H     0.39465   0.91592   0.87454   0.00000  Uiso   1.00
H1252  H     0.47892   0.97200   0.69769   0.00000  Uiso   1.00
H1253  H     0.01930   0.93261   0.72286   0.00000  Uiso   1.00
H1254  H     0.05567   0.68801   0.72643   0.00000  Uiso   1.00
H1255  H     0.05552   0.67663   0.80069   0.00000  Uiso   1.00
H1256  H     0.02108   0.69467   0.96898   0.00000  Uiso   1.00
H1257  H     0.02126   0.70651   0.89424   0.00000  Uiso   1.00
H1258  H     0.48070   0.73405   0.94382   0.00000  Uiso   1.00
H1259  H     0.44448   0.99004   0.86598   0.00000  Uiso   1.00
H1260  H     0.44433   0.97865   0.94024   0.00000  Uiso   1.00
H1261  H     0.11240   0.72864   0.95827   0.00000  Uiso   1.00
H1262  H     0.10535   0.75075   0.79213   0.00000  Uiso   1.00
H1263  H     0.15057   0.69326   0.90896   0.00000  Uiso   1.00
H1264  H     0.13240   0.66857   0.97158   0.00000  Uiso   1.00
H1265  H     0.21110   0.71329   0.99435   0.00000  Uiso   1.00
H1266  H     0.17210   0.74515   0.71127   0.00000  Uiso   1.00
H1267  H     0.16764   0.81605   0.98780   0.00000  Uiso   1.00
H1268  H     0.19837   0.77590   0.93259   0.00000  Uiso   1.00
H1269  H     0.34944   0.97339   0.75769   0.00000  Uiso   1.00
H1270  H     0.38760   0.93801   0.70838   0.00000  Uiso   1.00
H1271  H     0.36761   0.99809   0.69508   0.00000  Uiso   1.00
H1272  H     0.32789   0.92152   0.95539   0.00000  Uiso   1.00
H1273  H     0.37929   0.75027   0.78729   0.00000  Uiso   1.00
H1274  H     0.28891   0.95338   0.67232   0.00000  Uiso   1.00
H1275  H     0.30163   0.89077   0.73408   0.00000  Uiso   1.00
H1276  H     0.33236   0.85061   0.67887   0.00000  Uiso   1.00
H1277  H     0.12071   0.91639   0.87938   0.00000  Uiso   1.00
H1278  H     0.44359   0.70293   0.76563   0.00000  Uiso   1.00
H1279  H     0.05641   0.96373   0.90104   0.00000  Uiso   1.00
H1280  H     0.24345   0.98551   0.76305   0.00000  Uiso   1.00
H1281  H     0.25655   0.68116   0.90361   0.00000  Uiso   1.00
H1282  H     0.47874   0.96015   0.77243   0.00000  Uiso   1.00
N1283  N     0.23744   0.81881   0.67951   0.00000  Uiso   1.00
N1284  N     0.26255   0.84786   0.98716   0.00000  Uiso   1.00
O1285  O     0.25325   0.76204   0.87326   0.00000  Uiso   1.00
O1286  O     0.24674   0.90462   0.79341   0.00000  Uiso   1.00
O1287  O     0.24480   0.75226   0.76945   0.00000  Uiso   1.00
O1288  O     0.25520   0.91441   0.89721   0.00000  Uiso   1.00
O1289  O     0.18935   0.83821   0.88524   0.00000  Uiso   1.00
O1290  O     0.31064   0.82845   0.78143   0.00000  Uiso   1.00
O1291  O     0.18090   0.82843   0.78143   0.00000  Uiso   1.00
O1292  O     0.31910   0.83824   0.88523   0.00000  Uiso   1.00
C1293  C     0.74851   0.73329   0.81755   0.00000  Uiso   1.00
C1294  C     0.58918   0.78600   0.81049   0.00000  Uiso   1.00
C1295  C     0.88334   0.83344   0.83124   0.00000  Uiso   1.00
C1296  C     0.61666   0.83323   0.83543   0.00000  Uiso   1.00
C1297  C     0.90155   0.78654   0.80627   0.00000  Uiso   1.00
C1298  C     0.59845   0.88012   0.86039   0.00000  Uiso   1.00
C1299  C     0.94821   0.78614   0.80736   0.00000  Uiso   1.00
C1300  C     0.55178   0.88053   0.85931   0.00000  Uiso   1.00
C1301  C     0.97658   0.83374   0.83283   0.00000  Uiso   1.00
C1302  C     0.52342   0.83293   0.83384   0.00000  Uiso   1.00
C1303  C     0.95791   0.88202   0.85708   0.00000  Uiso   1.00
C1304  C     0.75149   0.93337   0.84912   0.00000  Uiso   1.00
C1305  C     0.54209   0.78465   0.80959   0.00000  Uiso   1.00
C1306  C     0.96653   0.73851   0.78401   0.00000  Uiso   1.00
C1307  C     0.53347   0.92815   0.88266   0.00000  Uiso   1.00
C1308  C     0.53376   0.68409   0.76263   0.00000  Uiso   1.00
C1309  C     0.50038   0.96771   0.73746   0.00000  Uiso   1.00
C1310  C     0.96624   0.98257   0.90404   0.00000  Uiso   1.00
C1311  C     0.99962   0.69896   0.92922   0.00000  Uiso   1.00
C1312  C     0.69531   0.78991   0.98035   0.00000  Uiso   1.00
C1313  C     0.68217   0.73770   0.99806   0.00000  Uiso   1.00
C1314  C     0.64189   0.70516   0.95648   0.00000  Uiso   1.00
C1315  C     0.51348   0.73659   0.78512   0.00000  Uiso   1.00
C1316  C     0.80469   0.87675   0.68631   0.00000  Uiso   1.00
C1317  C     0.81784   0.92896   0.66861   0.00000  Uiso   1.00
C1318  C     0.85812   0.96150   0.71017   0.00000  Uiso   1.00
C1319  C     0.98651   0.93008   0.88155   0.00000  Uiso   1.00
C1320  C     0.74776   0.67690   0.80918   0.00000  Uiso   1.00
C1321  C     0.75224   0.98977   0.85749   0.00000  Uiso   1.00
C1322  C     0.66481   0.83351   0.83402   0.00000  Uiso   1.00
C1323  C     0.83519   0.83315   0.83265   0.00000  Uiso   1.00
C1324  C     0.91082   0.88067   0.85618   0.00000  Uiso   1.00
Cu1325 Cu    0.75500   0.83913   0.89479   0.00000  Uiso   1.00
Cu1326 Cu    0.74499   0.82754   0.77187   0.00000  Uiso   1.00
H1327  H     0.89465   0.91592   0.87454   0.00000  Uiso   1.00
H1328  H     0.97892   0.97200   0.69769   0.00000  Uiso   1.00
H1329  H     0.51930   0.93261   0.72286   0.00000  Uiso   1.00
H1330  H     0.55567   0.68801   0.72643   0.00000  Uiso   1.00
H1331  H     0.55552   0.67663   0.80069   0.00000  Uiso   1.00
H1332  H     0.52108   0.69467   0.96898   0.00000  Uiso   1.00
H1333  H     0.52126   0.70651   0.89424   0.00000  Uiso   1.00
H1334  H     0.98070   0.73405   0.94382   0.00000  Uiso   1.00
H1335  H     0.94448   0.99004   0.86598   0.00000  Uiso   1.00
H1336  H     0.94433   0.97865   0.94024   0.00000  Uiso   1.00
H1337  H     0.61240   0.72864   0.95827   0.00000  Uiso   1.00
H1338  H     0.60535   0.75075   0.79213   0.00000  Uiso   1.00
H1339  H     0.65057   0.69326   0.90896   0.00000  Uiso   1.00
H1340  H     0.63240   0.66857   0.97158   0.00000  Uiso   1.00
H1341  H     0.71110   0.71329   0.99435   0.00000  Uiso   1.00
H1342  H     0.67210   0.74515   0.71127   0.00000  Uiso   1.00
H1343  H     0.66764   0.81605   0.98780   0.00000  Uiso   1.00
H1344  H     0.69837   0.77590   0.93259   0.00000  Uiso   1.00
H1345  H     0.84944   0.97339   0.75769   0.00000  Uiso   1.00
H1346  H     0.88760   0.93801   0.70838   0.00000  Uiso   1.00
H1347  H     0.86761   0.99809   0.69508   0.00000  Uiso   1.00
H1348  H     0.82789   0.92152   0.95539   0.00000  Uiso   1.00
H1349  H     0.87929   0.75027   0.78729   0.00000  Uiso   1.00
H1350  H     0.78891   0.95338   0.67232   0.00000  Uiso   1.00
H1351  H     0.80163   0.89077   0.73408   0.00000  Uiso   1.00
H1352  H     0.83236   0.85061   0.67887   0.00000  Uiso   1.00
H1353  H     0.62071   0.91639   0.87938   0.00000  Uiso   1.00
H1354  H     0.94359   0.70293   0.76563   0.00000  Uiso   1.00
H1355  H     0.55641   0.96373   0.90104   0.00000  Uiso   1.00
H1356  H     0.74345   0.98551   0.76305   0.00000  Uiso   1.00
H1357  H     0.75655   0.68116   0.90361   0.00000  Uiso   1.00
H1358  H     0.97874   0.96015   0.77243   0.00000  Uiso   1.00
N1359  N     0.73744   0.81881   0.67951   0.00000  Uiso   1.00
N1360  N     0.76255   0.84786   0.98716   0.00000  Uiso   1.00
O1361  O     0.75325   0.76204   0.87326   0.00000  Uiso   1.00
O1362  O     0.74674   0.90462   0.79341   0.00000  Uiso   1.00
O1363  O     0.74480   0.75226   0.76945   0.00000  Uiso   1.00
O1364  O     0.75520   0.91441   0.89721   0.00000  Uiso   1.00
O1365  O     0.68935   0.83821   0.88524   0.00000  Uiso   1.00
O1366  O     0.81064   0.82845   0.78143   0.00000  Uiso   1.00
O1367  O     0.68090   0.82843   0.78143   0.00000  Uiso   1.00
O1368  O     0.81910   0.83824   0.88523   0.00000  Uiso   1.00
loop_
_geom_bond_atom_site_label_1
_geom_bond_atom_site_label_2
_geom_bond_distance
_geom_bond_site_symmetry_2
_ccdc_geom_bond_type
C1     O71     1.309   .     A
C1     C28     1.432   .     S
C1     O69     1.303   .     A
C2     H46     1.082   .     S
C2     C13     1.403   .     A
C2     C4      1.391   .     A
C3     C31     1.440   .     S
C3     C5      1.391   .     A
C3     C32     1.391   .     A
C4     C6      1.391   .     A
C4     C30     1.440   .     S
C5     C7      1.393   .     A
C5     H57     1.085   .     S
C6     H61     1.085   .     S
C6     C8      1.393   .     A
C7     C14     1.400   .     A
C7     C9      1.413   .     A
C8     C15     1.400   .     A
C8     C10     1.413   .     A
C9     C11     1.424   .     A
C9     C86     1.400   .     S
C10    C13     1.424   .     A
C10    C85     1.400   1_455 S
C11    C27     1.422   .     A
C11    C32     1.403   .     A
C12    C29     1.432   .     S
C12    O72     1.309   .     A
C12    O70     1.303   .     A
C13    C23     1.422   .     A
C14    H62     1.081   .     S
C14    C99     1.406   .     S
C15    H63     1.081   .     S
C15    C103    1.406   1_455 S
C16    C23     1.532   .     S
C16    H39     1.111   .     S
C16    H38     1.110   .     S
C16    C321    1.530   1_545 S
C17    H37     1.111   .     S
C17    C168    1.530   .     S
C17    H112    1.106   1_455 S
C17    H142    1.107   1_455 S
C18    H44     1.110   .     S
C18    C27     1.532   .     S
C18    H43     1.111   .     S
C18    C171    1.530   .     S
C19    H42     1.111   .     S
C19    C322    1.530   1_545 S
C19    H116    1.106   .     S
C19    H117    1.107   .     S
C20    H51     1.111   .     S
C20    H52     1.077   .     S
C20    C21     1.537   .     S
C20    N523    1.461   .     S
C21    H49     1.112   .     S
C21    C22     1.530   .     S
C21    H506    1.103   .     S
C22    H48     1.111   .     S
C22    H47     1.111   .     S
C22    H45     1.111   .     S
C23    C90     1.406   1_455 S
C24    C25     1.537   .     S
C24    H60     1.111   .     S
C24    H59     1.077   .     S
C24    N980    1.461   1_554 S
C25    C26     1.530   .     S
C25    H58     1.112   .     S
C25    H968    1.103   1_554 S
C26    H55     1.111   .     S
C26    H54     1.111   .     S
C26    H53     1.111   .     S
C27    C91     1.406   .     S
C28    C333    1.338   1_545 S
C28    H368    1.087   1_545 S
C29    C180    1.338   .     S
C29    H217    1.087   .     S
C30    O73     1.308   .     A
C30    O75     1.308   .     A
C31    O74     1.308   .     A
C31    O76     1.308   .     A
C32    H35     1.082   .     S
Cu33   O72     1.947   .     S
Cu33   O69     1.943   .     S
Cu33   O76     1.944   .     S
Cu33   Cu34    2.742   .     S
Cu33   O73     1.955   .     S
Cu33   N68     2.060   .     S
Cu34   O70     1.943   .     S
Cu34   O75     1.944   .     S
Cu34   O74     1.955   .     S
Cu34   N67     2.060   .     S
Cu34   O71     1.947   .     S
H36    C93     1.106   .     S
H40    C95     1.106   1_455 S
H41    C95     1.107   1_455 S
H50    C933    1.103   1_554 S
H56    C481    1.103   .     S
H64    C180    1.087   .     S
H65    C333    1.087   1_545 S
H66    C93     1.107   .     S
N67    C932    1.461   1_554 S
N67    N980    1.289   1_554 S
N68    N523    1.289   .     S
N68    C480    1.461   .     S
C77    O147    1.309   .     A
C77    C104    1.432   .     S
C77    O145    1.303   .     A
C78    H122    1.082   .     S
C78    C89     1.403   .     A
C78    C80     1.391   .     A
C79    C107    1.440   .     S
C79    C81     1.391   .     A
C79    C108    1.391   .     A
C80    C82     1.391   .     A
C80    C106    1.440   .     S
C81    C83     1.393   .     A
C81    H133    1.085   .     S
C82    H137    1.085   .     S
C82    C84     1.393   .     A
C83    C90     1.400   .     A
C83    C85     1.413   .     A
C84    C91     1.400   .     A
C84    C86     1.413   .     A
C85    C87     1.424   .     A
C85    C10     1.400   1_655 S
C86    C89     1.424   .     A
C87    C103    1.422   .     A
C87    C108    1.403   .     A
C88    C105    1.432   .     S
C88    O148    1.309   .     A
C88    O146    1.303   .     A
C89    C99     1.422   .     A
C90    H138    1.081   .     S
C90    C23     1.406   1_655 S
C91    H139    1.081   .     S
C92    C99     1.532   .     S
C92    H115    1.111   .     S
C92    H114    1.110   .     S
C92    C397    1.530   1_545 S
C93    H113    1.111   .     S
C93    C244    1.530   .     S
C94    H120    1.110   .     S
C94    C103    1.532   .     S
C94    H119    1.111   .     S
C94    C247    1.530   .     S
C95    H118    1.111   .     S
C95    C398    1.530   1_545 S
C95    H40     1.106   1_655 S
C95    H41     1.107   1_655 S
C96    H127    1.111   .     S
C96    H128    1.077   .     S
C96    C97     1.537   .     S
C96    N599    1.461   .     S
C97    H125    1.112   .     S
C97    C98     1.530   .     S
C97    H582    1.103   .     S
C98    H124    1.111   .     S
C98    H123    1.111   .     S
C98    H121    1.111   .     S
C100   C101    1.537   .     S
C100   H136    1.111   .     S
C100   H135    1.077   .     S
C100   N1056   1.461   1_554 S
C101   C102    1.530   .     S
C101   H134    1.112   .     S
C101   H1044   1.103   1_554 S
C102   H131    1.111   .     S
C102   H130    1.111   .     S
C102   H129    1.111   .     S
C103   C15     1.406   1_655 S
C104   C409    1.338   1_545 S
C104   H444    1.087   1_545 S
C105   C256    1.338   .     S
C105   H293    1.087   .     S
C106   O149    1.308   .     A
C106   O151    1.308   .     A
C107   O150    1.308   .     A
C107   O152    1.308   .     A
C108   H111    1.082   .     S
Cu109  O148    1.947   .     S
Cu109  O145    1.943   .     S
Cu109  O152    1.944   .     S
Cu109  Cu110   2.742   .     S
Cu109  O149    1.955   .     S
Cu109  N144    2.060   .     S
Cu110  O146    1.943   .     S
Cu110  O151    1.944   .     S
Cu110  O150    1.955   .     S
Cu110  N143    2.060   .     S
Cu110  O147    1.947   .     S
H112   C17     1.106   1_655 S
H126   C1009   1.103   1_554 S
H132   C557    1.103   .     S
H140   C256    1.087   .     S
H141   C409    1.087   1_545 S
H142   C17     1.107   1_655 S
N143   C1008   1.461   1_554 S
N143   N1056   1.289   1_554 S
N144   N599    1.289   .     S
N144   C556    1.461   .     S
C153   O223    1.309   .     A
C153   C180    1.432   .     S
C153   O221    1.303   .     A
C154   H198    1.082   .     S
C154   C165    1.403   .     A
C154   C156    1.391   .     A
C155   C183    1.440   .     S
C155   C157    1.391   .     A
C155   C184    1.391   .     A
C156   C158    1.391   .     A
C156   C182    1.440   .     S
C157   C159    1.393   .     A
C157   H209    1.085   .     S
C158   H213    1.085   .     S
C158   C160    1.393   .     A
C159   C166    1.400   .     A
C159   C161    1.413   .     A
C160   C167    1.400   .     A
C160   C162    1.413   .     A
C161   C163    1.424   .     A
C161   C238    1.400   .     S
C162   C165    1.424   .     A
C162   C237    1.400   1_455 S
C163   C179    1.422   .     A
C163   C184    1.403   .     A
C164   C181    1.432   .     S
C164   O224    1.309   .     A
C164   O222    1.303   .     A
C165   C175    1.422   .     A
C166   H214    1.081   .     S
C166   C251    1.406   .     S
C167   H215    1.081   .     S
C167   C255    1.406   1_455 S
C168   C175    1.532   .     S
C168   H191    1.111   .     S
C168   H190    1.110   .     S
C169   H189    1.111   .     S
C169   C320    1.530   .     S
C169   H264    1.106   1_455 S
C169   H294    1.107   1_455 S
C170   H196    1.110   .     S
C170   C179    1.532   .     S
C170   H195    1.111   .     S
C170   C323    1.530   .     S
C171   H194    1.111   .     S
C171   H268    1.106   .     S
C171   H269    1.107   .     S
C172   H203    1.111   .     S
C172   H204    1.077   .     S
C172   C173    1.537   .     S
C172   N675    1.461   .     S
C173   H201    1.112   .     S
C173   C174    1.530   .     S
C173   H658    1.103   .     S
C174   H200    1.111   .     S
C174   H199    1.111   .     S
C174   H197    1.111   .     S
C175   C242    1.406   1_455 S
C176   C177    1.537   .     S
C176   H212    1.111   .     S
C176   H211    1.077   .     S
C176   N1132   1.461   1_554 S
C177   C178    1.530   .     S
C177   H210    1.112   .     S
C177   H1120   1.103   1_554 S
C178   H207    1.111   .     S
C178   H206    1.111   .     S
C178   H205    1.111   .     S
C179   C243    1.406   .     S
C181   C332    1.338   .     S
C181   H369    1.087   .     S
C182   O225    1.308   .     A
C182   O227    1.308   .     A
C183   O226    1.308   .     A
C183   O228    1.308   .     A
C184   H187    1.082   .     S
Cu185  O224    1.947   .     S
Cu185  O221    1.943   .     S
Cu185  O228    1.944   .     S
Cu185  Cu186   2.742   .     S
Cu185  O225    1.955   .     S
Cu185  N220    2.060   .     S
Cu186  O222    1.943   .     S
Cu186  O227    1.944   .     S
Cu186  O226    1.955   .     S
Cu186  N219    2.060   .     S
Cu186  O223    1.947   .     S
H188   C245    1.106   .     S
H192   C247    1.106   1_455 S
H193   C247    1.107   1_455 S
H202   C1085   1.103   1_554 S
H208   C633    1.103   .     S
H216   C332    1.087   .     S
H218   C245    1.107   .     S
N219   C1084   1.461   1_554 S
N219   N1132   1.289   1_554 S
N220   N675    1.289   .     S
N220   C632    1.461   .     S
C229   O299    1.309   .     A
C229   C256    1.432   .     S
C229   O297    1.303   .     A
C230   H274    1.082   .     S
C230   C241    1.403   .     A
C230   C232    1.391   .     A
C231   C259    1.440   .     S
C231   C233    1.391   .     A
C231   C260    1.391   .     A
C232   C234    1.391   .     A
C232   C258    1.440   .     S
C233   C235    1.393   .     A
C233   H285    1.085   .     S
C234   H289    1.085   .     S
C234   C236    1.393   .     A
C235   C242    1.400   .     A
C235   C237    1.413   .     A
C236   C243    1.400   .     A
C236   C238    1.413   .     A
C237   C239    1.424   .     A
C237   C162    1.400   1_655 S
C238   C241    1.424   .     A
C239   C255    1.422   .     A
C239   C260    1.403   .     A
C240   C257    1.432   .     S
C240   O300    1.309   .     A
C240   O298    1.303   .     A
C241   C251    1.422   .     A
C242   H290    1.081   .     S
C242   C175    1.406   1_655 S
C243   H291    1.081   .     S
C244   C251    1.532   .     S
C244   H267    1.111   .     S
C244   H266    1.110   .     S
C245   H265    1.111   .     S
C245   C396    1.530   .     S
C246   H272    1.110   .     S
C246   C255    1.532   .     S
C246   H271    1.111   .     S
C246   C399    1.530   .     S
C247   H270    1.111   .     S
C247   H192    1.106   1_655 S
C247   H193    1.107   1_655 S
C248   H279    1.111   .     S
C248   H280    1.077   .     S
C248   C249    1.537   .     S
C248   N751    1.461   .     S
C249   H277    1.112   .     S
C249   C250    1.530   .     S
C249   H734    1.103   .     S
C250   H276    1.111   .     S
C250   H275    1.111   .     S
C250   H273    1.111   .     S
C252   C253    1.537   .     S
C252   H288    1.111   .     S
C252   H287    1.077   .     S
C252   N1208   1.461   1_554 S
C253   C254    1.530   .     S
C253   H286    1.112   .     S
C253   H1196   1.103   1_554 S
C254   H283    1.111   .     S
C254   H282    1.111   .     S
C254   H281    1.111   .     S
C255   C167    1.406   1_655 S
C257   C408    1.338   .     S
C257   H445    1.087   .     S
C258   O301    1.308   .     A
C258   O303    1.308   .     A
C259   O302    1.308   .     A
C259   O304    1.308   .     A
C260   H263    1.082   .     S
Cu261  O300    1.947   .     S
Cu261  O297    1.943   .     S
Cu261  O304    1.944   .     S
Cu261  Cu262   2.742   .     S
Cu261  O301    1.955   .     S
Cu261  N296    2.060   .     S
Cu262  O298    1.943   .     S
Cu262  O303    1.944   .     S
Cu262  O302    1.955   .     S
Cu262  N295    2.060   .     S
Cu262  O299    1.947   .     S
H264   C169    1.106   1_655 S
H278   C1161   1.103   1_554 S
H284   C709    1.103   .     S
H292   C408    1.087   .     S
H294   C169    1.107   1_655 S
N295   C1160   1.461   1_554 S
N295   N1208   1.289   1_554 S
N296   N751    1.289   .     S
N296   C708    1.461   .     S
C305   O375    1.309   .     A
C305   C332    1.432   .     S
C305   O373    1.303   .     A
C306   H350    1.082   .     S
C306   C317    1.403   .     A
C306   C308    1.391   .     A
C307   C335    1.440   .     S
C307   C309    1.391   .     A
C307   C336    1.391   .     A
C308   C310    1.391   .     A
C308   C334    1.440   .     S
C309   C311    1.393   .     A
C309   H361    1.085   .     S
C310   H365    1.085   .     S
C310   C312    1.393   .     A
C311   C318    1.400   .     A
C311   C313    1.413   .     A
C312   C319    1.400   .     A
C312   C314    1.413   .     A
C313   C315    1.424   .     A
C313   C390    1.400   .     S
C314   C317    1.424   .     A
C314   C389    1.400   1_455 S
C315   C331    1.422   .     A
C315   C336    1.403   .     A
C316   C333    1.432   .     S
C316   O376    1.309   .     A
C316   O374    1.303   .     A
C317   C327    1.422   .     A
C318   H366    1.081   .     S
C318   C403    1.406   .     S
C319   H367    1.081   .     S
C319   C407    1.406   1_455 S
C320   C327    1.532   .     S
C320   H343    1.111   .     S
C320   H342    1.110   .     S
C321   H341    1.111   .     S
C321   C16     1.530   1_565 S
C321   H416    1.106   1_455 S
C321   H446    1.107   1_455 S
C322   H348    1.110   .     S
C322   C331    1.532   .     S
C322   H347    1.111   .     S
C322   C19     1.530   1_565 S
C323   H346    1.111   .     S
C323   H420    1.106   .     S
C323   H421    1.107   .     S
C324   H355    1.111   .     S
C324   H356    1.077   .     S
C324   C325    1.537   .     S
C324   N827    1.461   .     S
C325   H353    1.112   .     S
C325   C326    1.530   .     S
C325   H810    1.103   .     S
C326   H352    1.111   .     S
C326   H351    1.111   .     S
C326   H349    1.111   .     S
C327   C394    1.406   1_455 S
C328   C329    1.537   .     S
C328   H364    1.111   .     S
C328   H363    1.077   .     S
C328   N1284   1.461   1_554 S
C329   C330    1.530   .     S
C329   H362    1.112   .     S
C329   H1272   1.103   1_554 S
C330   H359    1.111   .     S
C330   H358    1.111   .     S
C330   H357    1.111   .     S
C331   C395    1.406   .     S
C333   C28     1.338   1_565 S
C333   H65     1.087   1_565 S
C334   O377    1.308   .     A
C334   O379    1.308   .     A
C335   O378    1.308   .     A
C335   O380    1.308   .     A
C336   H339    1.082   .     S
Cu337  O376    1.947   .     S
Cu337  O373    1.943   .     S
Cu337  O380    1.944   .     S
Cu337  Cu338   2.742   .     S
Cu337  O377    1.955   .     S
Cu337  N372    2.060   .     S
Cu338  O374    1.943   .     S
Cu338  O379    1.944   .     S
Cu338  O378    1.955   .     S
Cu338  N371    2.060   .     S
Cu338  O375    1.947   .     S
H340   C397    1.106   .     S
H344   C399    1.106   1_455 S
H345   C399    1.107   1_455 S
H354   C1237   1.103   1_554 S
H360   C785    1.103   .     S
H368   C28     1.087   1_565 S
H370   C397    1.107   .     S
N371   C1236   1.461   1_554 S
N371   N1284   1.289   1_554 S
N372   N827    1.289   .     S
N372   C784    1.461   .     S
C381   O451    1.309   .     A
C381   C408    1.432   .     S
C381   O449    1.303   .     A
C382   H426    1.082   .     S
C382   C393    1.403   .     A
C382   C384    1.391   .     A
C383   C411    1.440   .     S
C383   C385    1.391   .     A
C383   C412    1.391   .     A
C384   C386    1.391   .     A
C384   C410    1.440   .     S
C385   C387    1.393   .     A
C385   H437    1.085   .     S
C386   H441    1.085   .     S
C386   C388    1.393   .     A
C387   C394    1.400   .     A
C387   C389    1.413   .     A
C388   C395    1.400   .     A
C388   C390    1.413   .     A
C389   C391    1.424   .     A
C389   C314    1.400   1_655 S
C390   C393    1.424   .     A
C391   C407    1.422   .     A
C391   C412    1.403   .     A
C392   C409    1.432   .     S
C392   O452    1.309   .     A
C392   O450    1.303   .     A
C393   C403    1.422   .     A
C394   H442    1.081   .     S
C394   C327    1.406   1_655 S
C395   H443    1.081   .     S
C396   C403    1.532   .     S
C396   H419    1.111   .     S
C396   H418    1.110   .     S
C397   H417    1.111   .     S
C397   C92     1.530   1_565 S
C398   H424    1.110   .     S
C398   C407    1.532   .     S
C398   H423    1.111   .     S
C398   C95     1.530   1_565 S
C399   H422    1.111   .     S
C399   H344    1.106   1_655 S
C399   H345    1.107   1_655 S
C400   H431    1.111   .     S
C400   H432    1.077   .     S
C400   C401    1.537   .     S
C400   N903    1.461   .     S
C401   H429    1.112   .     S
C401   C402    1.530   .     S
C401   H886    1.103   .     S
C402   H428    1.111   .     S
C402   H427    1.111   .     S
C402   H425    1.111   .     S
C404   C405    1.537   .     S
C404   H440    1.111   .     S
C404   H439    1.077   .     S
C404   N1360   1.461   1_554 S
C405   C406    1.530   .     S
C405   H438    1.112   .     S
C405   H1348   1.103   1_554 S
C406   H435    1.111   .     S
C406   H434    1.111   .     S
C406   H433    1.111   .     S
C407   C319    1.406   1_655 S
C409   C104    1.338   1_565 S
C409   H141    1.087   1_565 S
C410   O453    1.308   .     A
C410   O455    1.308   .     A
C411   O454    1.308   .     A
C411   O456    1.308   .     A
C412   H415    1.082   .     S
Cu413  O452    1.947   .     S
Cu413  O449    1.943   .     S
Cu413  O456    1.944   .     S
Cu413  Cu414   2.742   .     S
Cu413  O453    1.955   .     S
Cu413  N448    2.060   .     S
Cu414  O450    1.943   .     S
Cu414  O455    1.944   .     S
Cu414  O454    1.955   .     S
Cu414  N447    2.060   .     S
Cu414  O451    1.947   .     S
H416   C321    1.106   1_655 S
H430   C1313   1.103   1_554 S
H436   C861    1.103   .     S
H444   C104    1.087   1_565 S
H446   C321    1.107   1_655 S
N447   C1312   1.461   1_554 S
N447   N1360   1.289   1_554 S
N448   N903    1.289   .     S
N448   C860    1.461   .     S
C457   O527    1.309   .     A
C457   C484    1.432   .     S
C457   O525    1.303   .     A
C458   H502    1.082   .     S
C458   C469    1.403   .     A
C458   C460    1.391   .     A
C459   C487    1.440   .     S
C459   C461    1.391   .     A
C459   C488    1.391   .     A
C460   C462    1.391   .     A
C460   C486    1.440   .     S
C461   C463    1.393   .     A
C461   H513    1.085   .     S
C462   H517    1.085   .     S
C462   C464    1.393   .     A
C463   C470    1.400   .     A
C463   C465    1.413   .     A
C464   C471    1.400   .     A
C464   C466    1.413   .     A
C465   C467    1.424   .     A
C465   C542    1.400   .     S
C466   C469    1.424   .     A
C466   C541    1.400   1_455 S
C467   C483    1.422   .     A
C467   C488    1.403   .     A
C468   C485    1.432   .     S
C468   O528    1.309   .     A
C468   O526    1.303   .     A
C469   C479    1.422   .     A
C470   H518    1.081   .     S
C470   C555    1.406   .     S
C471   H519    1.081   .     S
C471   C559    1.406   1_455 S
C472   C479    1.532   .     S
C472   H495    1.111   .     S
C472   H494    1.110   .     S
C472   C777    1.530   1_545 S
C473   H493    1.111   .     S
C473   C624    1.530   .     S
C473   H568    1.106   1_455 S
C473   H598    1.107   1_455 S
C474   H500    1.110   .     S
C474   C483    1.532   .     S
C474   H499    1.111   .     S
C474   C627    1.530   .     S
C475   H498    1.111   .     S
C475   C778    1.530   1_545 S
C475   H572    1.106   .     S
C475   H573    1.107   .     S
C476   H507    1.111   .     S
C476   H508    1.077   .     S
C476   C477    1.537   .     S
C476   N979    1.461   .     S
C477   H505    1.112   .     S
C477   C478    1.530   .     S
C477   H962    1.103   .     S
C478   H504    1.111   .     S
C478   H503    1.111   .     S
C478   H501    1.111   .     S
C479   C546    1.406   1_455 S
C480   C481    1.537   .     S
C480   H516    1.111   .     S
C480   H515    1.077   .     S
C481   C482    1.530   .     S
C481   H514    1.112   .     S
C482   H511    1.111   .     S
C482   H510    1.111   .     S
C482   H509    1.111   .     S
C483   C547    1.406   .     S
C484   C789    1.338   1_545 S
C484   H824    1.087   1_545 S
C485   C636    1.338   .     S
C485   H673    1.087   .     S
C486   O529    1.308   .     A
C486   O531    1.308   .     A
C487   O530    1.308   .     A
C487   O532    1.308   .     A
C488   H491    1.082   .     S
Cu489  O528    1.947   .     S
Cu489  O525    1.943   .     S
Cu489  O532    1.944   .     S
Cu489  Cu490   2.742   .     S
Cu489  O529    1.955   .     S
Cu489  N524    2.060   .     S
Cu490  O526    1.943   .     S
Cu490  O531    1.944   .     S
Cu490  O530    1.955   .     S
Cu490  N523    2.060   .     S
Cu490  O527    1.947   .     S
H492   C549    1.106   .     S
H496   C551    1.106   1_455 S
H497   C551    1.107   1_455 S
H512   C937    1.103   .     S
H520   C636    1.087   .     S
H521   C789    1.087   1_545 S
H522   C549    1.107   .     S
N524   N979    1.289   .     S
N524   C936    1.461   .     S
C533   O603    1.309   .     A
C533   C560    1.432   .     S
C533   O601    1.303   .     A
C534   H578    1.082   .     S
C534   C545    1.403   .     A
C534   C536    1.391   .     A
C535   C563    1.440   .     S
C535   C537    1.391   .     A
C535   C564    1.391   .     A
C536   C538    1.391   .     A
C536   C562    1.440   .     S
C537   C539    1.393   .     A
C537   H589    1.085   .     S
C538   H593    1.085   .     S
C538   C540    1.393   .     A
C539   C546    1.400   .     A
C539   C541    1.413   .     A
C540   C547    1.400   .     A
C540   C542    1.413   .     A
C541   C543    1.424   .     A
C541   C466    1.400   1_655 S
C542   C545    1.424   .     A
C543   C559    1.422   .     A
C543   C564    1.403   .     A
C544   C561    1.432   .     S
C544   O604    1.309   .     A
C544   O602    1.303   .     A
C545   C555    1.422   .     A
C546   H594    1.081   .     S
C546   C479    1.406   1_655 S
C547   H595    1.081   .     S
C548   C555    1.532   .     S
C548   H571    1.111   .     S
C548   H570    1.110   .     S
C548   C853    1.530   1_545 S
C549   H569    1.111   .     S
C549   C700    1.530   .     S
C550   H576    1.110   .     S
C550   C559    1.532   .     S
C550   H575    1.111   .     S
C550   C703    1.530   .     S
C551   H574    1.111   .     S
C551   C854    1.530   1_545 S
C551   H496    1.106   1_655 S
C551   H497    1.107   1_655 S
C552   H583    1.111   .     S
C552   H584    1.077   .     S
C552   C553    1.537   .     S
C552   N1055   1.461   .     S
C553   H581    1.112   .     S
C553   C554    1.530   .     S
C553   H1038   1.103   .     S
C554   H580    1.111   .     S
C554   H579    1.111   .     S
C554   H577    1.111   .     S
C556   C557    1.537   .     S
C556   H592    1.111   .     S
C556   H591    1.077   .     S
C557   C558    1.530   .     S
C557   H590    1.112   .     S
C558   H587    1.111   .     S
C558   H586    1.111   .     S
C558   H585    1.111   .     S
C559   C471    1.406   1_655 S
C560   C865    1.338   1_545 S
C560   H900    1.087   1_545 S
C561   C712    1.338   .     S
C561   H749    1.087   .     S
C562   O605    1.308   .     A
C562   O607    1.308   .     A
C563   O606    1.308   .     A
C563   O608    1.308   .     A
C564   H567    1.082   .     S
Cu565  O604    1.947   .     S
Cu565  O601    1.943   .     S
Cu565  O608    1.944   .     S
Cu565  Cu566   2.742   .     S
Cu565  O605    1.955   .     S
Cu565  N600    2.060   .     S
Cu566  O602    1.943   .     S
Cu566  O607    1.944   .     S
Cu566  O606    1.955   .     S
Cu566  N599    2.060   .     S
Cu566  O603    1.947   .     S
H568   C473    1.106   1_655 S
H588   C1013   1.103   .     S
H596   C712    1.087   .     S
H597   C865    1.087   1_545 S
H598   C473    1.107   1_655 S
N600   N1055   1.289   .     S
N600   C1012   1.461   .     S
C609   O679    1.309   .     A
C609   C636    1.432   .     S
C609   O677    1.303   .     A
C610   H654    1.082   .     S
C610   C621    1.403   .     A
C610   C612    1.391   .     A
C611   C639    1.440   .     S
C611   C613    1.391   .     A
C611   C640    1.391   .     A
C612   C614    1.391   .     A
C612   C638    1.440   .     S
C613   C615    1.393   .     A
C613   H665    1.085   .     S
C614   H669    1.085   .     S
C614   C616    1.393   .     A
C615   C622    1.400   .     A
C615   C617    1.413   .     A
C616   C623    1.400   .     A
C616   C618    1.413   .     A
C617   C619    1.424   .     A
C617   C694    1.400   .     S
C618   C621    1.424   .     A
C618   C693    1.400   1_455 S
C619   C635    1.422   .     A
C619   C640    1.403   .     A
C620   C637    1.432   .     S
C620   O680    1.309   .     A
C620   O678    1.303   .     A
C621   C631    1.422   .     A
C622   H670    1.081   .     S
C622   C707    1.406   .     S
C623   H671    1.081   .     S
C623   C711    1.406   1_455 S
C624   C631    1.532   .     S
C624   H647    1.111   .     S
C624   H646    1.110   .     S
C625   H645    1.111   .     S
C625   C776    1.530   .     S
C625   H720    1.106   1_455 S
C625   H750    1.107   1_455 S
C626   H652    1.110   .     S
C626   C635    1.532   .     S
C626   H651    1.111   .     S
C626   C779    1.530   .     S
C627   H650    1.111   .     S
C627   H724    1.106   .     S
C627   H725    1.107   .     S
C628   H659    1.111   .     S
C628   H660    1.077   .     S
C628   C629    1.537   .     S
C628   N1131   1.461   .     S
C629   H657    1.112   .     S
C629   C630    1.530   .     S
C629   H1114   1.103   .     S
C630   H656    1.111   .     S
C630   H655    1.111   .     S
C630   H653    1.111   .     S
C631   C698    1.406   1_455 S
C632   C633    1.537   .     S
C632   H668    1.111   .     S
C632   H667    1.077   .     S
C633   C634    1.530   .     S
C633   H666    1.112   .     S
C634   H663    1.111   .     S
C634   H662    1.111   .     S
C634   H661    1.111   .     S
C635   C699    1.406   .     S
C637   C788    1.338   .     S
C637   H825    1.087   .     S
C638   O681    1.308   .     A
C638   O683    1.308   .     A
C639   O682    1.308   .     A
C639   O684    1.308   .     A
C640   H643    1.082   .     S
Cu641  O680    1.947   .     S
Cu641  O677    1.943   .     S
Cu641  O684    1.944   .     S
Cu641  Cu642   2.742   .     S
Cu641  O681    1.955   .     S
Cu641  N676    2.060   .     S
Cu642  O678    1.943   .     S
Cu642  O683    1.944   .     S
Cu642  O682    1.955   .     S
Cu642  N675    2.060   .     S
Cu642  O679    1.947   .     S
H644   C701    1.106   .     S
H648   C703    1.106   1_455 S
H649   C703    1.107   1_455 S
H664   C1089   1.103   .     S
H672   C788    1.087   .     S
H674   C701    1.107   .     S
N676   N1131   1.289   .     S
N676   C1088   1.461   .     S
C685   O755    1.309   .     A
C685   C712    1.432   .     S
C685   O753    1.303   .     A
C686   H730    1.082   .     S
C686   C697    1.403   .     A
C686   C688    1.391   .     A
C687   C715    1.440   .     S
C687   C689    1.391   .     A
C687   C716    1.391   .     A
C688   C690    1.391   .     A
C688   C714    1.440   .     S
C689   C691    1.393   .     A
C689   H741    1.085   .     S
C690   H745    1.085   .     S
C690   C692    1.393   .     A
C691   C698    1.400   .     A
C691   C693    1.413   .     A
C692   C699    1.400   .     A
C692   C694    1.413   .     A
C693   C695    1.424   .     A
C693   C618    1.400   1_655 S
C694   C697    1.424   .     A
C695   C711    1.422   .     A
C695   C716    1.403   .     A
C696   C713    1.432   .     S
C696   O756    1.309   .     A
C696   O754    1.303   .     A
C697   C707    1.422   .     A
C698   H746    1.081   .     S
C698   C631    1.406   1_655 S
C699   H747    1.081   .     S
C700   C707    1.532   .     S
C700   H723    1.111   .     S
C700   H722    1.110   .     S
C701   H721    1.111   .     S
C701   C852    1.530   .     S
C702   H728    1.110   .     S
C702   C711    1.532   .     S
C702   H727    1.111   .     S
C702   C855    1.530   .     S
C703   H726    1.111   .     S
C703   H648    1.106   1_655 S
C703   H649    1.107   1_655 S
C704   H735    1.111   .     S
C704   H736    1.077   .     S
C704   C705    1.537   .     S
C704   N1207   1.461   .     S
C705   H733    1.112   .     S
C705   C706    1.530   .     S
C705   H1190   1.103   .     S
C706   H732    1.111   .     S
C706   H731    1.111   .     S
C706   H729    1.111   .     S
C708   C709    1.537   .     S
C708   H744    1.111   .     S
C708   H743    1.077   .     S
C709   C710    1.530   .     S
C709   H742    1.112   .     S
C710   H739    1.111   .     S
C710   H738    1.111   .     S
C710   H737    1.111   .     S
C711   C623    1.406   1_655 S
C713   C864    1.338   .     S
C713   H901    1.087   .     S
C714   O757    1.308   .     A
C714   O759    1.308   .     A
C715   O758    1.308   .     A
C715   O760    1.308   .     A
C716   H719    1.082   .     S
Cu717  O756    1.947   .     S
Cu717  O753    1.943   .     S
Cu717  O760    1.944   .     S
Cu717  Cu718   2.742   .     S
Cu717  O757    1.955   .     S
Cu717  N752    2.060   .     S
Cu718  O754    1.943   .     S
Cu718  O759    1.944   .     S
Cu718  O758    1.955   .     S
Cu718  N751    2.060   .     S
Cu718  O755    1.947   .     S
H720   C625    1.106   1_655 S
H740   C1165   1.103   .     S
H748   C864    1.087   .     S
H750   C625    1.107   1_655 S
N752   N1207   1.289   .     S
N752   C1164   1.461   .     S
C761   O831    1.309   .     A
C761   C788    1.432   .     S
C761   O829    1.303   .     A
C762   H806    1.082   .     S
C762   C773    1.403   .     A
C762   C764    1.391   .     A
C763   C791    1.440   .     S
C763   C765    1.391   .     A
C763   C792    1.391   .     A
C764   C766    1.391   .     A
C764   C790    1.440   .     S
C765   C767    1.393   .     A
C765   H817    1.085   .     S
C766   H821    1.085   .     S
C766   C768    1.393   .     A
C767   C774    1.400   .     A
C767   C769    1.413   .     A
C768   C775    1.400   .     A
C768   C770    1.413   .     A
C769   C771    1.424   .     A
C769   C846    1.400   .     S
C770   C773    1.424   .     A
C770   C845    1.400   1_455 S
C771   C787    1.422   .     A
C771   C792    1.403   .     A
C772   C789    1.432   .     S
C772   O832    1.309   .     A
C772   O830    1.303   .     A
C773   C783    1.422   .     A
C774   H822    1.081   .     S
C774   C859    1.406   .     S
C775   H823    1.081   .     S
C775   C863    1.406   1_455 S
C776   C783    1.532   .     S
C776   H799    1.111   .     S
C776   H798    1.110   .     S
C777   H797    1.111   .     S
C777   C472    1.530   1_565 S
C777   H872    1.106   1_455 S
C777   H902    1.107   1_455 S
C778   H804    1.110   .     S
C778   C787    1.532   .     S
C778   H803    1.111   .     S
C778   C475    1.530   1_565 S
C779   H802    1.111   .     S
C779   H876    1.106   .     S
C779   H877    1.107   .     S
C780   H811    1.111   .     S
C780   H812    1.077   .     S
C780   C781    1.537   .     S
C780   N1283   1.461   .     S
C781   H809    1.112   .     S
C781   C782    1.530   .     S
C781   H1266   1.103   .     S
C782   H808    1.111   .     S
C782   H807    1.111   .     S
C782   H805    1.111   .     S
C783   C850    1.406   1_455 S
C784   C785    1.537   .     S
C784   H820    1.111   .     S
C784   H819    1.077   .     S
C785   C786    1.530   .     S
C785   H818    1.112   .     S
C786   H815    1.111   .     S
C786   H814    1.111   .     S
C786   H813    1.111   .     S
C787   C851    1.406   .     S
C789   C484    1.338   1_565 S
C789   H521    1.087   1_565 S
C790   O833    1.308   .     A
C790   O835    1.308   .     A
C791   O834    1.308   .     A
C791   O836    1.308   .     A
C792   H795    1.082   .     S
Cu793  O832    1.947   .     S
Cu793  O829    1.943   .     S
Cu793  O836    1.944   .     S
Cu793  Cu794   2.742   .     S
Cu793  O833    1.955   .     S
Cu793  N828    2.060   .     S
Cu794  O830    1.943   .     S
Cu794  O835    1.944   .     S
Cu794  O834    1.955   .     S
Cu794  N827    2.060   .     S
Cu794  O831    1.947   .     S
H796   C853    1.106   .     S
H800   C855    1.106   1_455 S
H801   C855    1.107   1_455 S
H816   C1241   1.103   .     S
H824   C484    1.087   1_565 S
H826   C853    1.107   .     S
N828   N1283   1.289   .     S
N828   C1240   1.461   .     S
C837   O907    1.309   .     A
C837   C864    1.432   .     S
C837   O905    1.303   .     A
C838   H882    1.082   .     S
C838   C849    1.403   .     A
C838   C840    1.391   .     A
C839   C867    1.440   .     S
C839   C841    1.391   .     A
C839   C868    1.391   .     A
C840   C842    1.391   .     A
C840   C866    1.440   .     S
C841   C843    1.393   .     A
C841   H893    1.085   .     S
C842   H897    1.085   .     S
C842   C844    1.393   .     A
C843   C850    1.400   .     A
C843   C845    1.413   .     A
C844   C851    1.400   .     A
C844   C846    1.413   .     A
C845   C847    1.424   .     A
C845   C770    1.400   1_655 S
C846   C849    1.424   .     A
C847   C863    1.422   .     A
C847   C868    1.403   .     A
C848   C865    1.432   .     S
C848   O908    1.309   .     A
C848   O906    1.303   .     A
C849   C859    1.422   .     A
C850   H898    1.081   .     S
C850   C783    1.406   1_655 S
C851   H899    1.081   .     S
C852   C859    1.532   .     S
C852   H875    1.111   .     S
C852   H874    1.110   .     S
C853   H873    1.111   .     S
C853   C548    1.530   1_565 S
C854   H880    1.110   .     S
C854   C863    1.532   .     S
C854   H879    1.111   .     S
C854   C551    1.530   1_565 S
C855   H878    1.111   .     S
C855   H800    1.106   1_655 S
C855   H801    1.107   1_655 S
C856   H887    1.111   .     S
C856   H888    1.077   .     S
C856   C857    1.537   .     S
C856   N1359   1.461   .     S
C857   H885    1.112   .     S
C857   C858    1.530   .     S
C857   H1342   1.103   .     S
C858   H884    1.111   .     S
C858   H883    1.111   .     S
C858   H881    1.111   .     S
C860   C861    1.537   .     S
C860   H896    1.111   .     S
C860   H895    1.077   .     S
C861   C862    1.530   .     S
C861   H894    1.112   .     S
C862   H891    1.111   .     S
C862   H890    1.111   .     S
C862   H889    1.111   .     S
C863   C775    1.406   1_655 S
C865   C560    1.338   1_565 S
C865   H597    1.087   1_565 S
C866   O909    1.308   .     A
C866   O911    1.308   .     A
C867   O910    1.308   .     A
C867   O912    1.308   .     A
C868   H871    1.082   .     S
Cu869  O908    1.947   .     S
Cu869  O905    1.943   .     S
Cu869  O912    1.944   .     S
Cu869  Cu870   2.742   .     S
Cu869  O909    1.955   .     S
Cu869  N904    2.060   .     S
Cu870  O906    1.943   .     S
Cu870  O911    1.944   .     S
Cu870  O910    1.955   .     S
Cu870  N903    2.060   .     S
Cu870  O907    1.947   .     S
H872   C777    1.106   1_655 S
H892   C1317   1.103   .     S
H900   C560    1.087   1_565 S
H902   C777    1.107   1_655 S
N904   N1359   1.289   .     S
N904   C1316   1.461   .     S
C913   O983    1.309   .     A
C913   C940    1.432   .     S
C913   O981    1.303   .     A
C914   H958    1.082   .     S
C914   C925    1.403   .     A
C914   C916    1.391   .     A
C915   C943    1.440   .     S
C915   C917    1.391   .     A
C915   C944    1.391   .     A
C916   C918    1.391   .     A
C916   C942    1.440   .     S
C917   C919    1.393   .     A
C917   H969    1.085   .     S
C918   H973    1.085   .     S
C918   C920    1.393   .     A
C919   C926    1.400   .     A
C919   C921    1.413   .     A
C920   C927    1.400   .     A
C920   C922    1.413   .     A
C921   C923    1.424   .     A
C921   C998    1.400   .     S
C922   C925    1.424   .     A
C922   C997    1.400   1_455 S
C923   C939    1.422   .     A
C923   C944    1.403   .     A
C924   C941    1.432   .     S
C924   O984    1.309   .     A
C924   O982    1.303   .     A
C925   C935    1.422   .     A
C926   H974    1.081   .     S
C926   C1011   1.406   .     S
C927   H975    1.081   .     S
C927   C1015   1.406   1_455 S
C928   C935    1.532   .     S
C928   H951    1.111   .     S
C928   H950    1.110   .     S
C928   C1233   1.530   1_545 S
C929   H949    1.111   .     S
C929   C1080   1.530   .     S
C929   H1024   1.106   1_455 S
C929   H1054   1.107   1_455 S
C930   H956    1.110   .     S
C930   C939    1.532   .     S
C930   H955    1.111   .     S
C930   C1083   1.530   .     S
C931   H954    1.111   .     S
C931   C1234   1.530   1_545 S
C931   H1028   1.106   .     S
C931   H1029   1.107   .     S
C932   H963    1.111   .     S
C932   H964    1.077   .     S
C932   C933    1.537   .     S
C932   N67     1.461   1_556 S
C933   H961    1.112   .     S
C933   C934    1.530   .     S
C933   H50     1.103   1_556 S
C934   H960    1.111   .     S
C934   H959    1.111   .     S
C934   H957    1.111   .     S
C935   C1002   1.406   1_455 S
C936   C937    1.537   .     S
C936   H972    1.111   .     S
C936   H971    1.077   .     S
C937   C938    1.530   .     S
C937   H970    1.112   .     S
C938   H967    1.111   .     S
C938   H966    1.111   .     S
C938   H965    1.111   .     S
C939   C1003   1.406   .     S
C940   C1245   1.338   1_545 S
C940   H1280   1.087   1_545 S
C941   C1092   1.338   .     S
C941   H1129   1.087   .     S
C942   O985    1.308   .     A
C942   O987    1.308   .     A
C943   O986    1.308   .     A
C943   O988    1.308   .     A
C944   H947    1.082   .     S
Cu945  O984    1.947   .     S
Cu945  O981    1.943   .     S
Cu945  O988    1.944   .     S
Cu945  Cu946   2.742   .     S
Cu945  O985    1.955   .     S
Cu945  N980    2.060   .     S
Cu946  O982    1.943   .     S
Cu946  O987    1.944   .     S
Cu946  O986    1.955   .     S
Cu946  N979    2.060   .     S
Cu946  O983    1.947   .     S
H948   C1005   1.106   .     S
H952   C1007   1.106   1_455 S
H953   C1007   1.107   1_455 S
H968   C25     1.103   1_556 S
H976   C1092   1.087   .     S
H977   C1245   1.087   1_545 S
H978   C1005   1.107   .     S
N980   N67     1.289   1_556 S
N980   C24     1.461   1_556 S
C989   O1059   1.309   .     A
C989   C1016   1.432   .     S
C989   O1057   1.303   .     A
C990   H1034   1.082   .     S
C990   C1001   1.403   .     A
C990   C992    1.391   .     A
C991   C1019   1.440   .     S
C991   C993    1.391   .     A
C991   C1020   1.391   .     A
C992   C994    1.391   .     A
C992   C1018   1.440   .     S
C993   C995    1.393   .     A
C993   H1045   1.085   .     S
C994   H1049   1.085   .     S
C994   C996    1.393   .     A
C995   C1002   1.400   .     A
C995   C997    1.413   .     A
C996   C1003   1.400   .     A
C996   C998    1.413   .     A
C997   C999    1.424   .     A
C997   C922    1.400   1_655 S
C998   C1001   1.424   .     A
C999   C1015   1.422   .     A
C999   C1020   1.403   .     A
C1000  C1017   1.432   .     S
C1000  O1060   1.309   .     A
C1000  O1058   1.303   .     A
C1001  C1011   1.422   .     A
C1002  H1050   1.081   .     S
C1002  C935    1.406   1_655 S
C1003  H1051   1.081   .     S
C1004  C1011   1.532   .     S
C1004  H1027   1.111   .     S
C1004  H1026   1.110   .     S
C1004  C1309   1.530   1_545 S
C1005  H1025   1.111   .     S
C1005  C1156   1.530   .     S
C1006  H1032   1.110   .     S
C1006  C1015   1.532   .     S
C1006  H1031   1.111   .     S
C1006  C1159   1.530   .     S
C1007  H1030   1.111   .     S
C1007  C1310   1.530   1_545 S
C1007  H952    1.106   1_655 S
C1007  H953    1.107   1_655 S
C1008  H1039   1.111   .     S
C1008  H1040   1.077   .     S
C1008  C1009   1.537   .     S
C1008  N143    1.461   1_556 S
C1009  H1037   1.112   .     S
C1009  C1010   1.530   .     S
C1009  H126    1.103   1_556 S
C1010  H1036   1.111   .     S
C1010  H1035   1.111   .     S
C1010  H1033   1.111   .     S
C1012  C1013   1.537   .     S
C1012  H1048   1.111   .     S
C1012  H1047   1.077   .     S
C1013  C1014   1.530   .     S
C1013  H1046   1.112   .     S
C1014  H1043   1.111   .     S
C1014  H1042   1.111   .     S
C1014  H1041   1.111   .     S
C1015  C927    1.406   1_655 S
C1016  C1321   1.338   1_545 S
C1016  H1356   1.087   1_545 S
C1017  C1168   1.338   .     S
C1017  H1205   1.087   .     S
C1018  O1061   1.308   .     A
C1018  O1063   1.308   .     A
C1019  O1062   1.308   .     A
C1019  O1064   1.308   .     A
C1020  H1023   1.082   .     S
Cu1021 O1060   1.947   .     S
Cu1021 O1057   1.943   .     S
Cu1021 O1064   1.944   .     S
Cu1021 Cu1022  2.742   .     S
Cu1021 O1061   1.955   .     S
Cu1021 N1056   2.060   .     S
Cu1022 O1058   1.943   .     S
Cu1022 O1063   1.944   .     S
Cu1022 O1062   1.955   .     S
Cu1022 N1055   2.060   .     S
Cu1022 O1059   1.947   .     S
H1024  C929    1.106   1_655 S
H1044  C101    1.103   1_556 S
H1052  C1168   1.087   .     S
H1053  C1321   1.087   1_545 S
H1054  C929    1.107   1_655 S
N1056  N143    1.289   1_556 S
N1056  C100    1.461   1_556 S
C1065  O1135   1.309   .     A
C1065  C1092   1.432   .     S
C1065  O1133   1.303   .     A
C1066  H1110   1.082   .     S
C1066  C1077   1.403   .     A
C1066  C1068   1.391   .     A
C1067  C1095   1.440   .     S
C1067  C1069   1.391   .     A
C1067  C1096   1.391   .     A
C1068  C1070   1.391   .     A
C1068  C1094   1.440   .     S
C1069  C1071   1.393   .     A
C1069  H1121   1.085   .     S
C1070  H1125   1.085   .     S
C1070  C1072   1.393   .     A
C1071  C1078   1.400   .     A
C1071  C1073   1.413   .     A
C1072  C1079   1.400   .     A
C1072  C1074   1.413   .     A
C1073  C1075   1.424   .     A
C1073  C1150   1.400   .     S
C1074  C1077   1.424   .     A
C1074  C1149   1.400   1_455 S
C1075  C1091   1.422   .     A
C1075  C1096   1.403   .     A
C1076  C1093   1.432   .     S
C1076  O1136   1.309   .     A
C1076  O1134   1.303   .     A
C1077  C1087   1.422   .     A
C1078  H1126   1.081   .     S
C1078  C1163   1.406   .     S
C1079  H1127   1.081   .     S
C1079  C1167   1.406   1_455 S
C1080  C1087   1.532   .     S
C1080  H1103   1.111   .     S
C1080  H1102   1.110   .     S
C1081  H1101   1.111   .     S
C1081  C1232   1.530   .     S
C1081  H1176   1.106   1_455 S
C1081  H1206   1.107   1_455 S
C1082  H1108   1.110   .     S
C1082  C1091   1.532   .     S
C1082  H1107   1.111   .     S
C1082  C1235   1.530   .     S
C1083  H1106   1.111   .     S
C1083  H1180   1.106   .     S
C1083  H1181   1.107   .     S
C1084  H1115   1.111   .     S
C1084  H1116   1.077   .     S
C1084  C1085   1.537   .     S
C1084  N219    1.461   1_556 S
C1085  H1113   1.112   .     S
C1085  C1086   1.530   .     S
C1085  H202    1.103   1_556 S
C1086  H1112   1.111   .     S
C1086  H1111   1.111   .     S
C1086  H1109   1.111   .     S
C1087  C1154   1.406   1_455 S
C1088  C1089   1.537   .     S
C1088  H1124   1.111   .     S
C1088  H1123   1.077   .     S
C1089  C1090   1.530   .     S
C1089  H1122   1.112   .     S
C1090  H1119   1.111   .     S
C1090  H1118   1.111   .     S
C1090  H1117   1.111   .     S
C1091  C1155   1.406   .     S
C1093  C1244   1.338   .     S
C1093  H1281   1.087   .     S
C1094  O1137   1.308   .     A
C1094  O1139   1.308   .     A
C1095  O1138   1.308   .     A
C1095  O1140   1.308   .     A
C1096  H1099   1.082   .     S
Cu1097 O1136   1.947   .     S
Cu1097 O1133   1.943   .     S
Cu1097 O1140   1.944   .     S
Cu1097 Cu1098  2.742   .     S
Cu1097 O1137   1.955   .     S
Cu1097 N1132   2.060   .     S
Cu1098 O1134   1.943   .     S
Cu1098 O1139   1.944   .     S
Cu1098 O1138   1.955   .     S
Cu1098 N1131   2.060   .     S
Cu1098 O1135   1.947   .     S
H1100  C1157   1.106   .     S
H1104  C1159   1.106   1_455 S
H1105  C1159   1.107   1_455 S
H1120  C177    1.103   1_556 S
H1128  C1244   1.087   .     S
H1130  C1157   1.107   .     S
N1132  N219    1.289   1_556 S
N1132  C176    1.461   1_556 S
C1141  O1211   1.309   .     A
C1141  C1168   1.432   .     S
C1141  O1209   1.303   .     A
C1142  H1186   1.082   .     S
C1142  C1153   1.403   .     A
C1142  C1144   1.391   .     A
C1143  C1171   1.440   .     S
C1143  C1145   1.391   .     A
C1143  C1172   1.391   .     A
C1144  C1146   1.391   .     A
C1144  C1170   1.440   .     S
C1145  C1147   1.393   .     A
C1145  H1197   1.085   .     S
C1146  H1201   1.085   .     S
C1146  C1148   1.393   .     A
C1147  C1154   1.400   .     A
C1147  C1149   1.413   .     A
C1148  C1155   1.400   .     A
C1148  C1150   1.413   .     A
C1149  C1151   1.424   .     A
C1149  C1074   1.400   1_655 S
C1150  C1153   1.424   .     A
C1151  C1167   1.422   .     A
C1151  C1172   1.403   .     A
C1152  C1169   1.432   .     S
C1152  O1212   1.309   .     A
C1152  O1210   1.303   .     A
C1153  C1163   1.422   .     A
C1154  H1202   1.081   .     S
C1154  C1087   1.406   1_655 S
C1155  H1203   1.081   .     S
C1156  C1163   1.532   .     S
C1156  H1179   1.111   .     S
C1156  H1178   1.110   .     S
C1157  H1177   1.111   .     S
C1157  C1308   1.530   .     S
C1158  H1184   1.110   .     S
C1158  C1167   1.532   .     S
C1158  H1183   1.111   .     S
C1158  C1311   1.530   .     S
C1159  H1182   1.111   .     S
C1159  H1104   1.106   1_655 S
C1159  H1105   1.107   1_655 S
C1160  H1191   1.111   .     S
C1160  H1192   1.077   .     S
C1160  C1161   1.537   .     S
C1160  N295    1.461   1_556 S
C1161  H1189   1.112   .     S
C1161  C1162   1.530   .     S
C1161  H278    1.103   1_556 S
C1162  H1188   1.111   .     S
C1162  H1187   1.111   .     S
C1162  H1185   1.111   .     S
C1164  C1165   1.537   .     S
C1164  H1200   1.111   .     S
C1164  H1199   1.077   .     S
C1165  C1166   1.530   .     S
C1165  H1198   1.112   .     S
C1166  H1195   1.111   .     S
C1166  H1194   1.111   .     S
C1166  H1193   1.111   .     S
C1167  C1079   1.406   1_655 S
C1169  C1320   1.338   .     S
C1169  H1357   1.087   .     S
C1170  O1213   1.308   .     A
C1170  O1215   1.308   .     A
C1171  O1214   1.308   .     A
C1171  O1216   1.308   .     A
C1172  H1175   1.082   .     S
Cu1173 O1212   1.947   .     S
Cu1173 O1209   1.943   .     S
Cu1173 O1216   1.944   .     S
Cu1173 Cu1174  2.742   .     S
Cu1173 O1213   1.955   .     S
Cu1173 N1208   2.060   .     S
Cu1174 O1210   1.943   .     S
Cu1174 O1215   1.944   .     S
Cu1174 O1214   1.955   .     S
Cu1174 N1207   2.060   .     S
Cu1174 O1211   1.947   .     S
H1176  C1081   1.106   1_655 S
H1196  C253    1.103   1_556 S
H1204  C1320   1.087   .     S
H1206  C1081   1.107   1_655 S
N1208  N295    1.289   1_556 S
N1208  C252    1.461   1_556 S
C1217  O1287   1.309   .     A
C1217  C1244   1.432   .     S
C1217  O1285   1.303   .     A
C1218  H1262   1.082   .     S
C1218  C1229   1.403   .     A
C1218  C1220   1.391   .     A
C1219  C1247   1.440   .     S
C1219  C1221   1.391   .     A
C1219  C1248   1.391   .     A
C1220  C1222   1.391   .     A
C1220  C1246   1.440   .     S
C1221  C1223   1.393   .     A
C1221  H1273   1.085   .     S
C1222  H1277   1.085   .     S
C1222  C1224   1.393   .     A
C1223  C1230   1.400   .     A
C1223  C1225   1.413   .     A
C1224  C1231   1.400   .     A
C1224  C1226   1.413   .     A
C1225  C1227   1.424   .     A
C1225  C1302   1.400   .     S
C1226  C1229   1.424   .     A
C1226  C1301   1.400   1_455 S
C1227  C1243   1.422   .     A
C1227  C1248   1.403   .     A
C1228  C1245   1.432   .     S
C1228  O1288   1.309   .     A
C1228  O1286   1.303   .     A
C1229  C1239   1.422   .     A
C1230  H1278   1.081   .     S
C1230  C1315   1.406   .     S
C1231  H1279   1.081   .     S
C1231  C1319   1.406   1_455 S
C1232  C1239   1.532   .     S
C1232  H1255   1.111   .     S
C1232  H1254   1.110   .     S
C1233  H1253   1.111   .     S
C1233  C928    1.530   1_565 S
C1233  H1328   1.106   1_455 S
C1233  H1358   1.107   1_455 S
C1234  H1260   1.110   .     S
C1234  C1243   1.532   .     S
C1234  H1259   1.111   .     S
C1234  C931    1.530   1_565 S
C1235  H1258   1.111   .     S
C1235  H1332   1.106   .     S
C1235  H1333   1.107   .     S
C1236  H1267   1.111   .     S
C1236  H1268   1.077   .     S
C1236  C1237   1.537   .     S
C1236  N371    1.461   1_556 S
C1237  H1265   1.112   .     S
C1237  C1238   1.530   .     S
C1237  H354    1.103   1_556 S
C1238  H1264   1.111   .     S
C1238  H1263   1.111   .     S
C1238  H1261   1.111   .     S
C1239  C1306   1.406   1_455 S
C1240  C1241   1.537   .     S
C1240  H1276   1.111   .     S
C1240  H1275   1.077   .     S
C1241  C1242   1.530   .     S
C1241  H1274   1.112   .     S
C1242  H1271   1.111   .     S
C1242  H1270   1.111   .     S
C1242  H1269   1.111   .     S
C1243  C1307   1.406   .     S
C1245  C940    1.338   1_565 S
C1245  H977    1.087   1_565 S
C1246  O1289   1.308   .     A
C1246  O1291   1.308   .     A
C1247  O1290   1.308   .     A
C1247  O1292   1.308   .     A
C1248  H1251   1.082   .     S
Cu1249 O1288   1.947   .     S
Cu1249 O1285   1.943   .     S
Cu1249 O1292   1.944   .     S
Cu1249 Cu1250  2.742   .     S
Cu1249 O1289   1.955   .     S
Cu1249 N1284   2.060   .     S
Cu1250 O1286   1.943   .     S
Cu1250 O1291   1.944   .     S
Cu1250 O1290   1.955   .     S
Cu1250 N1283   2.060   .     S
Cu1250 O1287   1.947   .     S
H1252  C1309   1.106   .     S
H1256  C1311   1.106   1_455 S
H1257  C1311   1.107   1_455 S
H1272  C329    1.103   1_556 S
H1280  C940    1.087   1_565 S
H1282  C1309   1.107   .     S
N1284  N371    1.289   1_556 S
N1284  C328    1.461   1_556 S
C1293  O1363   1.309   .     A
C1293  C1320   1.432   .     S
C1293  O1361   1.303   .     A
C1294  H1338   1.082   .     S
C1294  C1305   1.403   .     A
C1294  C1296   1.391   .     A
C1295  C1323   1.440   .     S
C1295  C1297   1.391   .     A
C1295  C1324   1.391   .     A
C1296  C1298   1.391   .     A
C1296  C1322   1.440   .     S
C1297  C1299   1.393   .     A
C1297  H1349   1.085   .     S
C1298  H1353   1.085   .     S
C1298  C1300   1.393   .     A
C1299  C1306   1.400   .     A
C1299  C1301   1.413   .     A
C1300  C1307   1.400   .     A
C1300  C1302   1.413   .     A
C1301  C1303   1.424   .     A
C1301  C1226   1.400   1_655 S
C1302  C1305   1.424   .     A
C1303  C1319   1.422   .     A
C1303  C1324   1.403   .     A
C1304  C1321   1.432   .     S
C1304  O1364   1.309   .     A
C1304  O1362   1.303   .     A
C1305  C1315   1.422   .     A
C1306  H1354   1.081   .     S
C1306  C1239   1.406   1_655 S
C1307  H1355   1.081   .     S
C1308  C1315   1.532   .     S
C1308  H1331   1.111   .     S
C1308  H1330   1.110   .     S
C1309  H1329   1.111   .     S
C1309  C1004   1.530   1_565 S
C1310  H1336   1.110   .     S
C1310  C1319   1.532   .     S
C1310  H1335   1.111   .     S
C1310  C1007   1.530   1_565 S
C1311  H1334   1.111   .     S
C1311  H1256   1.106   1_655 S
C1311  H1257   1.107   1_655 S
C1312  H1343   1.111   .     S
C1312  H1344   1.077   .     S
C1312  C1313   1.537   .     S
C1312  N447    1.461   1_556 S
C1313  H1341   1.112   .     S
C1313  C1314   1.530   .     S
C1313  H430    1.103   1_556 S
C1314  H1340   1.111   .     S
C1314  H1339   1.111   .     S
C1314  H1337   1.111   .     S
C1316  C1317   1.537   .     S
C1316  H1352   1.111   .     S
C1316  H1351   1.077   .     S
C1317  C1318   1.530   .     S
C1317  H1350   1.112   .     S
C1318  H1347   1.111   .     S
C1318  H1346   1.111   .     S
C1318  H1345   1.111   .     S
C1319  C1231   1.406   1_655 S
C1321  C1016   1.338   1_565 S
C1321  H1053   1.087   1_565 S
C1322  O1365   1.308   .     A
C1322  O1367   1.308   .     A
C1323  O1366   1.308   .     A
C1323  O1368   1.308   .     A
C1324  H1327   1.082   .     S
Cu1325 O1364   1.947   .     S
Cu1325 O1361   1.943   .     S
Cu1325 O1368   1.944   .     S
Cu1325 Cu1326  2.742   .     S
Cu1325 O1365   1.955   .     S
Cu1325 N1360   2.060   .     S
Cu1326 O1362   1.943   .     S
Cu1326 O1367   1.944   .     S
Cu1326 O1366   1.955   .     S
Cu1326 N1359   2.060   .     S
Cu1326 O1363   1.947   .     S
H1328  C1233   1.106   1_655 S
H1348  C405    1.103   1_556 S
H1356  C1016   1.087   1_565 S
H1358  C1233   1.107   1_655 S
N1360  N447    1.289   1_556 S
N1360  C404    1.461   1_556 S
