data_str_m2_o10_o17_pcu_sym.157
_audit_creation_date              2020-01-03
_audit_creation_method            'Materials Studio'
_symmetry_space_group_name_H-M    'P1'
_symmetry_Int_Tables_number       1
_symmetry_cell_setting            triclinic
loop_
_symmetry_equiv_pos_as_xyz
  x,y,z
_cell_length_a                    30.0216
_cell_length_b                    26.1368
_cell_length_c                    22.2869
_cell_angle_alpha                 102.2482
_cell_angle_beta                  94.0303
_cell_angle_gamma                 92.3840
loop_
_atom_site_label
_atom_site_type_symbol
_atom_site_fract_x
_atom_site_fract_y
_atom_site_fract_z
_atom_site_U_iso_or_equiv
_atom_site_adp_type
_atom_site_occupancy
C1     C     0.24701   0.06691   0.15188   0.00000  Uiso   1.00
C2     C     0.25299   0.26642   0.18146   0.00000  Uiso   1.00
C3     C     0.01922   0.07610   0.10865   0.00000  Uiso   1.00
C4     C     0.48078   0.25723   0.22468   0.00000  Uiso   1.00
C5     C     0.23881   0.01191   0.14648   0.00000  Uiso   1.00
C6     C     0.26119   0.32142   0.18686   0.00000  Uiso   1.00
C7     C     0.16469   0.16781   0.16774   0.00000  Uiso   1.00
C8     C     0.33531   0.16552   0.16560   0.00000  Uiso   1.00
C9     C     0.40861   0.20905   0.19310   0.00000  Uiso   1.00
C10    C     0.09140   0.12428   0.14023   0.00000  Uiso   1.00
C11    C     0.38325   0.16389   0.16353   0.00000  Uiso   1.00
C12    C     0.11675   0.16944   0.16980   0.00000  Uiso   1.00
C13    C     0.40350   0.11842   0.13465   0.00000  Uiso   1.00
C14    C     0.09650   0.21491   0.19869   0.00000  Uiso   1.00
C15    C     0.45071   0.11974   0.13561   0.00000  Uiso   1.00
C16    C     0.04929   0.21359   0.19773   0.00000  Uiso   1.00
C17    C     0.47646   0.16607   0.16590   0.00000  Uiso   1.00
C18    C     0.02354   0.16726   0.16744   0.00000  Uiso   1.00
C19    C     0.45516   0.21113   0.19474   0.00000  Uiso   1.00
C20    C     0.04485   0.12220   0.13859   0.00000  Uiso   1.00
C21    C     0.47272   0.07557   0.10737   0.00000  Uiso   1.00
C22    C     0.02728   0.25776   0.22596   0.00000  Uiso   1.00
Cu23   Cu    0.25501   0.17246   0.22813   0.00000  Uiso   1.00
Cu24   Cu    0.24500   0.16087   0.10521   0.00000  Uiso   1.00
H25    H     0.39117   0.24269   0.21475   0.00000  Uiso   1.00
H26    H     0.10883   0.09064   0.11859   0.00000  Uiso   1.00
H27    H     0.45395   0.03992   0.08380   0.00000  Uiso   1.00
H28    H     0.04606   0.29341   0.24954   0.00000  Uiso   1.00
N29    N     0.23745   0.15214   0.01284   0.00000  Uiso   1.00
N30    N     0.26256   0.18119   0.32049   0.00000  Uiso   1.00
O31    O     0.25326   0.09538   0.20659   0.00000  Uiso   1.00
O32    O     0.24675   0.23796   0.12674   0.00000  Uiso   1.00
O33    O     0.24480   0.08559   0.10279   0.00000  Uiso   1.00
O34    O     0.25520   0.24774   0.23055   0.00000  Uiso   1.00
O35    O     0.18936   0.17155   0.21857   0.00000  Uiso   1.00
O36    O     0.31065   0.16179   0.11476   0.00000  Uiso   1.00
O37    O     0.18090   0.16176   0.11477   0.00000  Uiso   1.00
O38    O     0.31910   0.17157   0.21857   0.00000  Uiso   1.00
C39    C     0.37549   0.06845   0.10504   0.00000  Uiso   1.00
H40    H     0.38587   0.03601   0.12703   0.00000  Uiso   1.00
H41    H     0.33923   0.07133   0.10988   0.00000  Uiso   1.00
H42    H     0.38004   0.05793   0.05498   0.00000  Uiso   1.00
C43    C     0.12452   0.26488   0.22829   0.00000  Uiso   1.00
H44    H     0.11413   0.29733   0.20630   0.00000  Uiso   1.00
H45    H     0.11997   0.27540   0.27835   0.00000  Uiso   1.00
H46    H     0.16077   0.26201   0.22344   0.00000  Uiso   1.00
C47    C     0.04050   0.02688   0.07787   0.00000  Uiso   1.00
H48    H     0.01522   0.32786   0.05730   0.00000  Uiso   1.00
H49    H     0.06019   0.03505   0.04025   0.00000  Uiso   1.00
H50    H     0.06269   0.01283   0.11224   0.00000  Uiso   1.00
C51    C     0.45950   0.30645   0.25547   0.00000  Uiso   1.00
H52    H     0.48478   0.00547   0.27604   0.00000  Uiso   1.00
H53    H     0.43731   0.32050   0.22110   0.00000  Uiso   1.00
H54    H     0.43982   0.29828   0.29309   0.00000  Uiso   1.00
C55    C     0.20117   0.31864   0.09943   0.00000  Uiso   1.00
H56    H     0.18124   0.01442   0.08128   0.00000  Uiso   1.00
H57    H     0.21503   0.29310   0.05954   0.00000  Uiso   1.00
H58    H     0.17756   0.29540   0.12083   0.00000  Uiso   1.00
C59    C     0.29883   0.01469   0.23390   0.00000  Uiso   1.00
H60    H     0.31876   0.31891   0.25205   0.00000  Uiso   1.00
H61    H     0.32244   0.03793   0.21250   0.00000  Uiso   1.00
H62    H     0.28497   0.04023   0.27379   0.00000  Uiso   1.00
H63    H     0.21538   0.12596   0.31622   0.00000  Uiso   1.00
H64    H     0.28462   0.20738   0.01711   0.00000  Uiso   1.00
C65    C     0.74701   0.06691   0.15188   0.00000  Uiso   1.00
C66    C     0.75299   0.26642   0.18146   0.00000  Uiso   1.00
C67    C     0.51922   0.07610   0.10865   0.00000  Uiso   1.00
C68    C     0.98078   0.25723   0.22468   0.00000  Uiso   1.00
C69    C     0.73881   0.01191   0.14648   0.00000  Uiso   1.00
C70    C     0.76119   0.32142   0.18686   0.00000  Uiso   1.00
C71    C     0.66469   0.16781   0.16774   0.00000  Uiso   1.00
C72    C     0.83531   0.16552   0.16560   0.00000  Uiso   1.00
C73    C     0.90861   0.20905   0.19310   0.00000  Uiso   1.00
C74    C     0.59140   0.12428   0.14023   0.00000  Uiso   1.00
C75    C     0.88325   0.16389   0.16353   0.00000  Uiso   1.00
C76    C     0.61675   0.16944   0.16980   0.00000  Uiso   1.00
C77    C     0.90350   0.11842   0.13465   0.00000  Uiso   1.00
C78    C     0.59650   0.21491   0.19869   0.00000  Uiso   1.00
C79    C     0.95071   0.11974   0.13561   0.00000  Uiso   1.00
C80    C     0.54929   0.21359   0.19773   0.00000  Uiso   1.00
C81    C     0.97646   0.16607   0.16590   0.00000  Uiso   1.00
C82    C     0.52354   0.16726   0.16744   0.00000  Uiso   1.00
C83    C     0.95516   0.21113   0.19474   0.00000  Uiso   1.00
C84    C     0.54485   0.12220   0.13859   0.00000  Uiso   1.00
C85    C     0.97272   0.07557   0.10737   0.00000  Uiso   1.00
C86    C     0.52728   0.25776   0.22596   0.00000  Uiso   1.00
Cu87   Cu    0.75501   0.17246   0.22813   0.00000  Uiso   1.00
Cu88   Cu    0.74500   0.16087   0.10521   0.00000  Uiso   1.00
H89    H     0.89117   0.24269   0.21475   0.00000  Uiso   1.00
H90    H     0.60883   0.09064   0.11859   0.00000  Uiso   1.00
H91    H     0.95395   0.03992   0.08380   0.00000  Uiso   1.00
H92    H     0.54606   0.29341   0.24954   0.00000  Uiso   1.00
N93    N     0.73745   0.15214   0.01284   0.00000  Uiso   1.00
N94    N     0.76256   0.18119   0.32049   0.00000  Uiso   1.00
O95    O     0.75326   0.09538   0.20659   0.00000  Uiso   1.00
O96    O     0.74675   0.23796   0.12674   0.00000  Uiso   1.00
O97    O     0.74480   0.08559   0.10279   0.00000  Uiso   1.00
O98    O     0.75520   0.24774   0.23055   0.00000  Uiso   1.00
O99    O     0.68936   0.17155   0.21857   0.00000  Uiso   1.00
O100   O     0.81065   0.16179   0.11476   0.00000  Uiso   1.00
O101   O     0.68090   0.16176   0.11477   0.00000  Uiso   1.00
O102   O     0.81910   0.17157   0.21857   0.00000  Uiso   1.00
C103   C     0.87549   0.06845   0.10504   0.00000  Uiso   1.00
H104   H     0.88587   0.03601   0.12703   0.00000  Uiso   1.00
H105   H     0.83923   0.07133   0.10988   0.00000  Uiso   1.00
H106   H     0.88004   0.05793   0.05498   0.00000  Uiso   1.00
C107   C     0.62452   0.26488   0.22829   0.00000  Uiso   1.00
H108   H     0.61413   0.29733   0.20630   0.00000  Uiso   1.00
H109   H     0.61997   0.27540   0.27835   0.00000  Uiso   1.00
H110   H     0.66077   0.26201   0.22344   0.00000  Uiso   1.00
C111   C     0.54050   0.02688   0.07787   0.00000  Uiso   1.00
H112   H     0.51522   0.32786   0.05730   0.00000  Uiso   1.00
H113   H     0.56019   0.03505   0.04025   0.00000  Uiso   1.00
H114   H     0.56269   0.01283   0.11224   0.00000  Uiso   1.00
C115   C     0.95950   0.30645   0.25547   0.00000  Uiso   1.00
H116   H     0.98478   0.00547   0.27604   0.00000  Uiso   1.00
H117   H     0.93731   0.32050   0.22110   0.00000  Uiso   1.00
H118   H     0.93982   0.29828   0.29309   0.00000  Uiso   1.00
C119   C     0.70117   0.31864   0.09943   0.00000  Uiso   1.00
H120   H     0.68124   0.01442   0.08128   0.00000  Uiso   1.00
H121   H     0.71503   0.29310   0.05954   0.00000  Uiso   1.00
H122   H     0.67756   0.29540   0.12083   0.00000  Uiso   1.00
C123   C     0.79883   0.01469   0.23390   0.00000  Uiso   1.00
H124   H     0.81876   0.31891   0.25205   0.00000  Uiso   1.00
H125   H     0.82244   0.03793   0.21250   0.00000  Uiso   1.00
H126   H     0.78497   0.04023   0.27379   0.00000  Uiso   1.00
H127   H     0.71538   0.12596   0.31622   0.00000  Uiso   1.00
H128   H     0.78462   0.20738   0.01711   0.00000  Uiso   1.00
C129   C     0.24701   0.40025   0.15188   0.00000  Uiso   1.00
C130   C     0.25299   0.59975   0.18146   0.00000  Uiso   1.00
C131   C     0.01922   0.40943   0.10865   0.00000  Uiso   1.00
C132   C     0.48078   0.59057   0.22468   0.00000  Uiso   1.00
C133   C     0.23881   0.34525   0.14648   0.00000  Uiso   1.00
C134   C     0.26119   0.65475   0.18686   0.00000  Uiso   1.00
C135   C     0.16469   0.50114   0.16774   0.00000  Uiso   1.00
C136   C     0.33531   0.49885   0.16560   0.00000  Uiso   1.00
C137   C     0.40861   0.54238   0.19310   0.00000  Uiso   1.00
C138   C     0.09140   0.45762   0.14023   0.00000  Uiso   1.00
C139   C     0.38325   0.49722   0.16353   0.00000  Uiso   1.00
C140   C     0.11675   0.50278   0.16980   0.00000  Uiso   1.00
C141   C     0.40350   0.45175   0.13465   0.00000  Uiso   1.00
C142   C     0.09650   0.54824   0.19869   0.00000  Uiso   1.00
C143   C     0.45071   0.45307   0.13561   0.00000  Uiso   1.00
C144   C     0.04929   0.54692   0.19773   0.00000  Uiso   1.00
C145   C     0.47646   0.49940   0.16590   0.00000  Uiso   1.00
C146   C     0.02354   0.50060   0.16744   0.00000  Uiso   1.00
C147   C     0.45516   0.54447   0.19474   0.00000  Uiso   1.00
C148   C     0.04485   0.45553   0.13859   0.00000  Uiso   1.00
C149   C     0.47272   0.40890   0.10737   0.00000  Uiso   1.00
C150   C     0.02728   0.59109   0.22596   0.00000  Uiso   1.00
Cu151  Cu    0.25501   0.50579   0.22813   0.00000  Uiso   1.00
Cu152  Cu    0.24500   0.49421   0.10521   0.00000  Uiso   1.00
H153   H     0.39117   0.57603   0.21475   0.00000  Uiso   1.00
H154   H     0.10883   0.42397   0.11859   0.00000  Uiso   1.00
H155   H     0.45395   0.37326   0.08380   0.00000  Uiso   1.00
H156   H     0.04606   0.62674   0.24954   0.00000  Uiso   1.00
N157   N     0.23745   0.48547   0.01284   0.00000  Uiso   1.00
N158   N     0.26256   0.51453   0.32049   0.00000  Uiso   1.00
O159   O     0.25326   0.42871   0.20659   0.00000  Uiso   1.00
O160   O     0.24675   0.57129   0.12674   0.00000  Uiso   1.00
O161   O     0.24480   0.41892   0.10279   0.00000  Uiso   1.00
O162   O     0.25520   0.58108   0.23055   0.00000  Uiso   1.00
O163   O     0.18936   0.50488   0.21857   0.00000  Uiso   1.00
O164   O     0.31065   0.49512   0.11476   0.00000  Uiso   1.00
O165   O     0.18090   0.49510   0.11477   0.00000  Uiso   1.00
O166   O     0.31910   0.50490   0.21857   0.00000  Uiso   1.00
C167   C     0.37549   0.40179   0.10504   0.00000  Uiso   1.00
H168   H     0.38587   0.36934   0.12703   0.00000  Uiso   1.00
H169   H     0.33923   0.40466   0.10988   0.00000  Uiso   1.00
H170   H     0.38004   0.39126   0.05498   0.00000  Uiso   1.00
C171   C     0.12452   0.59821   0.22829   0.00000  Uiso   1.00
H172   H     0.11413   0.63066   0.20630   0.00000  Uiso   1.00
H173   H     0.11997   0.60873   0.27835   0.00000  Uiso   1.00
H174   H     0.16077   0.59534   0.22344   0.00000  Uiso   1.00
C175   C     0.04050   0.36021   0.07787   0.00000  Uiso   1.00
H176   H     0.01522   0.66120   0.05730   0.00000  Uiso   1.00
H177   H     0.06019   0.36839   0.04025   0.00000  Uiso   1.00
H178   H     0.06269   0.34616   0.11224   0.00000  Uiso   1.00
C179   C     0.45950   0.63978   0.25547   0.00000  Uiso   1.00
H180   H     0.48478   0.33880   0.27604   0.00000  Uiso   1.00
H181   H     0.43731   0.65383   0.22110   0.00000  Uiso   1.00
H182   H     0.43982   0.63161   0.29309   0.00000  Uiso   1.00
C183   C     0.20117   0.65197   0.09943   0.00000  Uiso   1.00
H184   H     0.18124   0.34776   0.08128   0.00000  Uiso   1.00
H185   H     0.21503   0.62643   0.05954   0.00000  Uiso   1.00
H186   H     0.17756   0.62873   0.12083   0.00000  Uiso   1.00
C187   C     0.29883   0.34802   0.23390   0.00000  Uiso   1.00
H188   H     0.31876   0.65224   0.25205   0.00000  Uiso   1.00
H189   H     0.32244   0.37126   0.21250   0.00000  Uiso   1.00
H190   H     0.28497   0.37356   0.27379   0.00000  Uiso   1.00
H191   H     0.21538   0.45929   0.31622   0.00000  Uiso   1.00
H192   H     0.28462   0.54071   0.01711   0.00000  Uiso   1.00
C193   C     0.74701   0.40025   0.15188   0.00000  Uiso   1.00
C194   C     0.75299   0.59975   0.18146   0.00000  Uiso   1.00
C195   C     0.51922   0.40943   0.10865   0.00000  Uiso   1.00
C196   C     0.98078   0.59057   0.22468   0.00000  Uiso   1.00
C197   C     0.73881   0.34525   0.14648   0.00000  Uiso   1.00
C198   C     0.76119   0.65475   0.18686   0.00000  Uiso   1.00
C199   C     0.66469   0.50114   0.16774   0.00000  Uiso   1.00
C200   C     0.83531   0.49885   0.16560   0.00000  Uiso   1.00
C201   C     0.90861   0.54238   0.19310   0.00000  Uiso   1.00
C202   C     0.59140   0.45762   0.14023   0.00000  Uiso   1.00
C203   C     0.88325   0.49722   0.16353   0.00000  Uiso   1.00
C204   C     0.61675   0.50278   0.16980   0.00000  Uiso   1.00
C205   C     0.90350   0.45175   0.13465   0.00000  Uiso   1.00
C206   C     0.59650   0.54824   0.19869   0.00000  Uiso   1.00
C207   C     0.95071   0.45307   0.13561   0.00000  Uiso   1.00
C208   C     0.54929   0.54692   0.19773   0.00000  Uiso   1.00
C209   C     0.97646   0.49940   0.16590   0.00000  Uiso   1.00
C210   C     0.52354   0.50060   0.16744   0.00000  Uiso   1.00
C211   C     0.95516   0.54447   0.19474   0.00000  Uiso   1.00
C212   C     0.54485   0.45553   0.13859   0.00000  Uiso   1.00
C213   C     0.97272   0.40890   0.10737   0.00000  Uiso   1.00
C214   C     0.52728   0.59109   0.22596   0.00000  Uiso   1.00
Cu215  Cu    0.75501   0.50579   0.22813   0.00000  Uiso   1.00
Cu216  Cu    0.74500   0.49421   0.10521   0.00000  Uiso   1.00
H217   H     0.89117   0.57603   0.21475   0.00000  Uiso   1.00
H218   H     0.60883   0.42397   0.11859   0.00000  Uiso   1.00
H219   H     0.95395   0.37326   0.08380   0.00000  Uiso   1.00
H220   H     0.54606   0.62674   0.24954   0.00000  Uiso   1.00
N221   N     0.73745   0.48547   0.01284   0.00000  Uiso   1.00
N222   N     0.76256   0.51453   0.32049   0.00000  Uiso   1.00
O223   O     0.75326   0.42871   0.20659   0.00000  Uiso   1.00
O224   O     0.74675   0.57129   0.12674   0.00000  Uiso   1.00
O225   O     0.74480   0.41892   0.10279   0.00000  Uiso   1.00
O226   O     0.75520   0.58108   0.23055   0.00000  Uiso   1.00
O227   O     0.68936   0.50488   0.21857   0.00000  Uiso   1.00
O228   O     0.81065   0.49512   0.11476   0.00000  Uiso   1.00
O229   O     0.68090   0.49510   0.11477   0.00000  Uiso   1.00
O230   O     0.81910   0.50490   0.21857   0.00000  Uiso   1.00
C231   C     0.87549   0.40179   0.10504   0.00000  Uiso   1.00
H232   H     0.88587   0.36934   0.12703   0.00000  Uiso   1.00
H233   H     0.83923   0.40466   0.10988   0.00000  Uiso   1.00
H234   H     0.88004   0.39126   0.05498   0.00000  Uiso   1.00
C235   C     0.62452   0.59821   0.22829   0.00000  Uiso   1.00
H236   H     0.61413   0.63066   0.20630   0.00000  Uiso   1.00
H237   H     0.61997   0.60873   0.27835   0.00000  Uiso   1.00
H238   H     0.66077   0.59534   0.22344   0.00000  Uiso   1.00
C239   C     0.54050   0.36021   0.07787   0.00000  Uiso   1.00
H240   H     0.51522   0.66120   0.05730   0.00000  Uiso   1.00
H241   H     0.56019   0.36839   0.04025   0.00000  Uiso   1.00
H242   H     0.56269   0.34616   0.11224   0.00000  Uiso   1.00
C243   C     0.95950   0.63978   0.25547   0.00000  Uiso   1.00
H244   H     0.98478   0.33880   0.27604   0.00000  Uiso   1.00
H245   H     0.93731   0.65383   0.22110   0.00000  Uiso   1.00
H246   H     0.93982   0.63161   0.29309   0.00000  Uiso   1.00
C247   C     0.70117   0.65197   0.09943   0.00000  Uiso   1.00
H248   H     0.68124   0.34776   0.08128   0.00000  Uiso   1.00
H249   H     0.71503   0.62643   0.05954   0.00000  Uiso   1.00
H250   H     0.67756   0.62873   0.12083   0.00000  Uiso   1.00
C251   C     0.79883   0.34802   0.23390   0.00000  Uiso   1.00
H252   H     0.81876   0.65224   0.25205   0.00000  Uiso   1.00
H253   H     0.82244   0.37126   0.21250   0.00000  Uiso   1.00
H254   H     0.78497   0.37356   0.27379   0.00000  Uiso   1.00
H255   H     0.71538   0.45929   0.31622   0.00000  Uiso   1.00
H256   H     0.78462   0.54071   0.01711   0.00000  Uiso   1.00
C257   C     0.24701   0.73358   0.15188   0.00000  Uiso   1.00
C258   C     0.25299   0.93309   0.18146   0.00000  Uiso   1.00
C259   C     0.01922   0.74276   0.10865   0.00000  Uiso   1.00
C260   C     0.48078   0.92390   0.22468   0.00000  Uiso   1.00
C261   C     0.23881   0.67858   0.14648   0.00000  Uiso   1.00
C262   C     0.26119   0.98809   0.18686   0.00000  Uiso   1.00
C263   C     0.16469   0.83448   0.16774   0.00000  Uiso   1.00
C264   C     0.33531   0.83219   0.16560   0.00000  Uiso   1.00
C265   C     0.40861   0.87572   0.19310   0.00000  Uiso   1.00
C266   C     0.09140   0.79095   0.14023   0.00000  Uiso   1.00
C267   C     0.38325   0.83055   0.16353   0.00000  Uiso   1.00
C268   C     0.11675   0.83611   0.16980   0.00000  Uiso   1.00
C269   C     0.40350   0.78509   0.13465   0.00000  Uiso   1.00
C270   C     0.09650   0.88158   0.19869   0.00000  Uiso   1.00
C271   C     0.45071   0.78641   0.13561   0.00000  Uiso   1.00
C272   C     0.04929   0.88026   0.19773   0.00000  Uiso   1.00
C273   C     0.47646   0.83273   0.16590   0.00000  Uiso   1.00
C274   C     0.02354   0.83393   0.16744   0.00000  Uiso   1.00
C275   C     0.45516   0.87780   0.19474   0.00000  Uiso   1.00
C276   C     0.04485   0.78887   0.13859   0.00000  Uiso   1.00
C277   C     0.47272   0.74224   0.10737   0.00000  Uiso   1.00
C278   C     0.02728   0.92443   0.22596   0.00000  Uiso   1.00
Cu279  Cu    0.25501   0.83913   0.22813   0.00000  Uiso   1.00
Cu280  Cu    0.24500   0.82754   0.10521   0.00000  Uiso   1.00
H281   H     0.39117   0.90936   0.21475   0.00000  Uiso   1.00
H282   H     0.10883   0.75730   0.11859   0.00000  Uiso   1.00
H283   H     0.45395   0.70659   0.08380   0.00000  Uiso   1.00
H284   H     0.04606   0.96007   0.24954   0.00000  Uiso   1.00
N285   N     0.23745   0.81881   0.01284   0.00000  Uiso   1.00
N286   N     0.26256   0.84786   0.32049   0.00000  Uiso   1.00
O287   O     0.25326   0.76204   0.20659   0.00000  Uiso   1.00
O288   O     0.24675   0.90462   0.12674   0.00000  Uiso   1.00
O289   O     0.24480   0.75226   0.10279   0.00000  Uiso   1.00
O290   O     0.25520   0.91441   0.23055   0.00000  Uiso   1.00
O291   O     0.18936   0.83821   0.21857   0.00000  Uiso   1.00
O292   O     0.31065   0.82845   0.11476   0.00000  Uiso   1.00
O293   O     0.18090   0.82843   0.11477   0.00000  Uiso   1.00
O294   O     0.31910   0.83824   0.21857   0.00000  Uiso   1.00
C295   C     0.37549   0.73512   0.10504   0.00000  Uiso   1.00
H296   H     0.38587   0.70267   0.12703   0.00000  Uiso   1.00
H297   H     0.33923   0.73799   0.10988   0.00000  Uiso   1.00
H298   H     0.38004   0.72460   0.05498   0.00000  Uiso   1.00
C299   C     0.12452   0.93155   0.22829   0.00000  Uiso   1.00
H300   H     0.11413   0.96399   0.20630   0.00000  Uiso   1.00
H301   H     0.11997   0.94207   0.27835   0.00000  Uiso   1.00
H302   H     0.16077   0.92868   0.22344   0.00000  Uiso   1.00
C303   C     0.04050   0.69354   0.07787   0.00000  Uiso   1.00
H304   H     0.01522   0.99453   0.05730   0.00000  Uiso   1.00
H305   H     0.06019   0.70172   0.04025   0.00000  Uiso   1.00
H306   H     0.06269   0.67950   0.11224   0.00000  Uiso   1.00
C307   C     0.45950   0.97312   0.25547   0.00000  Uiso   1.00
H308   H     0.48478   0.67213   0.27604   0.00000  Uiso   1.00
H309   H     0.43731   0.98717   0.22110   0.00000  Uiso   1.00
H310   H     0.43982   0.96494   0.29309   0.00000  Uiso   1.00
C311   C     0.20117   0.98531   0.09943   0.00000  Uiso   1.00
H312   H     0.18124   0.68109   0.08128   0.00000  Uiso   1.00
H313   H     0.21503   0.95977   0.05954   0.00000  Uiso   1.00
H314   H     0.17756   0.96207   0.12083   0.00000  Uiso   1.00
C315   C     0.29883   0.68136   0.23390   0.00000  Uiso   1.00
H316   H     0.31876   0.98558   0.25205   0.00000  Uiso   1.00
H317   H     0.32244   0.70460   0.21250   0.00000  Uiso   1.00
H318   H     0.28497   0.70690   0.27379   0.00000  Uiso   1.00
H319   H     0.21538   0.79262   0.31622   0.00000  Uiso   1.00
H320   H     0.28462   0.87404   0.01711   0.00000  Uiso   1.00
C321   C     0.74701   0.73358   0.15188   0.00000  Uiso   1.00
C322   C     0.75299   0.93309   0.18146   0.00000  Uiso   1.00
C323   C     0.51922   0.74276   0.10865   0.00000  Uiso   1.00
C324   C     0.98078   0.92390   0.22468   0.00000  Uiso   1.00
C325   C     0.73881   0.67858   0.14648   0.00000  Uiso   1.00
C326   C     0.76119   0.98809   0.18686   0.00000  Uiso   1.00
C327   C     0.66469   0.83448   0.16774   0.00000  Uiso   1.00
C328   C     0.83531   0.83219   0.16560   0.00000  Uiso   1.00
C329   C     0.90861   0.87572   0.19310   0.00000  Uiso   1.00
C330   C     0.59140   0.79095   0.14023   0.00000  Uiso   1.00
C331   C     0.88325   0.83055   0.16353   0.00000  Uiso   1.00
C332   C     0.61675   0.83611   0.16980   0.00000  Uiso   1.00
C333   C     0.90350   0.78509   0.13465   0.00000  Uiso   1.00
C334   C     0.59650   0.88158   0.19869   0.00000  Uiso   1.00
C335   C     0.95071   0.78641   0.13561   0.00000  Uiso   1.00
C336   C     0.54929   0.88026   0.19773   0.00000  Uiso   1.00
C337   C     0.97646   0.83273   0.16590   0.00000  Uiso   1.00
C338   C     0.52354   0.83393   0.16744   0.00000  Uiso   1.00
C339   C     0.95516   0.87780   0.19474   0.00000  Uiso   1.00
C340   C     0.54485   0.78887   0.13859   0.00000  Uiso   1.00
C341   C     0.97272   0.74224   0.10737   0.00000  Uiso   1.00
C342   C     0.52728   0.92443   0.22596   0.00000  Uiso   1.00
Cu343  Cu    0.75501   0.83913   0.22813   0.00000  Uiso   1.00
Cu344  Cu    0.74500   0.82754   0.10521   0.00000  Uiso   1.00
H345   H     0.89117   0.90936   0.21475   0.00000  Uiso   1.00
H346   H     0.60883   0.75730   0.11859   0.00000  Uiso   1.00
H347   H     0.95395   0.70659   0.08380   0.00000  Uiso   1.00
H348   H     0.54606   0.96007   0.24954   0.00000  Uiso   1.00
N349   N     0.73745   0.81881   0.01284   0.00000  Uiso   1.00
N350   N     0.76256   0.84786   0.32049   0.00000  Uiso   1.00
O351   O     0.75326   0.76204   0.20659   0.00000  Uiso   1.00
O352   O     0.74675   0.90462   0.12674   0.00000  Uiso   1.00
O353   O     0.74480   0.75226   0.10279   0.00000  Uiso   1.00
O354   O     0.75520   0.91441   0.23055   0.00000  Uiso   1.00
O355   O     0.68936   0.83821   0.21857   0.00000  Uiso   1.00
O356   O     0.81065   0.82845   0.11476   0.00000  Uiso   1.00
O357   O     0.68090   0.82843   0.11477   0.00000  Uiso   1.00
O358   O     0.81910   0.83824   0.21857   0.00000  Uiso   1.00
C359   C     0.87549   0.73512   0.10504   0.00000  Uiso   1.00
H360   H     0.88587   0.70267   0.12703   0.00000  Uiso   1.00
H361   H     0.83923   0.73799   0.10988   0.00000  Uiso   1.00
H362   H     0.88004   0.72460   0.05498   0.00000  Uiso   1.00
C363   C     0.62452   0.93155   0.22829   0.00000  Uiso   1.00
H364   H     0.61413   0.96399   0.20630   0.00000  Uiso   1.00
H365   H     0.61997   0.94207   0.27835   0.00000  Uiso   1.00
H366   H     0.66077   0.92868   0.22344   0.00000  Uiso   1.00
C367   C     0.54050   0.69354   0.07787   0.00000  Uiso   1.00
H368   H     0.51522   0.99453   0.05730   0.00000  Uiso   1.00
H369   H     0.56019   0.70172   0.04025   0.00000  Uiso   1.00
H370   H     0.56269   0.67950   0.11224   0.00000  Uiso   1.00
C371   C     0.95950   0.97312   0.25547   0.00000  Uiso   1.00
H372   H     0.98478   0.67213   0.27604   0.00000  Uiso   1.00
H373   H     0.93731   0.98717   0.22110   0.00000  Uiso   1.00
H374   H     0.93982   0.96494   0.29309   0.00000  Uiso   1.00
C375   C     0.70117   0.98531   0.09943   0.00000  Uiso   1.00
H376   H     0.68124   0.68109   0.08128   0.00000  Uiso   1.00
H377   H     0.71503   0.95977   0.05954   0.00000  Uiso   1.00
H378   H     0.67756   0.96207   0.12083   0.00000  Uiso   1.00
C379   C     0.79883   0.68136   0.23390   0.00000  Uiso   1.00
H380   H     0.81876   0.98558   0.25205   0.00000  Uiso   1.00
H381   H     0.82244   0.70460   0.21250   0.00000  Uiso   1.00
H382   H     0.78497   0.70690   0.27379   0.00000  Uiso   1.00
H383   H     0.71538   0.79262   0.31622   0.00000  Uiso   1.00
H384   H     0.78462   0.87404   0.01711   0.00000  Uiso   1.00
C385   C     0.24701   0.06691   0.48521   0.00000  Uiso   1.00
C386   C     0.25299   0.26642   0.51479   0.00000  Uiso   1.00
C387   C     0.01922   0.07610   0.44199   0.00000  Uiso   1.00
C388   C     0.48078   0.25723   0.55802   0.00000  Uiso   1.00
C389   C     0.23881   0.01191   0.47981   0.00000  Uiso   1.00
C390   C     0.26119   0.32142   0.52019   0.00000  Uiso   1.00
C391   C     0.16469   0.16781   0.50107   0.00000  Uiso   1.00
C392   C     0.33531   0.16552   0.49893   0.00000  Uiso   1.00
C393   C     0.40861   0.20905   0.52644   0.00000  Uiso   1.00
C394   C     0.09140   0.12428   0.47356   0.00000  Uiso   1.00
C395   C     0.38325   0.16389   0.49686   0.00000  Uiso   1.00
C396   C     0.11675   0.16944   0.50314   0.00000  Uiso   1.00
C397   C     0.40350   0.11842   0.46798   0.00000  Uiso   1.00
C398   C     0.09650   0.21491   0.53202   0.00000  Uiso   1.00
C399   C     0.45071   0.11974   0.46894   0.00000  Uiso   1.00
C400   C     0.04929   0.21359   0.53106   0.00000  Uiso   1.00
C401   C     0.47646   0.16607   0.49923   0.00000  Uiso   1.00
C402   C     0.02354   0.16726   0.50077   0.00000  Uiso   1.00
C403   C     0.45516   0.21113   0.52808   0.00000  Uiso   1.00
C404   C     0.04485   0.12220   0.47193   0.00000  Uiso   1.00
C405   C     0.47272   0.07557   0.44071   0.00000  Uiso   1.00
C406   C     0.02728   0.25776   0.55930   0.00000  Uiso   1.00
Cu407  Cu    0.25501   0.17246   0.56146   0.00000  Uiso   1.00
Cu408  Cu    0.24500   0.16087   0.43854   0.00000  Uiso   1.00
H409   H     0.39117   0.24269   0.54808   0.00000  Uiso   1.00
H410   H     0.10883   0.09064   0.45192   0.00000  Uiso   1.00
H411   H     0.45395   0.03992   0.41713   0.00000  Uiso   1.00
H412   H     0.04606   0.29341   0.58287   0.00000  Uiso   1.00
N413   N     0.23745   0.15214   0.34617   0.00000  Uiso   1.00
N414   N     0.26256   0.18119   0.65383   0.00000  Uiso   1.00
O415   O     0.25326   0.09538   0.53992   0.00000  Uiso   1.00
O416   O     0.24675   0.23796   0.46008   0.00000  Uiso   1.00
O417   O     0.24480   0.08559   0.43612   0.00000  Uiso   1.00
O418   O     0.25520   0.24774   0.56388   0.00000  Uiso   1.00
O419   O     0.18936   0.17155   0.55191   0.00000  Uiso   1.00
O420   O     0.31065   0.16179   0.44809   0.00000  Uiso   1.00
O421   O     0.18090   0.16176   0.44810   0.00000  Uiso   1.00
O422   O     0.31910   0.17157   0.55190   0.00000  Uiso   1.00
C423   C     0.37549   0.06845   0.43837   0.00000  Uiso   1.00
H424   H     0.38587   0.03601   0.46037   0.00000  Uiso   1.00
H425   H     0.33923   0.07133   0.44321   0.00000  Uiso   1.00
H426   H     0.38004   0.05793   0.38831   0.00000  Uiso   1.00
C427   C     0.12452   0.26488   0.56163   0.00000  Uiso   1.00
H428   H     0.11413   0.29733   0.53964   0.00000  Uiso   1.00
H429   H     0.11997   0.27540   0.61168   0.00000  Uiso   1.00
H430   H     0.16077   0.26201   0.55678   0.00000  Uiso   1.00
C431   C     0.04050   0.02688   0.41120   0.00000  Uiso   1.00
H432   H     0.01522   0.32786   0.39063   0.00000  Uiso   1.00
H433   H     0.06019   0.03505   0.37358   0.00000  Uiso   1.00
H434   H     0.06269   0.01283   0.44558   0.00000  Uiso   1.00
C435   C     0.45950   0.30645   0.58880   0.00000  Uiso   1.00
H436   H     0.48478   0.00547   0.60938   0.00000  Uiso   1.00
H437   H     0.43731   0.32050   0.55443   0.00000  Uiso   1.00
H438   H     0.43982   0.29828   0.62642   0.00000  Uiso   1.00
C439   C     0.20117   0.31864   0.43276   0.00000  Uiso   1.00
H440   H     0.18124   0.01442   0.41461   0.00000  Uiso   1.00
H441   H     0.21503   0.29310   0.39287   0.00000  Uiso   1.00
H442   H     0.17756   0.29540   0.45417   0.00000  Uiso   1.00
C443   C     0.29883   0.01469   0.56723   0.00000  Uiso   1.00
H444   H     0.31876   0.31891   0.58538   0.00000  Uiso   1.00
H445   H     0.32244   0.03793   0.54583   0.00000  Uiso   1.00
H446   H     0.28497   0.04023   0.60713   0.00000  Uiso   1.00
H447   H     0.21538   0.12596   0.64956   0.00000  Uiso   1.00
H448   H     0.28462   0.20738   0.35044   0.00000  Uiso   1.00
C449   C     0.74701   0.06691   0.48521   0.00000  Uiso   1.00
C450   C     0.75299   0.26642   0.51479   0.00000  Uiso   1.00
C451   C     0.51922   0.07610   0.44199   0.00000  Uiso   1.00
C452   C     0.98078   0.25723   0.55802   0.00000  Uiso   1.00
C453   C     0.73881   0.01191   0.47981   0.00000  Uiso   1.00
C454   C     0.76119   0.32142   0.52019   0.00000  Uiso   1.00
C455   C     0.66469   0.16781   0.50107   0.00000  Uiso   1.00
C456   C     0.83531   0.16552   0.49893   0.00000  Uiso   1.00
C457   C     0.90861   0.20905   0.52644   0.00000  Uiso   1.00
C458   C     0.59140   0.12428   0.47356   0.00000  Uiso   1.00
C459   C     0.88325   0.16389   0.49686   0.00000  Uiso   1.00
C460   C     0.61675   0.16944   0.50314   0.00000  Uiso   1.00
C461   C     0.90350   0.11842   0.46798   0.00000  Uiso   1.00
C462   C     0.59650   0.21491   0.53202   0.00000  Uiso   1.00
C463   C     0.95071   0.11974   0.46894   0.00000  Uiso   1.00
C464   C     0.54929   0.21359   0.53106   0.00000  Uiso   1.00
C465   C     0.97646   0.16607   0.49923   0.00000  Uiso   1.00
C466   C     0.52354   0.16726   0.50077   0.00000  Uiso   1.00
C467   C     0.95516   0.21113   0.52808   0.00000  Uiso   1.00
C468   C     0.54485   0.12220   0.47193   0.00000  Uiso   1.00
C469   C     0.97272   0.07557   0.44071   0.00000  Uiso   1.00
C470   C     0.52728   0.25776   0.55930   0.00000  Uiso   1.00
Cu471  Cu    0.75501   0.17246   0.56146   0.00000  Uiso   1.00
Cu472  Cu    0.74500   0.16087   0.43854   0.00000  Uiso   1.00
H473   H     0.89117   0.24269   0.54808   0.00000  Uiso   1.00
H474   H     0.60883   0.09064   0.45192   0.00000  Uiso   1.00
H475   H     0.95395   0.03992   0.41713   0.00000  Uiso   1.00
H476   H     0.54606   0.29341   0.58287   0.00000  Uiso   1.00
N477   N     0.73745   0.15214   0.34617   0.00000  Uiso   1.00
N478   N     0.76256   0.18119   0.65383   0.00000  Uiso   1.00
O479   O     0.75326   0.09538   0.53992   0.00000  Uiso   1.00
O480   O     0.74675   0.23796   0.46008   0.00000  Uiso   1.00
O481   O     0.74480   0.08559   0.43612   0.00000  Uiso   1.00
O482   O     0.75520   0.24774   0.56388   0.00000  Uiso   1.00
O483   O     0.68936   0.17155   0.55191   0.00000  Uiso   1.00
O484   O     0.81065   0.16179   0.44809   0.00000  Uiso   1.00
O485   O     0.68090   0.16176   0.44810   0.00000  Uiso   1.00
O486   O     0.81910   0.17157   0.55190   0.00000  Uiso   1.00
C487   C     0.87549   0.06845   0.43837   0.00000  Uiso   1.00
H488   H     0.88587   0.03601   0.46037   0.00000  Uiso   1.00
H489   H     0.83923   0.07133   0.44321   0.00000  Uiso   1.00
H490   H     0.88004   0.05793   0.38831   0.00000  Uiso   1.00
C491   C     0.62452   0.26488   0.56163   0.00000  Uiso   1.00
H492   H     0.61413   0.29733   0.53964   0.00000  Uiso   1.00
H493   H     0.61997   0.27540   0.61168   0.00000  Uiso   1.00
H494   H     0.66077   0.26201   0.55678   0.00000  Uiso   1.00
C495   C     0.54050   0.02688   0.41120   0.00000  Uiso   1.00
H496   H     0.51522   0.32786   0.39063   0.00000  Uiso   1.00
H497   H     0.56019   0.03505   0.37358   0.00000  Uiso   1.00
H498   H     0.56269   0.01283   0.44558   0.00000  Uiso   1.00
C499   C     0.95950   0.30645   0.58880   0.00000  Uiso   1.00
H500   H     0.98478   0.00547   0.60938   0.00000  Uiso   1.00
H501   H     0.93731   0.32050   0.55443   0.00000  Uiso   1.00
H502   H     0.93982   0.29828   0.62642   0.00000  Uiso   1.00
C503   C     0.70117   0.31864   0.43276   0.00000  Uiso   1.00
H504   H     0.68124   0.01442   0.41461   0.00000  Uiso   1.00
H505   H     0.71503   0.29310   0.39287   0.00000  Uiso   1.00
H506   H     0.67756   0.29540   0.45417   0.00000  Uiso   1.00
C507   C     0.79883   0.01469   0.56723   0.00000  Uiso   1.00
H508   H     0.81876   0.31891   0.58538   0.00000  Uiso   1.00
H509   H     0.82244   0.03793   0.54583   0.00000  Uiso   1.00
H510   H     0.78497   0.04023   0.60713   0.00000  Uiso   1.00
H511   H     0.71538   0.12596   0.64956   0.00000  Uiso   1.00
H512   H     0.78462   0.20738   0.35044   0.00000  Uiso   1.00
C513   C     0.24701   0.40025   0.48521   0.00000  Uiso   1.00
C514   C     0.25299   0.59975   0.51479   0.00000  Uiso   1.00
C515   C     0.01922   0.40943   0.44199   0.00000  Uiso   1.00
C516   C     0.48078   0.59057   0.55802   0.00000  Uiso   1.00
C517   C     0.23881   0.34525   0.47981   0.00000  Uiso   1.00
C518   C     0.26119   0.65475   0.52019   0.00000  Uiso   1.00
C519   C     0.16469   0.50114   0.50107   0.00000  Uiso   1.00
C520   C     0.33531   0.49885   0.49893   0.00000  Uiso   1.00
C521   C     0.40861   0.54238   0.52644   0.00000  Uiso   1.00
C522   C     0.09140   0.45762   0.47356   0.00000  Uiso   1.00
C523   C     0.38325   0.49722   0.49686   0.00000  Uiso   1.00
C524   C     0.11675   0.50278   0.50314   0.00000  Uiso   1.00
C525   C     0.40350   0.45175   0.46798   0.00000  Uiso   1.00
C526   C     0.09650   0.54824   0.53202   0.00000  Uiso   1.00
C527   C     0.45071   0.45307   0.46894   0.00000  Uiso   1.00
C528   C     0.04929   0.54692   0.53106   0.00000  Uiso   1.00
C529   C     0.47646   0.49940   0.49923   0.00000  Uiso   1.00
C530   C     0.02354   0.50060   0.50077   0.00000  Uiso   1.00
C531   C     0.45516   0.54447   0.52808   0.00000  Uiso   1.00
C532   C     0.04485   0.45553   0.47193   0.00000  Uiso   1.00
C533   C     0.47272   0.40890   0.44071   0.00000  Uiso   1.00
C534   C     0.02728   0.59109   0.55930   0.00000  Uiso   1.00
Cu535  Cu    0.25501   0.50579   0.56146   0.00000  Uiso   1.00
Cu536  Cu    0.24500   0.49421   0.43854   0.00000  Uiso   1.00
H537   H     0.39117   0.57603   0.54808   0.00000  Uiso   1.00
H538   H     0.10883   0.42397   0.45192   0.00000  Uiso   1.00
H539   H     0.45395   0.37326   0.41713   0.00000  Uiso   1.00
H540   H     0.04606   0.62674   0.58287   0.00000  Uiso   1.00
N541   N     0.23745   0.48547   0.34617   0.00000  Uiso   1.00
N542   N     0.26256   0.51453   0.65383   0.00000  Uiso   1.00
O543   O     0.25326   0.42871   0.53992   0.00000  Uiso   1.00
O544   O     0.24675   0.57129   0.46008   0.00000  Uiso   1.00
O545   O     0.24480   0.41892   0.43612   0.00000  Uiso   1.00
O546   O     0.25520   0.58108   0.56388   0.00000  Uiso   1.00
O547   O     0.18936   0.50488   0.55191   0.00000  Uiso   1.00
O548   O     0.31065   0.49512   0.44809   0.00000  Uiso   1.00
O549   O     0.18090   0.49510   0.44810   0.00000  Uiso   1.00
O550   O     0.31910   0.50490   0.55190   0.00000  Uiso   1.00
C551   C     0.37549   0.40179   0.43837   0.00000  Uiso   1.00
H552   H     0.38587   0.36934   0.46037   0.00000  Uiso   1.00
H553   H     0.33923   0.40466   0.44321   0.00000  Uiso   1.00
H554   H     0.38004   0.39126   0.38831   0.00000  Uiso   1.00
C555   C     0.12452   0.59821   0.56163   0.00000  Uiso   1.00
H556   H     0.11413   0.63066   0.53964   0.00000  Uiso   1.00
H557   H     0.11997   0.60873   0.61168   0.00000  Uiso   1.00
H558   H     0.16077   0.59534   0.55678   0.00000  Uiso   1.00
C559   C     0.04050   0.36021   0.41120   0.00000  Uiso   1.00
H560   H     0.01522   0.66120   0.39063   0.00000  Uiso   1.00
H561   H     0.06019   0.36839   0.37358   0.00000  Uiso   1.00
H562   H     0.06269   0.34616   0.44558   0.00000  Uiso   1.00
C563   C     0.45950   0.63978   0.58880   0.00000  Uiso   1.00
H564   H     0.48478   0.33880   0.60938   0.00000  Uiso   1.00
H565   H     0.43731   0.65383   0.55443   0.00000  Uiso   1.00
H566   H     0.43982   0.63161   0.62642   0.00000  Uiso   1.00
C567   C     0.20117   0.65197   0.43276   0.00000  Uiso   1.00
H568   H     0.18124   0.34776   0.41461   0.00000  Uiso   1.00
H569   H     0.21503   0.62643   0.39287   0.00000  Uiso   1.00
H570   H     0.17756   0.62873   0.45417   0.00000  Uiso   1.00
C571   C     0.29883   0.34802   0.56723   0.00000  Uiso   1.00
H572   H     0.31876   0.65224   0.58538   0.00000  Uiso   1.00
H573   H     0.32244   0.37126   0.54583   0.00000  Uiso   1.00
H574   H     0.28497   0.37356   0.60713   0.00000  Uiso   1.00
H575   H     0.21538   0.45929   0.64956   0.00000  Uiso   1.00
H576   H     0.28462   0.54071   0.35044   0.00000  Uiso   1.00
C577   C     0.74701   0.40025   0.48521   0.00000  Uiso   1.00
C578   C     0.75299   0.59975   0.51479   0.00000  Uiso   1.00
C579   C     0.51922   0.40943   0.44199   0.00000  Uiso   1.00
C580   C     0.98078   0.59057   0.55802   0.00000  Uiso   1.00
C581   C     0.73881   0.34525   0.47981   0.00000  Uiso   1.00
C582   C     0.76119   0.65475   0.52019   0.00000  Uiso   1.00
C583   C     0.66469   0.50114   0.50107   0.00000  Uiso   1.00
C584   C     0.83531   0.49885   0.49893   0.00000  Uiso   1.00
C585   C     0.90861   0.54238   0.52644   0.00000  Uiso   1.00
C586   C     0.59140   0.45762   0.47356   0.00000  Uiso   1.00
C587   C     0.88325   0.49722   0.49686   0.00000  Uiso   1.00
C588   C     0.61675   0.50278   0.50314   0.00000  Uiso   1.00
C589   C     0.90350   0.45175   0.46798   0.00000  Uiso   1.00
C590   C     0.59650   0.54824   0.53202   0.00000  Uiso   1.00
C591   C     0.95071   0.45307   0.46894   0.00000  Uiso   1.00
C592   C     0.54929   0.54692   0.53106   0.00000  Uiso   1.00
C593   C     0.97646   0.49940   0.49923   0.00000  Uiso   1.00
C594   C     0.52354   0.50060   0.50077   0.00000  Uiso   1.00
C595   C     0.95516   0.54447   0.52808   0.00000  Uiso   1.00
C596   C     0.54485   0.45553   0.47193   0.00000  Uiso   1.00
C597   C     0.97272   0.40890   0.44071   0.00000  Uiso   1.00
C598   C     0.52728   0.59109   0.55930   0.00000  Uiso   1.00
Cu599  Cu    0.75501   0.50579   0.56146   0.00000  Uiso   1.00
Cu600  Cu    0.74500   0.49421   0.43854   0.00000  Uiso   1.00
H601   H     0.89117   0.57603   0.54808   0.00000  Uiso   1.00
H602   H     0.60883   0.42397   0.45192   0.00000  Uiso   1.00
H603   H     0.95395   0.37326   0.41713   0.00000  Uiso   1.00
H604   H     0.54606   0.62674   0.58287   0.00000  Uiso   1.00
N605   N     0.73745   0.48547   0.34617   0.00000  Uiso   1.00
N606   N     0.76256   0.51453   0.65383   0.00000  Uiso   1.00
O607   O     0.75326   0.42871   0.53992   0.00000  Uiso   1.00
O608   O     0.74675   0.57129   0.46008   0.00000  Uiso   1.00
O609   O     0.74480   0.41892   0.43612   0.00000  Uiso   1.00
O610   O     0.75520   0.58108   0.56388   0.00000  Uiso   1.00
O611   O     0.68936   0.50488   0.55191   0.00000  Uiso   1.00
O612   O     0.81065   0.49512   0.44809   0.00000  Uiso   1.00
O613   O     0.68090   0.49510   0.44810   0.00000  Uiso   1.00
O614   O     0.81910   0.50490   0.55190   0.00000  Uiso   1.00
C615   C     0.87549   0.40179   0.43837   0.00000  Uiso   1.00
H616   H     0.88587   0.36934   0.46037   0.00000  Uiso   1.00
H617   H     0.83923   0.40466   0.44321   0.00000  Uiso   1.00
H618   H     0.88004   0.39126   0.38831   0.00000  Uiso   1.00
C619   C     0.62452   0.59821   0.56163   0.00000  Uiso   1.00
H620   H     0.61413   0.63066   0.53964   0.00000  Uiso   1.00
H621   H     0.61997   0.60873   0.61168   0.00000  Uiso   1.00
H622   H     0.66077   0.59534   0.55678   0.00000  Uiso   1.00
C623   C     0.54050   0.36021   0.41120   0.00000  Uiso   1.00
H624   H     0.51522   0.66120   0.39063   0.00000  Uiso   1.00
H625   H     0.56019   0.36839   0.37358   0.00000  Uiso   1.00
H626   H     0.56269   0.34616   0.44558   0.00000  Uiso   1.00
C627   C     0.95950   0.63978   0.58880   0.00000  Uiso   1.00
H628   H     0.98478   0.33880   0.60938   0.00000  Uiso   1.00
H629   H     0.93731   0.65383   0.55443   0.00000  Uiso   1.00
H630   H     0.93982   0.63161   0.62642   0.00000  Uiso   1.00
C631   C     0.70117   0.65197   0.43276   0.00000  Uiso   1.00
H632   H     0.68124   0.34776   0.41461   0.00000  Uiso   1.00
H633   H     0.71503   0.62643   0.39287   0.00000  Uiso   1.00
H634   H     0.67756   0.62873   0.45417   0.00000  Uiso   1.00
C635   C     0.79883   0.34802   0.56723   0.00000  Uiso   1.00
H636   H     0.81876   0.65224   0.58538   0.00000  Uiso   1.00
H637   H     0.82244   0.37126   0.54583   0.00000  Uiso   1.00
H638   H     0.78497   0.37356   0.60713   0.00000  Uiso   1.00
H639   H     0.71538   0.45929   0.64956   0.00000  Uiso   1.00
H640   H     0.78462   0.54071   0.35044   0.00000  Uiso   1.00
C641   C     0.24701   0.73358   0.48521   0.00000  Uiso   1.00
C642   C     0.25299   0.93309   0.51479   0.00000  Uiso   1.00
C643   C     0.01922   0.74276   0.44199   0.00000  Uiso   1.00
C644   C     0.48078   0.92390   0.55802   0.00000  Uiso   1.00
C645   C     0.23881   0.67858   0.47981   0.00000  Uiso   1.00
C646   C     0.26119   0.98809   0.52019   0.00000  Uiso   1.00
C647   C     0.16469   0.83448   0.50107   0.00000  Uiso   1.00
C648   C     0.33531   0.83219   0.49893   0.00000  Uiso   1.00
C649   C     0.40861   0.87572   0.52644   0.00000  Uiso   1.00
C650   C     0.09140   0.79095   0.47356   0.00000  Uiso   1.00
C651   C     0.38325   0.83055   0.49686   0.00000  Uiso   1.00
C652   C     0.11675   0.83611   0.50314   0.00000  Uiso   1.00
C653   C     0.40350   0.78509   0.46798   0.00000  Uiso   1.00
C654   C     0.09650   0.88158   0.53202   0.00000  Uiso   1.00
C655   C     0.45071   0.78641   0.46894   0.00000  Uiso   1.00
C656   C     0.04929   0.88026   0.53106   0.00000  Uiso   1.00
C657   C     0.47646   0.83273   0.49923   0.00000  Uiso   1.00
C658   C     0.02354   0.83393   0.50077   0.00000  Uiso   1.00
C659   C     0.45516   0.87780   0.52808   0.00000  Uiso   1.00
C660   C     0.04485   0.78887   0.47193   0.00000  Uiso   1.00
C661   C     0.47272   0.74224   0.44071   0.00000  Uiso   1.00
C662   C     0.02728   0.92443   0.55930   0.00000  Uiso   1.00
Cu663  Cu    0.25501   0.83913   0.56146   0.00000  Uiso   1.00
Cu664  Cu    0.24500   0.82754   0.43854   0.00000  Uiso   1.00
H665   H     0.39117   0.90936   0.54808   0.00000  Uiso   1.00
H666   H     0.10883   0.75730   0.45192   0.00000  Uiso   1.00
H667   H     0.45395   0.70659   0.41713   0.00000  Uiso   1.00
H668   H     0.04606   0.96007   0.58287   0.00000  Uiso   1.00
N669   N     0.23745   0.81881   0.34617   0.00000  Uiso   1.00
N670   N     0.26256   0.84786   0.65383   0.00000  Uiso   1.00
O671   O     0.25326   0.76204   0.53992   0.00000  Uiso   1.00
O672   O     0.24675   0.90462   0.46008   0.00000  Uiso   1.00
O673   O     0.24480   0.75226   0.43612   0.00000  Uiso   1.00
O674   O     0.25520   0.91441   0.56388   0.00000  Uiso   1.00
O675   O     0.18936   0.83821   0.55191   0.00000  Uiso   1.00
O676   O     0.31065   0.82845   0.44809   0.00000  Uiso   1.00
O677   O     0.18090   0.82843   0.44810   0.00000  Uiso   1.00
O678   O     0.31910   0.83824   0.55190   0.00000  Uiso   1.00
C679   C     0.37549   0.73512   0.43837   0.00000  Uiso   1.00
H680   H     0.38587   0.70267   0.46037   0.00000  Uiso   1.00
H681   H     0.33923   0.73799   0.44321   0.00000  Uiso   1.00
H682   H     0.38004   0.72460   0.38831   0.00000  Uiso   1.00
C683   C     0.12452   0.93155   0.56163   0.00000  Uiso   1.00
H684   H     0.11413   0.96399   0.53964   0.00000  Uiso   1.00
H685   H     0.11997   0.94207   0.61168   0.00000  Uiso   1.00
H686   H     0.16077   0.92868   0.55678   0.00000  Uiso   1.00
C687   C     0.04050   0.69354   0.41120   0.00000  Uiso   1.00
H688   H     0.01522   0.99453   0.39063   0.00000  Uiso   1.00
H689   H     0.06019   0.70172   0.37358   0.00000  Uiso   1.00
H690   H     0.06269   0.67950   0.44558   0.00000  Uiso   1.00
C691   C     0.45950   0.97312   0.58880   0.00000  Uiso   1.00
H692   H     0.48478   0.67213   0.60938   0.00000  Uiso   1.00
H693   H     0.43731   0.98717   0.55443   0.00000  Uiso   1.00
H694   H     0.43982   0.96494   0.62642   0.00000  Uiso   1.00
C695   C     0.20117   0.98531   0.43276   0.00000  Uiso   1.00
H696   H     0.18124   0.68109   0.41461   0.00000  Uiso   1.00
H697   H     0.21503   0.95977   0.39287   0.00000  Uiso   1.00
H698   H     0.17756   0.96207   0.45417   0.00000  Uiso   1.00
C699   C     0.29883   0.68136   0.56723   0.00000  Uiso   1.00
H700   H     0.31876   0.98558   0.58538   0.00000  Uiso   1.00
H701   H     0.32244   0.70460   0.54583   0.00000  Uiso   1.00
H702   H     0.28497   0.70690   0.60713   0.00000  Uiso   1.00
H703   H     0.21538   0.79262   0.64956   0.00000  Uiso   1.00
H704   H     0.28462   0.87404   0.35044   0.00000  Uiso   1.00
C705   C     0.74701   0.73358   0.48521   0.00000  Uiso   1.00
C706   C     0.75299   0.93309   0.51479   0.00000  Uiso   1.00
C707   C     0.51922   0.74276   0.44199   0.00000  Uiso   1.00
C708   C     0.98078   0.92390   0.55802   0.00000  Uiso   1.00
C709   C     0.73881   0.67858   0.47981   0.00000  Uiso   1.00
C710   C     0.76119   0.98809   0.52019   0.00000  Uiso   1.00
C711   C     0.66469   0.83448   0.50107   0.00000  Uiso   1.00
C712   C     0.83531   0.83219   0.49893   0.00000  Uiso   1.00
C713   C     0.90861   0.87572   0.52644   0.00000  Uiso   1.00
C714   C     0.59140   0.79095   0.47356   0.00000  Uiso   1.00
C715   C     0.88325   0.83055   0.49686   0.00000  Uiso   1.00
C716   C     0.61675   0.83611   0.50314   0.00000  Uiso   1.00
C717   C     0.90350   0.78509   0.46798   0.00000  Uiso   1.00
C718   C     0.59650   0.88158   0.53202   0.00000  Uiso   1.00
C719   C     0.95071   0.78641   0.46894   0.00000  Uiso   1.00
C720   C     0.54929   0.88026   0.53106   0.00000  Uiso   1.00
C721   C     0.97646   0.83273   0.49923   0.00000  Uiso   1.00
C722   C     0.52354   0.83393   0.50077   0.00000  Uiso   1.00
C723   C     0.95516   0.87780   0.52808   0.00000  Uiso   1.00
C724   C     0.54485   0.78887   0.47193   0.00000  Uiso   1.00
C725   C     0.97272   0.74224   0.44071   0.00000  Uiso   1.00
C726   C     0.52728   0.92443   0.55930   0.00000  Uiso   1.00
Cu727  Cu    0.75501   0.83913   0.56146   0.00000  Uiso   1.00
Cu728  Cu    0.74500   0.82754   0.43854   0.00000  Uiso   1.00
H729   H     0.89117   0.90936   0.54808   0.00000  Uiso   1.00
H730   H     0.60883   0.75730   0.45192   0.00000  Uiso   1.00
H731   H     0.95395   0.70659   0.41713   0.00000  Uiso   1.00
H732   H     0.54606   0.96007   0.58287   0.00000  Uiso   1.00
N733   N     0.73745   0.81881   0.34617   0.00000  Uiso   1.00
N734   N     0.76256   0.84786   0.65383   0.00000  Uiso   1.00
O735   O     0.75326   0.76204   0.53992   0.00000  Uiso   1.00
O736   O     0.74675   0.90462   0.46008   0.00000  Uiso   1.00
O737   O     0.74480   0.75226   0.43612   0.00000  Uiso   1.00
O738   O     0.75520   0.91441   0.56388   0.00000  Uiso   1.00
O739   O     0.68936   0.83821   0.55191   0.00000  Uiso   1.00
O740   O     0.81065   0.82845   0.44809   0.00000  Uiso   1.00
O741   O     0.68090   0.82843   0.44810   0.00000  Uiso   1.00
O742   O     0.81910   0.83824   0.55190   0.00000  Uiso   1.00
C743   C     0.87549   0.73512   0.43837   0.00000  Uiso   1.00
H744   H     0.88587   0.70267   0.46037   0.00000  Uiso   1.00
H745   H     0.83923   0.73799   0.44321   0.00000  Uiso   1.00
H746   H     0.88004   0.72460   0.38831   0.00000  Uiso   1.00
C747   C     0.62452   0.93155   0.56163   0.00000  Uiso   1.00
H748   H     0.61413   0.96399   0.53964   0.00000  Uiso   1.00
H749   H     0.61997   0.94207   0.61168   0.00000  Uiso   1.00
H750   H     0.66077   0.92868   0.55678   0.00000  Uiso   1.00
C751   C     0.54050   0.69354   0.41120   0.00000  Uiso   1.00
H752   H     0.51522   0.99453   0.39063   0.00000  Uiso   1.00
H753   H     0.56019   0.70172   0.37358   0.00000  Uiso   1.00
H754   H     0.56269   0.67950   0.44558   0.00000  Uiso   1.00
C755   C     0.95950   0.97312   0.58880   0.00000  Uiso   1.00
H756   H     0.98478   0.67213   0.60938   0.00000  Uiso   1.00
H757   H     0.93731   0.98717   0.55443   0.00000  Uiso   1.00
H758   H     0.93982   0.96494   0.62642   0.00000  Uiso   1.00
C759   C     0.70117   0.98531   0.43276   0.00000  Uiso   1.00
H760   H     0.68124   0.68109   0.41461   0.00000  Uiso   1.00
H761   H     0.71503   0.95977   0.39287   0.00000  Uiso   1.00
H762   H     0.67756   0.96207   0.45417   0.00000  Uiso   1.00
C763   C     0.79883   0.68136   0.56723   0.00000  Uiso   1.00
H764   H     0.81876   0.98558   0.58538   0.00000  Uiso   1.00
H765   H     0.82244   0.70460   0.54583   0.00000  Uiso   1.00
H766   H     0.78497   0.70690   0.60713   0.00000  Uiso   1.00
H767   H     0.71538   0.79262   0.64956   0.00000  Uiso   1.00
H768   H     0.78462   0.87404   0.35044   0.00000  Uiso   1.00
C769   C     0.24701   0.06691   0.81854   0.00000  Uiso   1.00
C770   C     0.25299   0.26642   0.84812   0.00000  Uiso   1.00
C771   C     0.01922   0.07610   0.77532   0.00000  Uiso   1.00
C772   C     0.48078   0.25723   0.89135   0.00000  Uiso   1.00
C773   C     0.23881   0.01191   0.81314   0.00000  Uiso   1.00
C774   C     0.26119   0.32142   0.85352   0.00000  Uiso   1.00
C775   C     0.16469   0.16781   0.83440   0.00000  Uiso   1.00
C776   C     0.33531   0.16552   0.83226   0.00000  Uiso   1.00
C777   C     0.40861   0.20905   0.85977   0.00000  Uiso   1.00
C778   C     0.09140   0.12428   0.80690   0.00000  Uiso   1.00
C779   C     0.38325   0.16389   0.83020   0.00000  Uiso   1.00
C780   C     0.11675   0.16944   0.83647   0.00000  Uiso   1.00
C781   C     0.40350   0.11842   0.80131   0.00000  Uiso   1.00
C782   C     0.09650   0.21491   0.86535   0.00000  Uiso   1.00
C783   C     0.45071   0.11974   0.80227   0.00000  Uiso   1.00
C784   C     0.04929   0.21359   0.86440   0.00000  Uiso   1.00
C785   C     0.47646   0.16607   0.83256   0.00000  Uiso   1.00
C786   C     0.02354   0.16726   0.83411   0.00000  Uiso   1.00
C787   C     0.45516   0.21113   0.86141   0.00000  Uiso   1.00
C788   C     0.04485   0.12220   0.80526   0.00000  Uiso   1.00
C789   C     0.47272   0.07557   0.77404   0.00000  Uiso   1.00
C790   C     0.02728   0.25776   0.89263   0.00000  Uiso   1.00
Cu791  Cu    0.25501   0.17246   0.89479   0.00000  Uiso   1.00
Cu792  Cu    0.24500   0.16087   0.77187   0.00000  Uiso   1.00
H793   H     0.39117   0.24269   0.88141   0.00000  Uiso   1.00
H794   H     0.10883   0.09064   0.78526   0.00000  Uiso   1.00
H795   H     0.45395   0.03992   0.75046   0.00000  Uiso   1.00
H796   H     0.04606   0.29341   0.91621   0.00000  Uiso   1.00
N797   N     0.23745   0.15214   0.67951   0.00000  Uiso   1.00
N798   N     0.26256   0.18119   0.98716   0.00000  Uiso   1.00
O799   O     0.25326   0.09538   0.87326   0.00000  Uiso   1.00
O800   O     0.24675   0.23796   0.79341   0.00000  Uiso   1.00
O801   O     0.24480   0.08559   0.76945   0.00000  Uiso   1.00
O802   O     0.25520   0.24774   0.89721   0.00000  Uiso   1.00
O803   O     0.18936   0.17155   0.88524   0.00000  Uiso   1.00
O804   O     0.31065   0.16179   0.78143   0.00000  Uiso   1.00
O805   O     0.18090   0.16176   0.78143   0.00000  Uiso   1.00
O806   O     0.31910   0.17157   0.88523   0.00000  Uiso   1.00
C807   C     0.37549   0.06845   0.77170   0.00000  Uiso   1.00
H808   H     0.38587   0.03601   0.79370   0.00000  Uiso   1.00
H809   H     0.33923   0.07133   0.77654   0.00000  Uiso   1.00
H810   H     0.38004   0.05793   0.72165   0.00000  Uiso   1.00
C811   C     0.12452   0.26488   0.89496   0.00000  Uiso   1.00
H812   H     0.11413   0.29733   0.87297   0.00000  Uiso   1.00
H813   H     0.11997   0.27540   0.94502   0.00000  Uiso   1.00
H814   H     0.16077   0.26201   0.89011   0.00000  Uiso   1.00
C815   C     0.04050   0.02688   0.74454   0.00000  Uiso   1.00
H816   H     0.01522   0.32786   0.72397   0.00000  Uiso   1.00
H817   H     0.06019   0.03505   0.70691   0.00000  Uiso   1.00
H818   H     0.06269   0.01283   0.77891   0.00000  Uiso   1.00
C819   C     0.45950   0.30645   0.92214   0.00000  Uiso   1.00
H820   H     0.48478   0.00547   0.94271   0.00000  Uiso   1.00
H821   H     0.43731   0.32050   0.88776   0.00000  Uiso   1.00
H822   H     0.43982   0.29828   0.95976   0.00000  Uiso   1.00
C823   C     0.20117   0.31864   0.76610   0.00000  Uiso   1.00
H824   H     0.18124   0.01442   0.74795   0.00000  Uiso   1.00
H825   H     0.21503   0.29310   0.72621   0.00000  Uiso   1.00
H826   H     0.17756   0.29540   0.78750   0.00000  Uiso   1.00
C827   C     0.29883   0.01469   0.90057   0.00000  Uiso   1.00
H828   H     0.31876   0.31891   0.91872   0.00000  Uiso   1.00
H829   H     0.32244   0.03793   0.87916   0.00000  Uiso   1.00
H830   H     0.28497   0.04023   0.94046   0.00000  Uiso   1.00
H831   H     0.21538   0.12596   0.98289   0.00000  Uiso   1.00
H832   H     0.28462   0.20738   0.68378   0.00000  Uiso   1.00
C833   C     0.74701   0.06691   0.81854   0.00000  Uiso   1.00
C834   C     0.75299   0.26642   0.84812   0.00000  Uiso   1.00
C835   C     0.51922   0.07610   0.77532   0.00000  Uiso   1.00
C836   C     0.98078   0.25723   0.89135   0.00000  Uiso   1.00
C837   C     0.73881   0.01191   0.81314   0.00000  Uiso   1.00
C838   C     0.76119   0.32142   0.85352   0.00000  Uiso   1.00
C839   C     0.66469   0.16781   0.83440   0.00000  Uiso   1.00
C840   C     0.83531   0.16552   0.83226   0.00000  Uiso   1.00
C841   C     0.90861   0.20905   0.85977   0.00000  Uiso   1.00
C842   C     0.59140   0.12428   0.80690   0.00000  Uiso   1.00
C843   C     0.88325   0.16389   0.83020   0.00000  Uiso   1.00
C844   C     0.61675   0.16944   0.83647   0.00000  Uiso   1.00
C845   C     0.90350   0.11842   0.80131   0.00000  Uiso   1.00
C846   C     0.59650   0.21491   0.86535   0.00000  Uiso   1.00
C847   C     0.95071   0.11974   0.80227   0.00000  Uiso   1.00
C848   C     0.54929   0.21359   0.86440   0.00000  Uiso   1.00
C849   C     0.97646   0.16607   0.83256   0.00000  Uiso   1.00
C850   C     0.52354   0.16726   0.83411   0.00000  Uiso   1.00
C851   C     0.95516   0.21113   0.86141   0.00000  Uiso   1.00
C852   C     0.54485   0.12220   0.80526   0.00000  Uiso   1.00
C853   C     0.97272   0.07557   0.77404   0.00000  Uiso   1.00
C854   C     0.52728   0.25776   0.89263   0.00000  Uiso   1.00
Cu855  Cu    0.75501   0.17246   0.89479   0.00000  Uiso   1.00
Cu856  Cu    0.74500   0.16087   0.77187   0.00000  Uiso   1.00
H857   H     0.89117   0.24269   0.88141   0.00000  Uiso   1.00
H858   H     0.60883   0.09064   0.78526   0.00000  Uiso   1.00
H859   H     0.95395   0.03992   0.75046   0.00000  Uiso   1.00
H860   H     0.54606   0.29341   0.91621   0.00000  Uiso   1.00
N861   N     0.73745   0.15214   0.67951   0.00000  Uiso   1.00
N862   N     0.76256   0.18119   0.98716   0.00000  Uiso   1.00
O863   O     0.75326   0.09538   0.87326   0.00000  Uiso   1.00
O864   O     0.74675   0.23796   0.79341   0.00000  Uiso   1.00
O865   O     0.74480   0.08559   0.76945   0.00000  Uiso   1.00
O866   O     0.75520   0.24774   0.89721   0.00000  Uiso   1.00
O867   O     0.68936   0.17155   0.88524   0.00000  Uiso   1.00
O868   O     0.81065   0.16179   0.78143   0.00000  Uiso   1.00
O869   O     0.68090   0.16176   0.78143   0.00000  Uiso   1.00
O870   O     0.81910   0.17157   0.88523   0.00000  Uiso   1.00
C871   C     0.87549   0.06845   0.77170   0.00000  Uiso   1.00
H872   H     0.88587   0.03601   0.79370   0.00000  Uiso   1.00
H873   H     0.83923   0.07133   0.77654   0.00000  Uiso   1.00
H874   H     0.88004   0.05793   0.72165   0.00000  Uiso   1.00
C875   C     0.62452   0.26488   0.89496   0.00000  Uiso   1.00
H876   H     0.61413   0.29733   0.87297   0.00000  Uiso   1.00
H877   H     0.61997   0.27540   0.94502   0.00000  Uiso   1.00
H878   H     0.66077   0.26201   0.89011   0.00000  Uiso   1.00
C879   C     0.54050   0.02688   0.74454   0.00000  Uiso   1.00
H880   H     0.51522   0.32786   0.72397   0.00000  Uiso   1.00
H881   H     0.56019   0.03505   0.70691   0.00000  Uiso   1.00
H882   H     0.56269   0.01283   0.77891   0.00000  Uiso   1.00
C883   C     0.95950   0.30645   0.92214   0.00000  Uiso   1.00
H884   H     0.98478   0.00547   0.94271   0.00000  Uiso   1.00
H885   H     0.93731   0.32050   0.88776   0.00000  Uiso   1.00
H886   H     0.93982   0.29828   0.95976   0.00000  Uiso   1.00
C887   C     0.70117   0.31864   0.76610   0.00000  Uiso   1.00
H888   H     0.68124   0.01442   0.74795   0.00000  Uiso   1.00
H889   H     0.71503   0.29310   0.72621   0.00000  Uiso   1.00
H890   H     0.67756   0.29540   0.78750   0.00000  Uiso   1.00
C891   C     0.79883   0.01469   0.90057   0.00000  Uiso   1.00
H892   H     0.81876   0.31891   0.91872   0.00000  Uiso   1.00
H893   H     0.82244   0.03793   0.87916   0.00000  Uiso   1.00
H894   H     0.78497   0.04023   0.94046   0.00000  Uiso   1.00
H895   H     0.71538   0.12596   0.98289   0.00000  Uiso   1.00
H896   H     0.78462   0.20738   0.68378   0.00000  Uiso   1.00
C897   C     0.24701   0.40025   0.81854   0.00000  Uiso   1.00
C898   C     0.25299   0.59975   0.84812   0.00000  Uiso   1.00
C899   C     0.01922   0.40943   0.77532   0.00000  Uiso   1.00
C900   C     0.48078   0.59057   0.89135   0.00000  Uiso   1.00
C901   C     0.23881   0.34525   0.81314   0.00000  Uiso   1.00
C902   C     0.26119   0.65475   0.85352   0.00000  Uiso   1.00
C903   C     0.16469   0.50114   0.83440   0.00000  Uiso   1.00
C904   C     0.33531   0.49885   0.83226   0.00000  Uiso   1.00
C905   C     0.40861   0.54238   0.85977   0.00000  Uiso   1.00
C906   C     0.09140   0.45762   0.80690   0.00000  Uiso   1.00
C907   C     0.38325   0.49722   0.83020   0.00000  Uiso   1.00
C908   C     0.11675   0.50278   0.83647   0.00000  Uiso   1.00
C909   C     0.40350   0.45175   0.80131   0.00000  Uiso   1.00
C910   C     0.09650   0.54824   0.86535   0.00000  Uiso   1.00
C911   C     0.45071   0.45307   0.80227   0.00000  Uiso   1.00
C912   C     0.04929   0.54692   0.86440   0.00000  Uiso   1.00
C913   C     0.47646   0.49940   0.83256   0.00000  Uiso   1.00
C914   C     0.02354   0.50060   0.83411   0.00000  Uiso   1.00
C915   C     0.45516   0.54447   0.86141   0.00000  Uiso   1.00
C916   C     0.04485   0.45553   0.80526   0.00000  Uiso   1.00
C917   C     0.47272   0.40890   0.77404   0.00000  Uiso   1.00
C918   C     0.02728   0.59109   0.89263   0.00000  Uiso   1.00
Cu919  Cu    0.25501   0.50579   0.89479   0.00000  Uiso   1.00
Cu920  Cu    0.24500   0.49421   0.77187   0.00000  Uiso   1.00
H921   H     0.39117   0.57603   0.88141   0.00000  Uiso   1.00
H922   H     0.10883   0.42397   0.78526   0.00000  Uiso   1.00
H923   H     0.45395   0.37326   0.75046   0.00000  Uiso   1.00
H924   H     0.04606   0.62674   0.91621   0.00000  Uiso   1.00
N925   N     0.23745   0.48547   0.67951   0.00000  Uiso   1.00
N926   N     0.26256   0.51453   0.98716   0.00000  Uiso   1.00
O927   O     0.25326   0.42871   0.87326   0.00000  Uiso   1.00
O928   O     0.24675   0.57129   0.79341   0.00000  Uiso   1.00
O929   O     0.24480   0.41892   0.76945   0.00000  Uiso   1.00
O930   O     0.25520   0.58108   0.89721   0.00000  Uiso   1.00
O931   O     0.18936   0.50488   0.88524   0.00000  Uiso   1.00
O932   O     0.31065   0.49512   0.78143   0.00000  Uiso   1.00
O933   O     0.18090   0.49510   0.78143   0.00000  Uiso   1.00
O934   O     0.31910   0.50490   0.88523   0.00000  Uiso   1.00
C935   C     0.37549   0.40179   0.77170   0.00000  Uiso   1.00
H936   H     0.38587   0.36934   0.79370   0.00000  Uiso   1.00
H937   H     0.33923   0.40466   0.77654   0.00000  Uiso   1.00
H938   H     0.38004   0.39126   0.72165   0.00000  Uiso   1.00
C939   C     0.12452   0.59821   0.89496   0.00000  Uiso   1.00
H940   H     0.11413   0.63066   0.87297   0.00000  Uiso   1.00
H941   H     0.11997   0.60873   0.94502   0.00000  Uiso   1.00
H942   H     0.16077   0.59534   0.89011   0.00000  Uiso   1.00
C943   C     0.04050   0.36021   0.74454   0.00000  Uiso   1.00
H944   H     0.01522   0.66120   0.72397   0.00000  Uiso   1.00
H945   H     0.06019   0.36839   0.70691   0.00000  Uiso   1.00
H946   H     0.06269   0.34616   0.77891   0.00000  Uiso   1.00
C947   C     0.45950   0.63978   0.92214   0.00000  Uiso   1.00
H948   H     0.48478   0.33880   0.94271   0.00000  Uiso   1.00
H949   H     0.43731   0.65383   0.88776   0.00000  Uiso   1.00
H950   H     0.43982   0.63161   0.95976   0.00000  Uiso   1.00
C951   C     0.20117   0.65197   0.76610   0.00000  Uiso   1.00
H952   H     0.18124   0.34776   0.74795   0.00000  Uiso   1.00
H953   H     0.21503   0.62643   0.72621   0.00000  Uiso   1.00
H954   H     0.17756   0.62873   0.78750   0.00000  Uiso   1.00
C955   C     0.29883   0.34802   0.90057   0.00000  Uiso   1.00
H956   H     0.31876   0.65224   0.91872   0.00000  Uiso   1.00
H957   H     0.32244   0.37126   0.87916   0.00000  Uiso   1.00
H958   H     0.28497   0.37356   0.94046   0.00000  Uiso   1.00
H959   H     0.21538   0.45929   0.98289   0.00000  Uiso   1.00
H960   H     0.28462   0.54071   0.68378   0.00000  Uiso   1.00
C961   C     0.74701   0.40025   0.81854   0.00000  Uiso   1.00
C962   C     0.75299   0.59975   0.84812   0.00000  Uiso   1.00
C963   C     0.51922   0.40943   0.77532   0.00000  Uiso   1.00
C964   C     0.98078   0.59057   0.89135   0.00000  Uiso   1.00
C965   C     0.73881   0.34525   0.81314   0.00000  Uiso   1.00
C966   C     0.76119   0.65475   0.85352   0.00000  Uiso   1.00
C967   C     0.66469   0.50114   0.83440   0.00000  Uiso   1.00
C968   C     0.83531   0.49885   0.83226   0.00000  Uiso   1.00
C969   C     0.90861   0.54238   0.85977   0.00000  Uiso   1.00
C970   C     0.59140   0.45762   0.80690   0.00000  Uiso   1.00
C971   C     0.88325   0.49722   0.83020   0.00000  Uiso   1.00
C972   C     0.61675   0.50278   0.83647   0.00000  Uiso   1.00
C973   C     0.90350   0.45175   0.80131   0.00000  Uiso   1.00
C974   C     0.59650   0.54824   0.86535   0.00000  Uiso   1.00
C975   C     0.95071   0.45307   0.80227   0.00000  Uiso   1.00
C976   C     0.54929   0.54692   0.86440   0.00000  Uiso   1.00
C977   C     0.97646   0.49940   0.83256   0.00000  Uiso   1.00
C978   C     0.52354   0.50060   0.83411   0.00000  Uiso   1.00
C979   C     0.95516   0.54447   0.86141   0.00000  Uiso   1.00
C980   C     0.54485   0.45553   0.80526   0.00000  Uiso   1.00
C981   C     0.97272   0.40890   0.77404   0.00000  Uiso   1.00
C982   C     0.52728   0.59109   0.89263   0.00000  Uiso   1.00
Cu983  Cu    0.75501   0.50579   0.89479   0.00000  Uiso   1.00
Cu984  Cu    0.74500   0.49421   0.77187   0.00000  Uiso   1.00
H985   H     0.89117   0.57603   0.88141   0.00000  Uiso   1.00
H986   H     0.60883   0.42397   0.78526   0.00000  Uiso   1.00
H987   H     0.95395   0.37326   0.75046   0.00000  Uiso   1.00
H988   H     0.54606   0.62674   0.91621   0.00000  Uiso   1.00
N989   N     0.73745   0.48547   0.67951   0.00000  Uiso   1.00
N990   N     0.76256   0.51453   0.98716   0.00000  Uiso   1.00
O991   O     0.75326   0.42871   0.87326   0.00000  Uiso   1.00
O992   O     0.74675   0.57129   0.79341   0.00000  Uiso   1.00
O993   O     0.74480   0.41892   0.76945   0.00000  Uiso   1.00
O994   O     0.75520   0.58108   0.89721   0.00000  Uiso   1.00
O995   O     0.68936   0.50488   0.88524   0.00000  Uiso   1.00
O996   O     0.81065   0.49512   0.78143   0.00000  Uiso   1.00
O997   O     0.68090   0.49510   0.78143   0.00000  Uiso   1.00
O998   O     0.81910   0.50490   0.88523   0.00000  Uiso   1.00
C999   C     0.87549   0.40179   0.77170   0.00000  Uiso   1.00
H1000  H     0.88587   0.36934   0.79370   0.00000  Uiso   1.00
H1001  H     0.83923   0.40466   0.77654   0.00000  Uiso   1.00
H1002  H     0.88004   0.39126   0.72165   0.00000  Uiso   1.00
C1003  C     0.62452   0.59821   0.89496   0.00000  Uiso   1.00
H1004  H     0.61413   0.63066   0.87297   0.00000  Uiso   1.00
H1005  H     0.61997   0.60873   0.94502   0.00000  Uiso   1.00
H1006  H     0.66077   0.59534   0.89011   0.00000  Uiso   1.00
C1007  C     0.54050   0.36021   0.74454   0.00000  Uiso   1.00
H1008  H     0.51522   0.66120   0.72397   0.00000  Uiso   1.00
H1009  H     0.56019   0.36839   0.70691   0.00000  Uiso   1.00
H1010  H     0.56269   0.34616   0.77891   0.00000  Uiso   1.00
C1011  C     0.95950   0.63978   0.92214   0.00000  Uiso   1.00
H1012  H     0.98478   0.33880   0.94271   0.00000  Uiso   1.00
H1013  H     0.93731   0.65383   0.88776   0.00000  Uiso   1.00
H1014  H     0.93982   0.63161   0.95976   0.00000  Uiso   1.00
C1015  C     0.70117   0.65197   0.76610   0.00000  Uiso   1.00
H1016  H     0.68124   0.34776   0.74795   0.00000  Uiso   1.00
H1017  H     0.71503   0.62643   0.72621   0.00000  Uiso   1.00
H1018  H     0.67756   0.62873   0.78750   0.00000  Uiso   1.00
C1019  C     0.79883   0.34802   0.90057   0.00000  Uiso   1.00
H1020  H     0.81876   0.65224   0.91872   0.00000  Uiso   1.00
H1021  H     0.82244   0.37126   0.87916   0.00000  Uiso   1.00
H1022  H     0.78497   0.37356   0.94046   0.00000  Uiso   1.00
H1023  H     0.71538   0.45929   0.98289   0.00000  Uiso   1.00
H1024  H     0.78462   0.54071   0.68378   0.00000  Uiso   1.00
C1025  C     0.24701   0.73358   0.81854   0.00000  Uiso   1.00
C1026  C     0.25299   0.93309   0.84812   0.00000  Uiso   1.00
C1027  C     0.01922   0.74276   0.77532   0.00000  Uiso   1.00
C1028  C     0.48078   0.92390   0.89135   0.00000  Uiso   1.00
C1029  C     0.23881   0.67858   0.81314   0.00000  Uiso   1.00
C1030  C     0.26119   0.98809   0.85352   0.00000  Uiso   1.00
C1031  C     0.16469   0.83448   0.83440   0.00000  Uiso   1.00
C1032  C     0.33531   0.83219   0.83226   0.00000  Uiso   1.00
C1033  C     0.40861   0.87572   0.85977   0.00000  Uiso   1.00
C1034  C     0.09140   0.79095   0.80690   0.00000  Uiso   1.00
C1035  C     0.38325   0.83055   0.83020   0.00000  Uiso   1.00
C1036  C     0.11675   0.83611   0.83647   0.00000  Uiso   1.00
C1037  C     0.40350   0.78509   0.80131   0.00000  Uiso   1.00
C1038  C     0.09650   0.88158   0.86535   0.00000  Uiso   1.00
C1039  C     0.45071   0.78641   0.80227   0.00000  Uiso   1.00
C1040  C     0.04929   0.88026   0.86440   0.00000  Uiso   1.00
C1041  C     0.47646   0.83273   0.83256   0.00000  Uiso   1.00
C1042  C     0.02354   0.83393   0.83411   0.00000  Uiso   1.00
C1043  C     0.45516   0.87780   0.86141   0.00000  Uiso   1.00
C1044  C     0.04485   0.78887   0.80526   0.00000  Uiso   1.00
C1045  C     0.47272   0.74224   0.77404   0.00000  Uiso   1.00
C1046  C     0.02728   0.92443   0.89263   0.00000  Uiso   1.00
Cu1047 Cu    0.25501   0.83913   0.89479   0.00000  Uiso   1.00
Cu1048 Cu    0.24500   0.82754   0.77187   0.00000  Uiso   1.00
H1049  H     0.39117   0.90936   0.88141   0.00000  Uiso   1.00
H1050  H     0.10883   0.75730   0.78526   0.00000  Uiso   1.00
H1051  H     0.45395   0.70659   0.75046   0.00000  Uiso   1.00
H1052  H     0.04606   0.96007   0.91621   0.00000  Uiso   1.00
N1053  N     0.23745   0.81881   0.67951   0.00000  Uiso   1.00
N1054  N     0.26256   0.84786   0.98716   0.00000  Uiso   1.00
O1055  O     0.25326   0.76204   0.87326   0.00000  Uiso   1.00
O1056  O     0.24675   0.90462   0.79341   0.00000  Uiso   1.00
O1057  O     0.24480   0.75226   0.76945   0.00000  Uiso   1.00
O1058  O     0.25520   0.91441   0.89721   0.00000  Uiso   1.00
O1059  O     0.18936   0.83821   0.88524   0.00000  Uiso   1.00
O1060  O     0.31065   0.82845   0.78143   0.00000  Uiso   1.00
O1061  O     0.18090   0.82843   0.78143   0.00000  Uiso   1.00
O1062  O     0.31910   0.83824   0.88523   0.00000  Uiso   1.00
C1063  C     0.37549   0.73512   0.77170   0.00000  Uiso   1.00
H1064  H     0.38587   0.70267   0.79370   0.00000  Uiso   1.00
H1065  H     0.33923   0.73799   0.77654   0.00000  Uiso   1.00
H1066  H     0.38004   0.72460   0.72165   0.00000  Uiso   1.00
C1067  C     0.12452   0.93155   0.89496   0.00000  Uiso   1.00
H1068  H     0.11413   0.96399   0.87297   0.00000  Uiso   1.00
H1069  H     0.11997   0.94207   0.94502   0.00000  Uiso   1.00
H1070  H     0.16077   0.92868   0.89011   0.00000  Uiso   1.00
C1071  C     0.04050   0.69354   0.74454   0.00000  Uiso   1.00
H1072  H     0.01522   0.99453   0.72397   0.00000  Uiso   1.00
H1073  H     0.06019   0.70172   0.70691   0.00000  Uiso   1.00
H1074  H     0.06269   0.67950   0.77891   0.00000  Uiso   1.00
C1075  C     0.45950   0.97312   0.92214   0.00000  Uiso   1.00
H1076  H     0.48478   0.67213   0.94271   0.00000  Uiso   1.00
H1077  H     0.43731   0.98717   0.88776   0.00000  Uiso   1.00
H1078  H     0.43982   0.96494   0.95976   0.00000  Uiso   1.00
C1079  C     0.20117   0.98531   0.76610   0.00000  Uiso   1.00
H1080  H     0.18124   0.68109   0.74795   0.00000  Uiso   1.00
H1081  H     0.21503   0.95977   0.72621   0.00000  Uiso   1.00
H1082  H     0.17756   0.96207   0.78750   0.00000  Uiso   1.00
C1083  C     0.29883   0.68136   0.90057   0.00000  Uiso   1.00
H1084  H     0.31876   0.98558   0.91872   0.00000  Uiso   1.00
H1085  H     0.32244   0.70460   0.87916   0.00000  Uiso   1.00
H1086  H     0.28497   0.70690   0.94046   0.00000  Uiso   1.00
H1087  H     0.21538   0.79262   0.98289   0.00000  Uiso   1.00
H1088  H     0.28462   0.87404   0.68378   0.00000  Uiso   1.00
C1089  C     0.74701   0.73358   0.81854   0.00000  Uiso   1.00
C1090  C     0.75299   0.93309   0.84812   0.00000  Uiso   1.00
C1091  C     0.51922   0.74276   0.77532   0.00000  Uiso   1.00
C1092  C     0.98078   0.92390   0.89135   0.00000  Uiso   1.00
C1093  C     0.73881   0.67858   0.81314   0.00000  Uiso   1.00
C1094  C     0.76119   0.98809   0.85352   0.00000  Uiso   1.00
C1095  C     0.66469   0.83448   0.83440   0.00000  Uiso   1.00
C1096  C     0.83531   0.83219   0.83226   0.00000  Uiso   1.00
C1097  C     0.90861   0.87572   0.85977   0.00000  Uiso   1.00
C1098  C     0.59140   0.79095   0.80690   0.00000  Uiso   1.00
C1099  C     0.88325   0.83055   0.83020   0.00000  Uiso   1.00
C1100  C     0.61675   0.83611   0.83647   0.00000  Uiso   1.00
C1101  C     0.90350   0.78509   0.80131   0.00000  Uiso   1.00
C1102  C     0.59650   0.88158   0.86535   0.00000  Uiso   1.00
C1103  C     0.95071   0.78641   0.80227   0.00000  Uiso   1.00
C1104  C     0.54929   0.88026   0.86440   0.00000  Uiso   1.00
C1105  C     0.97646   0.83273   0.83256   0.00000  Uiso   1.00
C1106  C     0.52354   0.83393   0.83411   0.00000  Uiso   1.00
C1107  C     0.95516   0.87780   0.86141   0.00000  Uiso   1.00
C1108  C     0.54485   0.78887   0.80526   0.00000  Uiso   1.00
C1109  C     0.97272   0.74224   0.77404   0.00000  Uiso   1.00
C1110  C     0.52728   0.92443   0.89263   0.00000  Uiso   1.00
Cu1111 Cu    0.75501   0.83913   0.89479   0.00000  Uiso   1.00
Cu1112 Cu    0.74500   0.82754   0.77187   0.00000  Uiso   1.00
H1113  H     0.89117   0.90936   0.88141   0.00000  Uiso   1.00
H1114  H     0.60883   0.75730   0.78526   0.00000  Uiso   1.00
H1115  H     0.95395   0.70659   0.75046   0.00000  Uiso   1.00
H1116  H     0.54606   0.96007   0.91621   0.00000  Uiso   1.00
N1117  N     0.73745   0.81881   0.67951   0.00000  Uiso   1.00
N1118  N     0.76256   0.84786   0.98716   0.00000  Uiso   1.00
O1119  O     0.75326   0.76204   0.87326   0.00000  Uiso   1.00
O1120  O     0.74675   0.90462   0.79341   0.00000  Uiso   1.00
O1121  O     0.74480   0.75226   0.76945   0.00000  Uiso   1.00
O1122  O     0.75520   0.91441   0.89721   0.00000  Uiso   1.00
O1123  O     0.68936   0.83821   0.88524   0.00000  Uiso   1.00
O1124  O     0.81065   0.82845   0.78143   0.00000  Uiso   1.00
O1125  O     0.68090   0.82843   0.78143   0.00000  Uiso   1.00
O1126  O     0.81910   0.83824   0.88523   0.00000  Uiso   1.00
C1127  C     0.87549   0.73512   0.77170   0.00000  Uiso   1.00
H1128  H     0.88587   0.70267   0.79370   0.00000  Uiso   1.00
H1129  H     0.83923   0.73799   0.77654   0.00000  Uiso   1.00
H1130  H     0.88004   0.72460   0.72165   0.00000  Uiso   1.00
C1131  C     0.62452   0.93155   0.89496   0.00000  Uiso   1.00
H1132  H     0.61413   0.96399   0.87297   0.00000  Uiso   1.00
H1133  H     0.61997   0.94207   0.94502   0.00000  Uiso   1.00
H1134  H     0.66077   0.92868   0.89011   0.00000  Uiso   1.00
C1135  C     0.54050   0.69354   0.74454   0.00000  Uiso   1.00
H1136  H     0.51522   0.99453   0.72397   0.00000  Uiso   1.00
H1137  H     0.56019   0.70172   0.70691   0.00000  Uiso   1.00
H1138  H     0.56269   0.67950   0.77891   0.00000  Uiso   1.00
C1139  C     0.95950   0.97312   0.92214   0.00000  Uiso   1.00
H1140  H     0.98478   0.67213   0.94271   0.00000  Uiso   1.00
H1141  H     0.93731   0.98717   0.88776   0.00000  Uiso   1.00
H1142  H     0.93982   0.96494   0.95976   0.00000  Uiso   1.00
C1143  C     0.70117   0.98531   0.76610   0.00000  Uiso   1.00
H1144  H     0.68124   0.68109   0.74795   0.00000  Uiso   1.00
H1145  H     0.71503   0.95977   0.72621   0.00000  Uiso   1.00
H1146  H     0.67756   0.96207   0.78750   0.00000  Uiso   1.00
C1147  C     0.79883   0.68136   0.90057   0.00000  Uiso   1.00
H1148  H     0.81876   0.98558   0.91872   0.00000  Uiso   1.00
H1149  H     0.82244   0.70460   0.87916   0.00000  Uiso   1.00
H1150  H     0.78497   0.70690   0.94046   0.00000  Uiso   1.00
H1151  H     0.71538   0.79262   0.98289   0.00000  Uiso   1.00
H1152  H     0.78462   0.87404   0.68378   0.00000  Uiso   1.00
loop_
_geom_bond_atom_site_label_1
_geom_bond_atom_site_label_2
_geom_bond_distance
_geom_bond_site_symmetry_2
_ccdc_geom_bond_type
C1     O33     1.288   .     A
C1     C5      1.426   .     S
C1     O31     1.283   .     A
C2     O34     1.288   .     A
C2     O32     1.283   .     A
C2     C6      1.426   .     S
C3     C20     1.414   .     A
C3     C47     1.513   .     S
C3     C85     1.394   1_455 S
C4     C51     1.513   .     S
C4     C19     1.414   .     A
C4     C86     1.394   .     S
C5     C262    1.355   1_545 S
C5     C311    1.523   1_545 S
C6     C133    1.355   .     S
C6     C187    1.523   .     S
C7     O37     1.290   .     A
C7     C12     1.445   .     S
C7     O35     1.292   .     A
C8     O38     1.290   .     A
C8     C11     1.445   .     S
C8     O36     1.292   .     A
C9     C11     1.390   .     A
C9     H25     1.083   .     S
C9     C19     1.394   .     A
C10    H26     1.083   .     S
C10    C12     1.390   .     A
C10    C20     1.394   .     A
C11    C13     1.410   .     A
C12    C14     1.410   .     A
C13    C15     1.415   .     A
C13    C39     1.521   .     S
C14    C16     1.415   .     A
C14    C43     1.521   .     S
C15    C21     1.407   .     A
C15    C17     1.422   .     A
C16    C22     1.407   .     A
C16    C18     1.422   .     A
C17    C19     1.417   .     A
C17    C82     1.410   .     S
C18    C20     1.417   .     A
C18    C81     1.410   1_455 S
C21    H27     1.081   .     S
C21    C67     1.394   .     S
C22    H28     1.081   .     S
C22    C68     1.394   1_455 S
Cu23   O38     1.951   .     S
Cu23   O34     1.957   .     S
Cu23   O35     1.966   .     S
Cu23   N30     2.018   .     S
Cu23   Cu24    2.685   .     S
Cu23   O31     1.967   .     S
Cu24   O32     1.967   .     S
Cu24   O33     1.957   .     S
Cu24   O37     1.951   .     S
Cu24   O36     1.966   .     S
Cu24   N29     2.018   .     S
N29    N798    1.292   1_554 S
N29    H831    1.029   1_554 S
N30    N413    1.292   .     S
N30    H448    1.029   .     S
C39    H42     1.111   .     S
C39    H41     1.105   .     S
C39    H40     1.111   .     S
C43    H44     1.111   .     S
C43    H45     1.111   .     S
C43    H46     1.105   .     S
C47    H50     1.111   .     S
C47    H49     1.110   .     S
C47    H304    1.111   1_545 S
H48    C175    1.111   .     S
C51    H54     1.110   .     S
C51    H53     1.111   .     S
C51    H180    1.111   .     S
H52    C307    1.111   1_545 S
C55    H57     1.110   .     S
C55    H58     1.111   .     S
C55    C133    1.523   .     S
C55    H184    1.111   .     S
H56    C311    1.111   1_545 S
C59    H61     1.111   .     S
C59    H62     1.110   .     S
C59    C262    1.523   1_545 S
C59    H316    1.111   1_545 S
H60    C187    1.111   .     S
H63    N413    1.029   .     S
H64    N798    1.029   1_554 S
C65    O97     1.288   .     A
C65    C69     1.426   .     S
C65    O95     1.283   .     A
C66    O98     1.288   .     A
C66    O96     1.283   .     A
C66    C70     1.426   .     S
C67    C84     1.414   .     A
C67    C111    1.513   .     S
C68    C115    1.513   .     S
C68    C83     1.414   .     A
C68    C22     1.394   1_655 S
C69    C326    1.355   1_545 S
C69    C375    1.523   1_545 S
C70    C197    1.355   .     S
C70    C251    1.523   .     S
C71    O101    1.290   .     A
C71    C76     1.445   .     S
C71    O99     1.292   .     A
C72    O102    1.290   .     A
C72    C75     1.445   .     S
C72    O100    1.292   .     A
C73    C75     1.390   .     A
C73    H89     1.083   .     S
C73    C83     1.394   .     A
C74    H90     1.083   .     S
C74    C76     1.390   .     A
C74    C84     1.394   .     A
C75    C77     1.410   .     A
C76    C78     1.410   .     A
C77    C79     1.415   .     A
C77    C103    1.521   .     S
C78    C80     1.415   .     A
C78    C107    1.521   .     S
C79    C85     1.407   .     A
C79    C81     1.422   .     A
C80    C86     1.407   .     A
C80    C82     1.422   .     A
C81    C83     1.417   .     A
C81    C18     1.410   1_655 S
C82    C84     1.417   .     A
C85    H91     1.081   .     S
C85    C3      1.394   1_655 S
C86    H92     1.081   .     S
Cu87   O102    1.951   .     S
Cu87   O98     1.957   .     S
Cu87   O99     1.966   .     S
Cu87   N94     2.018   .     S
Cu87   Cu88    2.685   .     S
Cu87   O95     1.967   .     S
Cu88   O96     1.967   .     S
Cu88   O97     1.957   .     S
Cu88   O101    1.951   .     S
Cu88   O100    1.966   .     S
Cu88   N93     2.018   .     S
N93    N862    1.292   1_554 S
N93    H895    1.029   1_554 S
N94    N477    1.292   .     S
N94    H512    1.029   .     S
C103   H106    1.111   .     S
C103   H105    1.105   .     S
C103   H104    1.111   .     S
C107   H108    1.111   .     S
C107   H109    1.111   .     S
C107   H110    1.105   .     S
C111   H114    1.111   .     S
C111   H113    1.110   .     S
C111   H368    1.111   1_545 S
H112   C239    1.111   .     S
C115   H118    1.110   .     S
C115   H117    1.111   .     S
C115   H244    1.111   .     S
H116   C371    1.111   1_545 S
C119   H121    1.110   .     S
C119   H122    1.111   .     S
C119   C197    1.523   .     S
C119   H248    1.111   .     S
H120   C375    1.111   1_545 S
C123   H125    1.111   .     S
C123   H126    1.110   .     S
C123   C326    1.523   1_545 S
C123   H380    1.111   1_545 S
H124   C251    1.111   .     S
H127   N477    1.029   .     S
H128   N862    1.029   1_554 S
C129   O161    1.288   .     A
C129   C133    1.426   .     S
C129   O159    1.283   .     A
C130   O162    1.288   .     A
C130   O160    1.283   .     A
C130   C134    1.426   .     S
C131   C148    1.414   .     A
C131   C175    1.513   .     S
C131   C213    1.394   1_455 S
C132   C179    1.513   .     S
C132   C147    1.414   .     A
C132   C214    1.394   .     S
C134   C261    1.355   .     S
C134   C315    1.523   .     S
C135   O165    1.290   .     A
C135   C140    1.445   .     S
C135   O163    1.292   .     A
C136   O166    1.290   .     A
C136   C139    1.445   .     S
C136   O164    1.292   .     A
C137   C139    1.390   .     A
C137   H153    1.083   .     S
C137   C147    1.394   .     A
C138   H154    1.083   .     S
C138   C140    1.390   .     A
C138   C148    1.394   .     A
C139   C141    1.410   .     A
C140   C142    1.410   .     A
C141   C143    1.415   .     A
C141   C167    1.521   .     S
C142   C144    1.415   .     A
C142   C171    1.521   .     S
C143   C149    1.407   .     A
C143   C145    1.422   .     A
C144   C150    1.407   .     A
C144   C146    1.422   .     A
C145   C147    1.417   .     A
C145   C210    1.410   .     S
C146   C148    1.417   .     A
C146   C209    1.410   1_455 S
C149   H155    1.081   .     S
C149   C195    1.394   .     S
C150   H156    1.081   .     S
C150   C196    1.394   1_455 S
Cu151  O166    1.951   .     S
Cu151  O162    1.957   .     S
Cu151  O163    1.966   .     S
Cu151  N158    2.018   .     S
Cu151  Cu152   2.685   .     S
Cu151  O159    1.967   .     S
Cu152  O160    1.967   .     S
Cu152  O161    1.957   .     S
Cu152  O165    1.951   .     S
Cu152  O164    1.966   .     S
Cu152  N157    2.018   .     S
N157   N926    1.292   1_554 S
N157   H959    1.029   1_554 S
N158   N541    1.292   .     S
N158   H576    1.029   .     S
C167   H170    1.111   .     S
C167   H169    1.105   .     S
C167   H168    1.111   .     S
C171   H172    1.111   .     S
C171   H173    1.111   .     S
C171   H174    1.105   .     S
C175   H178    1.111   .     S
C175   H177    1.110   .     S
H176   C303    1.111   .     S
C179   H182    1.110   .     S
C179   H181    1.111   .     S
C179   H308    1.111   .     S
C183   H185    1.110   .     S
C183   H186    1.111   .     S
C183   C261    1.523   .     S
C183   H312    1.111   .     S
C187   H189    1.111   .     S
C187   H190    1.110   .     S
H188   C315    1.111   .     S
H191   N541    1.029   .     S
H192   N926    1.029   1_554 S
C193   O225    1.288   .     A
C193   C197    1.426   .     S
C193   O223    1.283   .     A
C194   O226    1.288   .     A
C194   O224    1.283   .     A
C194   C198    1.426   .     S
C195   C212    1.414   .     A
C195   C239    1.513   .     S
C196   C243    1.513   .     S
C196   C211    1.414   .     A
C196   C150    1.394   1_655 S
C198   C325    1.355   .     S
C198   C379    1.523   .     S
C199   O229    1.290   .     A
C199   C204    1.445   .     S
C199   O227    1.292   .     A
C200   O230    1.290   .     A
C200   C203    1.445   .     S
C200   O228    1.292   .     A
C201   C203    1.390   .     A
C201   H217    1.083   .     S
C201   C211    1.394   .     A
C202   H218    1.083   .     S
C202   C204    1.390   .     A
C202   C212    1.394   .     A
C203   C205    1.410   .     A
C204   C206    1.410   .     A
C205   C207    1.415   .     A
C205   C231    1.521   .     S
C206   C208    1.415   .     A
C206   C235    1.521   .     S
C207   C213    1.407   .     A
C207   C209    1.422   .     A
C208   C214    1.407   .     A
C208   C210    1.422   .     A
C209   C211    1.417   .     A
C209   C146    1.410   1_655 S
C210   C212    1.417   .     A
C213   H219    1.081   .     S
C213   C131    1.394   1_655 S
C214   H220    1.081   .     S
Cu215  O230    1.951   .     S
Cu215  O226    1.957   .     S
Cu215  O227    1.966   .     S
Cu215  N222    2.018   .     S
Cu215  Cu216   2.685   .     S
Cu215  O223    1.967   .     S
Cu216  O224    1.967   .     S
Cu216  O225    1.957   .     S
Cu216  O229    1.951   .     S
Cu216  O228    1.966   .     S
Cu216  N221    2.018   .     S
N221   N990    1.292   1_554 S
N221   H1023   1.029   1_554 S
N222   N605    1.292   .     S
N222   H640    1.029   .     S
C231   H234    1.111   .     S
C231   H233    1.105   .     S
C231   H232    1.111   .     S
C235   H236    1.111   .     S
C235   H237    1.111   .     S
C235   H238    1.105   .     S
C239   H242    1.111   .     S
C239   H241    1.110   .     S
H240   C367    1.111   .     S
C243   H246    1.110   .     S
C243   H245    1.111   .     S
C243   H372    1.111   .     S
C247   H249    1.110   .     S
C247   H250    1.111   .     S
C247   C325    1.523   .     S
C247   H376    1.111   .     S
C251   H253    1.111   .     S
C251   H254    1.110   .     S
H252   C379    1.111   .     S
H255   N605    1.029   .     S
H256   N990    1.029   1_554 S
C257   O289    1.288   .     A
C257   C261    1.426   .     S
C257   O287    1.283   .     A
C258   O290    1.288   .     A
C258   O288    1.283   .     A
C258   C262    1.426   .     S
C259   C276    1.414   .     A
C259   C303    1.513   .     S
C259   C341    1.394   1_455 S
C260   C307    1.513   .     S
C260   C275    1.414   .     A
C260   C342    1.394   .     S
C262   C5      1.355   1_565 S
C262   C59     1.523   1_565 S
C263   O293    1.290   .     A
C263   C268    1.445   .     S
C263   O291    1.292   .     A
C264   O294    1.290   .     A
C264   C267    1.445   .     S
C264   O292    1.292   .     A
C265   C267    1.390   .     A
C265   H281    1.083   .     S
C265   C275    1.394   .     A
C266   H282    1.083   .     S
C266   C268    1.390   .     A
C266   C276    1.394   .     A
C267   C269    1.410   .     A
C268   C270    1.410   .     A
C269   C271    1.415   .     A
C269   C295    1.521   .     S
C270   C272    1.415   .     A
C270   C299    1.521   .     S
C271   C277    1.407   .     A
C271   C273    1.422   .     A
C272   C278    1.407   .     A
C272   C274    1.422   .     A
C273   C275    1.417   .     A
C273   C338    1.410   .     S
C274   C276    1.417   .     A
C274   C337    1.410   1_455 S
C277   H283    1.081   .     S
C277   C323    1.394   .     S
C278   H284    1.081   .     S
C278   C324    1.394   1_455 S
Cu279  O294    1.951   .     S
Cu279  O290    1.957   .     S
Cu279  O291    1.966   .     S
Cu279  N286    2.018   .     S
Cu279  Cu280   2.685   .     S
Cu279  O287    1.967   .     S
Cu280  O288    1.967   .     S
Cu280  O289    1.957   .     S
Cu280  O293    1.951   .     S
Cu280  O292    1.966   .     S
Cu280  N285    2.018   .     S
N285   N1054   1.292   1_554 S
N285   H1087   1.029   1_554 S
N286   N669    1.292   .     S
N286   H704    1.029   .     S
C295   H298    1.111   .     S
C295   H297    1.105   .     S
C295   H296    1.111   .     S
C299   H300    1.111   .     S
C299   H301    1.111   .     S
C299   H302    1.105   .     S
C303   H306    1.111   .     S
C303   H305    1.110   .     S
H304   C47     1.111   1_565 S
C307   H310    1.110   .     S
C307   H309    1.111   .     S
C307   H52     1.111   1_565 S
C311   H313    1.110   .     S
C311   H314    1.111   .     S
C311   C5      1.523   1_565 S
C311   H56     1.111   1_565 S
C315   H317    1.111   .     S
C315   H318    1.110   .     S
H316   C59     1.111   1_565 S
H319   N669    1.029   .     S
H320   N1054   1.029   1_554 S
C321   O353    1.288   .     A
C321   C325    1.426   .     S
C321   O351    1.283   .     A
C322   O354    1.288   .     A
C322   O352    1.283   .     A
C322   C326    1.426   .     S
C323   C340    1.414   .     A
C323   C367    1.513   .     S
C324   C371    1.513   .     S
C324   C339    1.414   .     A
C324   C278    1.394   1_655 S
C326   C69     1.355   1_565 S
C326   C123    1.523   1_565 S
C327   O357    1.290   .     A
C327   C332    1.445   .     S
C327   O355    1.292   .     A
C328   O358    1.290   .     A
C328   C331    1.445   .     S
C328   O356    1.292   .     A
C329   C331    1.390   .     A
C329   H345    1.083   .     S
C329   C339    1.394   .     A
C330   H346    1.083   .     S
C330   C332    1.390   .     A
C330   C340    1.394   .     A
C331   C333    1.410   .     A
C332   C334    1.410   .     A
C333   C335    1.415   .     A
C333   C359    1.521   .     S
C334   C336    1.415   .     A
C334   C363    1.521   .     S
C335   C341    1.407   .     A
C335   C337    1.422   .     A
C336   C342    1.407   .     A
C336   C338    1.422   .     A
C337   C339    1.417   .     A
C337   C274    1.410   1_655 S
C338   C340    1.417   .     A
C341   H347    1.081   .     S
C341   C259    1.394   1_655 S
C342   H348    1.081   .     S
Cu343  O358    1.951   .     S
Cu343  O354    1.957   .     S
Cu343  O355    1.966   .     S
Cu343  N350    2.018   .     S
Cu343  Cu344   2.685   .     S
Cu343  O351    1.967   .     S
Cu344  O352    1.967   .     S
Cu344  O353    1.957   .     S
Cu344  O357    1.951   .     S
Cu344  O356    1.966   .     S
Cu344  N349    2.018   .     S
N349   N1118   1.292   1_554 S
N349   H1151   1.029   1_554 S
N350   N733    1.292   .     S
N350   H768    1.029   .     S
C359   H362    1.111   .     S
C359   H361    1.105   .     S
C359   H360    1.111   .     S
C363   H364    1.111   .     S
C363   H365    1.111   .     S
C363   H366    1.105   .     S
C367   H370    1.111   .     S
C367   H369    1.110   .     S
H368   C111    1.111   1_565 S
C371   H374    1.110   .     S
C371   H373    1.111   .     S
C371   H116    1.111   1_565 S
C375   H377    1.110   .     S
C375   H378    1.111   .     S
C375   C69     1.523   1_565 S
C375   H120    1.111   1_565 S
C379   H381    1.111   .     S
C379   H382    1.110   .     S
H380   C123    1.111   1_565 S
H383   N733    1.029   .     S
H384   N1118   1.029   1_554 S
C385   O417    1.288   .     A
C385   C389    1.426   .     S
C385   O415    1.283   .     A
C386   O418    1.288   .     A
C386   O416    1.283   .     A
C386   C390    1.426   .     S
C387   C404    1.414   .     A
C387   C431    1.513   .     S
C387   C469    1.394   1_455 S
C388   C435    1.513   .     S
C388   C403    1.414   .     A
C388   C470    1.394   .     S
C389   C646    1.355   1_545 S
C389   C695    1.523   1_545 S
C390   C517    1.355   .     S
C390   C571    1.523   .     S
C391   O421    1.290   .     A
C391   C396    1.445   .     S
C391   O419    1.292   .     A
C392   O422    1.290   .     A
C392   C395    1.445   .     S
C392   O420    1.292   .     A
C393   C395    1.390   .     A
C393   H409    1.083   .     S
C393   C403    1.394   .     A
C394   H410    1.083   .     S
C394   C396    1.390   .     A
C394   C404    1.394   .     A
C395   C397    1.410   .     A
C396   C398    1.410   .     A
C397   C399    1.415   .     A
C397   C423    1.521   .     S
C398   C400    1.415   .     A
C398   C427    1.521   .     S
C399   C405    1.407   .     A
C399   C401    1.422   .     A
C400   C406    1.407   .     A
C400   C402    1.422   .     A
C401   C403    1.417   .     A
C401   C466    1.410   .     S
C402   C404    1.417   .     A
C402   C465    1.410   1_455 S
C405   H411    1.081   .     S
C405   C451    1.394   .     S
C406   H412    1.081   .     S
C406   C452    1.394   1_455 S
Cu407  O422    1.951   .     S
Cu407  O418    1.957   .     S
Cu407  O419    1.966   .     S
Cu407  N414    2.018   .     S
Cu407  Cu408   2.685   .     S
Cu407  O415    1.967   .     S
Cu408  O416    1.967   .     S
Cu408  O417    1.957   .     S
Cu408  O421    1.951   .     S
Cu408  O420    1.966   .     S
Cu408  N413    2.018   .     S
N414   N797    1.292   .     S
N414   H832    1.029   .     S
C423   H426    1.111   .     S
C423   H425    1.105   .     S
C423   H424    1.111   .     S
C427   H428    1.111   .     S
C427   H429    1.111   .     S
C427   H430    1.105   .     S
C431   H434    1.111   .     S
C431   H433    1.110   .     S
C431   H688    1.111   1_545 S
H432   C559    1.111   .     S
C435   H438    1.110   .     S
C435   H437    1.111   .     S
C435   H564    1.111   .     S
H436   C691    1.111   1_545 S
C439   H441    1.110   .     S
C439   H442    1.111   .     S
C439   C517    1.523   .     S
C439   H568    1.111   .     S
H440   C695    1.111   1_545 S
C443   H445    1.111   .     S
C443   H446    1.110   .     S
C443   C646    1.523   1_545 S
C443   H700    1.111   1_545 S
H444   C571    1.111   .     S
H447   N797    1.029   .     S
C449   O481    1.288   .     A
C449   C453    1.426   .     S
C449   O479    1.283   .     A
C450   O482    1.288   .     A
C450   O480    1.283   .     A
C450   C454    1.426   .     S
C451   C468    1.414   .     A
C451   C495    1.513   .     S
C452   C499    1.513   .     S
C452   C467    1.414   .     A
C452   C406    1.394   1_655 S
C453   C710    1.355   1_545 S
C453   C759    1.523   1_545 S
C454   C581    1.355   .     S
C454   C635    1.523   .     S
C455   O485    1.290   .     A
C455   C460    1.445   .     S
C455   O483    1.292   .     A
C456   O486    1.290   .     A
C456   C459    1.445   .     S
C456   O484    1.292   .     A
C457   C459    1.390   .     A
C457   H473    1.083   .     S
C457   C467    1.394   .     A
C458   H474    1.083   .     S
C458   C460    1.390   .     A
C458   C468    1.394   .     A
C459   C461    1.410   .     A
C460   C462    1.410   .     A
C461   C463    1.415   .     A
C461   C487    1.521   .     S
C462   C464    1.415   .     A
C462   C491    1.521   .     S
C463   C469    1.407   .     A
C463   C465    1.422   .     A
C464   C470    1.407   .     A
C464   C466    1.422   .     A
C465   C467    1.417   .     A
C465   C402    1.410   1_655 S
C466   C468    1.417   .     A
C469   H475    1.081   .     S
C469   C387    1.394   1_655 S
C470   H476    1.081   .     S
Cu471  O486    1.951   .     S
Cu471  O482    1.957   .     S
Cu471  O483    1.966   .     S
Cu471  N478    2.018   .     S
Cu471  Cu472   2.685   .     S
Cu471  O479    1.967   .     S
Cu472  O480    1.967   .     S
Cu472  O481    1.957   .     S
Cu472  O485    1.951   .     S
Cu472  O484    1.966   .     S
Cu472  N477    2.018   .     S
N478   N861    1.292   .     S
N478   H896    1.029   .     S
C487   H490    1.111   .     S
C487   H489    1.105   .     S
C487   H488    1.111   .     S
C491   H492    1.111   .     S
C491   H493    1.111   .     S
C491   H494    1.105   .     S
C495   H498    1.111   .     S
C495   H497    1.110   .     S
C495   H752    1.111   1_545 S
H496   C623    1.111   .     S
C499   H502    1.110   .     S
C499   H501    1.111   .     S
C499   H628    1.111   .     S
H500   C755    1.111   1_545 S
C503   H505    1.110   .     S
C503   H506    1.111   .     S
C503   C581    1.523   .     S
C503   H632    1.111   .     S
H504   C759    1.111   1_545 S
C507   H509    1.111   .     S
C507   H510    1.110   .     S
C507   C710    1.523   1_545 S
C507   H764    1.111   1_545 S
H508   C635    1.111   .     S
H511   N861    1.029   .     S
C513   O545    1.288   .     A
C513   C517    1.426   .     S
C513   O543    1.283   .     A
C514   O546    1.288   .     A
C514   O544    1.283   .     A
C514   C518    1.426   .     S
C515   C532    1.414   .     A
C515   C559    1.513   .     S
C515   C597    1.394   1_455 S
C516   C563    1.513   .     S
C516   C531    1.414   .     A
C516   C598    1.394   .     S
C518   C645    1.355   .     S
C518   C699    1.523   .     S
C519   O549    1.290   .     A
C519   C524    1.445   .     S
C519   O547    1.292   .     A
C520   O550    1.290   .     A
C520   C523    1.445   .     S
C520   O548    1.292   .     A
C521   C523    1.390   .     A
C521   H537    1.083   .     S
C521   C531    1.394   .     A
C522   H538    1.083   .     S
C522   C524    1.390   .     A
C522   C532    1.394   .     A
C523   C525    1.410   .     A
C524   C526    1.410   .     A
C525   C527    1.415   .     A
C525   C551    1.521   .     S
C526   C528    1.415   .     A
C526   C555    1.521   .     S
C527   C533    1.407   .     A
C527   C529    1.422   .     A
C528   C534    1.407   .     A
C528   C530    1.422   .     A
C529   C531    1.417   .     A
C529   C594    1.410   .     S
C530   C532    1.417   .     A
C530   C593    1.410   1_455 S
C533   H539    1.081   .     S
C533   C579    1.394   .     S
C534   H540    1.081   .     S
C534   C580    1.394   1_455 S
Cu535  O550    1.951   .     S
Cu535  O546    1.957   .     S
Cu535  O547    1.966   .     S
Cu535  N542    2.018   .     S
Cu535  Cu536   2.685   .     S
Cu535  O543    1.967   .     S
Cu536  O544    1.967   .     S
Cu536  O545    1.957   .     S
Cu536  O549    1.951   .     S
Cu536  O548    1.966   .     S
Cu536  N541    2.018   .     S
N542   N925    1.292   .     S
N542   H960    1.029   .     S
C551   H554    1.111   .     S
C551   H553    1.105   .     S
C551   H552    1.111   .     S
C555   H556    1.111   .     S
C555   H557    1.111   .     S
C555   H558    1.105   .     S
C559   H562    1.111   .     S
C559   H561    1.110   .     S
H560   C687    1.111   .     S
C563   H566    1.110   .     S
C563   H565    1.111   .     S
C563   H692    1.111   .     S
C567   H569    1.110   .     S
C567   H570    1.111   .     S
C567   C645    1.523   .     S
C567   H696    1.111   .     S
C571   H573    1.111   .     S
C571   H574    1.110   .     S
H572   C699    1.111   .     S
H575   N925    1.029   .     S
C577   O609    1.288   .     A
C577   C581    1.426   .     S
C577   O607    1.283   .     A
C578   O610    1.288   .     A
C578   O608    1.283   .     A
C578   C582    1.426   .     S
C579   C596    1.414   .     A
C579   C623    1.513   .     S
C580   C627    1.513   .     S
C580   C595    1.414   .     A
C580   C534    1.394   1_655 S
C582   C709    1.355   .     S
C582   C763    1.523   .     S
C583   O613    1.290   .     A
C583   C588    1.445   .     S
C583   O611    1.292   .     A
C584   O614    1.290   .     A
C584   C587    1.445   .     S
C584   O612    1.292   .     A
C585   C587    1.390   .     A
C585   H601    1.083   .     S
C585   C595    1.394   .     A
C586   H602    1.083   .     S
C586   C588    1.390   .     A
C586   C596    1.394   .     A
C587   C589    1.410   .     A
C588   C590    1.410   .     A
C589   C591    1.415   .     A
C589   C615    1.521   .     S
C590   C592    1.415   .     A
C590   C619    1.521   .     S
C591   C597    1.407   .     A
C591   C593    1.422   .     A
C592   C598    1.407   .     A
C592   C594    1.422   .     A
C593   C595    1.417   .     A
C593   C530    1.410   1_655 S
C594   C596    1.417   .     A
C597   H603    1.081   .     S
C597   C515    1.394   1_655 S
C598   H604    1.081   .     S
Cu599  O614    1.951   .     S
Cu599  O610    1.957   .     S
Cu599  O611    1.966   .     S
Cu599  N606    2.018   .     S
Cu599  Cu600   2.685   .     S
Cu599  O607    1.967   .     S
Cu600  O608    1.967   .     S
Cu600  O609    1.957   .     S
Cu600  O613    1.951   .     S
Cu600  O612    1.966   .     S
Cu600  N605    2.018   .     S
N606   N989    1.292   .     S
N606   H1024   1.029   .     S
C615   H618    1.111   .     S
C615   H617    1.105   .     S
C615   H616    1.111   .     S
C619   H620    1.111   .     S
C619   H621    1.111   .     S
C619   H622    1.105   .     S
C623   H626    1.111   .     S
C623   H625    1.110   .     S
H624   C751    1.111   .     S
C627   H630    1.110   .     S
C627   H629    1.111   .     S
C627   H756    1.111   .     S
C631   H633    1.110   .     S
C631   H634    1.111   .     S
C631   C709    1.523   .     S
C631   H760    1.111   .     S
C635   H637    1.111   .     S
C635   H638    1.110   .     S
H636   C763    1.111   .     S
H639   N989    1.029   .     S
C641   O673    1.288   .     A
C641   C645    1.426   .     S
C641   O671    1.283   .     A
C642   O674    1.288   .     A
C642   O672    1.283   .     A
C642   C646    1.426   .     S
C643   C660    1.414   .     A
C643   C687    1.513   .     S
C643   C725    1.394   1_455 S
C644   C691    1.513   .     S
C644   C659    1.414   .     A
C644   C726    1.394   .     S
C646   C389    1.355   1_565 S
C646   C443    1.523   1_565 S
C647   O677    1.290   .     A
C647   C652    1.445   .     S
C647   O675    1.292   .     A
C648   O678    1.290   .     A
C648   C651    1.445   .     S
C648   O676    1.292   .     A
C649   C651    1.390   .     A
C649   H665    1.083   .     S
C649   C659    1.394   .     A
C650   H666    1.083   .     S
C650   C652    1.390   .     A
C650   C660    1.394   .     A
C651   C653    1.410   .     A
C652   C654    1.410   .     A
C653   C655    1.415   .     A
C653   C679    1.521   .     S
C654   C656    1.415   .     A
C654   C683    1.521   .     S
C655   C661    1.407   .     A
C655   C657    1.422   .     A
C656   C662    1.407   .     A
C656   C658    1.422   .     A
C657   C659    1.417   .     A
C657   C722    1.410   .     S
C658   C660    1.417   .     A
C658   C721    1.410   1_455 S
C661   H667    1.081   .     S
C661   C707    1.394   .     S
C662   H668    1.081   .     S
C662   C708    1.394   1_455 S
Cu663  O678    1.951   .     S
Cu663  O674    1.957   .     S
Cu663  O675    1.966   .     S
Cu663  N670    2.018   .     S
Cu663  Cu664   2.685   .     S
Cu663  O671    1.967   .     S
Cu664  O672    1.967   .     S
Cu664  O673    1.957   .     S
Cu664  O677    1.951   .     S
Cu664  O676    1.966   .     S
Cu664  N669    2.018   .     S
N670   N1053   1.292   .     S
N670   H1088   1.029   .     S
C679   H682    1.111   .     S
C679   H681    1.105   .     S
C679   H680    1.111   .     S
C683   H684    1.111   .     S
C683   H685    1.111   .     S
C683   H686    1.105   .     S
C687   H690    1.111   .     S
C687   H689    1.110   .     S
H688   C431    1.111   1_565 S
C691   H694    1.110   .     S
C691   H693    1.111   .     S
C691   H436    1.111   1_565 S
C695   H697    1.110   .     S
C695   H698    1.111   .     S
C695   C389    1.523   1_565 S
C695   H440    1.111   1_565 S
C699   H701    1.111   .     S
C699   H702    1.110   .     S
H700   C443    1.111   1_565 S
H703   N1053   1.029   .     S
C705   O737    1.288   .     A
C705   C709    1.426   .     S
C705   O735    1.283   .     A
C706   O738    1.288   .     A
C706   O736    1.283   .     A
C706   C710    1.426   .     S
C707   C724    1.414   .     A
C707   C751    1.513   .     S
C708   C755    1.513   .     S
C708   C723    1.414   .     A
C708   C662    1.394   1_655 S
C710   C453    1.355   1_565 S
C710   C507    1.523   1_565 S
C711   O741    1.290   .     A
C711   C716    1.445   .     S
C711   O739    1.292   .     A
C712   O742    1.290   .     A
C712   C715    1.445   .     S
C712   O740    1.292   .     A
C713   C715    1.390   .     A
C713   H729    1.083   .     S
C713   C723    1.394   .     A
C714   H730    1.083   .     S
C714   C716    1.390   .     A
C714   C724    1.394   .     A
C715   C717    1.410   .     A
C716   C718    1.410   .     A
C717   C719    1.415   .     A
C717   C743    1.521   .     S
C718   C720    1.415   .     A
C718   C747    1.521   .     S
C719   C725    1.407   .     A
C719   C721    1.422   .     A
C720   C726    1.407   .     A
C720   C722    1.422   .     A
C721   C723    1.417   .     A
C721   C658    1.410   1_655 S
C722   C724    1.417   .     A
C725   H731    1.081   .     S
C725   C643    1.394   1_655 S
C726   H732    1.081   .     S
Cu727  O742    1.951   .     S
Cu727  O738    1.957   .     S
Cu727  O739    1.966   .     S
Cu727  N734    2.018   .     S
Cu727  Cu728   2.685   .     S
Cu727  O735    1.967   .     S
Cu728  O736    1.967   .     S
Cu728  O737    1.957   .     S
Cu728  O741    1.951   .     S
Cu728  O740    1.966   .     S
Cu728  N733    2.018   .     S
N734   N1117   1.292   .     S
N734   H1152   1.029   .     S
C743   H746    1.111   .     S
C743   H745    1.105   .     S
C743   H744    1.111   .     S
C747   H748    1.111   .     S
C747   H749    1.111   .     S
C747   H750    1.105   .     S
C751   H754    1.111   .     S
C751   H753    1.110   .     S
H752   C495    1.111   1_565 S
C755   H758    1.110   .     S
C755   H757    1.111   .     S
C755   H500    1.111   1_565 S
C759   H761    1.110   .     S
C759   H762    1.111   .     S
C759   C453    1.523   1_565 S
C759   H504    1.111   1_565 S
C763   H765    1.111   .     S
C763   H766    1.110   .     S
H764   C507    1.111   1_565 S
H767   N1117   1.029   .     S
C769   O801    1.288   .     A
C769   C773    1.426   .     S
C769   O799    1.283   .     A
C770   O802    1.288   .     A
C770   O800    1.283   .     A
C770   C774    1.426   .     S
C771   C788    1.414   .     A
C771   C815    1.513   .     S
C771   C853    1.394   1_455 S
C772   C819    1.513   .     S
C772   C787    1.414   .     A
C772   C854    1.394   .     S
C773   C1030   1.355   1_545 S
C773   C1079   1.523   1_545 S
C774   C901    1.355   .     S
C774   C955    1.523   .     S
C775   O805    1.290   .     A
C775   C780    1.445   .     S
C775   O803    1.292   .     A
C776   O806    1.290   .     A
C776   C779    1.445   .     S
C776   O804    1.292   .     A
C777   C779    1.390   .     A
C777   H793    1.083   .     S
C777   C787    1.394   .     A
C778   H794    1.083   .     S
C778   C780    1.390   .     A
C778   C788    1.394   .     A
C779   C781    1.410   .     A
C780   C782    1.410   .     A
C781   C783    1.415   .     A
C781   C807    1.521   .     S
C782   C784    1.415   .     A
C782   C811    1.521   .     S
C783   C789    1.407   .     A
C783   C785    1.422   .     A
C784   C790    1.407   .     A
C784   C786    1.422   .     A
C785   C787    1.417   .     A
C785   C850    1.410   .     S
C786   C788    1.417   .     A
C786   C849    1.410   1_455 S
C789   H795    1.081   .     S
C789   C835    1.394   .     S
C790   H796    1.081   .     S
C790   C836    1.394   1_455 S
Cu791  O806    1.951   .     S
Cu791  O802    1.957   .     S
Cu791  O803    1.966   .     S
Cu791  N798    2.018   .     S
Cu791  Cu792   2.685   .     S
Cu791  O799    1.967   .     S
Cu792  O800    1.967   .     S
Cu792  O801    1.957   .     S
Cu792  O805    1.951   .     S
Cu792  O804    1.966   .     S
Cu792  N797    2.018   .     S
N798   N29     1.292   1_556 S
N798   H64     1.029   1_556 S
C807   H810    1.111   .     S
C807   H809    1.105   .     S
C807   H808    1.111   .     S
C811   H812    1.111   .     S
C811   H813    1.111   .     S
C811   H814    1.105   .     S
C815   H818    1.111   .     S
C815   H817    1.110   .     S
C815   H1072   1.111   1_545 S
H816   C943    1.111   .     S
C819   H822    1.110   .     S
C819   H821    1.111   .     S
C819   H948    1.111   .     S
H820   C1075   1.111   1_545 S
C823   H825    1.110   .     S
C823   H826    1.111   .     S
C823   C901    1.523   .     S
C823   H952    1.111   .     S
H824   C1079   1.111   1_545 S
C827   H829    1.111   .     S
C827   H830    1.110   .     S
C827   C1030   1.523   1_545 S
C827   H1084   1.111   1_545 S
H828   C955    1.111   .     S
H831   N29     1.029   1_556 S
C833   O865    1.288   .     A
C833   C837    1.426   .     S
C833   O863    1.283   .     A
C834   O866    1.288   .     A
C834   O864    1.283   .     A
C834   C838    1.426   .     S
C835   C852    1.414   .     A
C835   C879    1.513   .     S
C836   C883    1.513   .     S
C836   C851    1.414   .     A
C836   C790    1.394   1_655 S
C837   C1094   1.355   1_545 S
C837   C1143   1.523   1_545 S
C838   C965    1.355   .     S
C838   C1019   1.523   .     S
C839   O869    1.290   .     A
C839   C844    1.445   .     S
C839   O867    1.292   .     A
C840   O870    1.290   .     A
C840   C843    1.445   .     S
C840   O868    1.292   .     A
C841   C843    1.390   .     A
C841   H857    1.083   .     S
C841   C851    1.394   .     A
C842   H858    1.083   .     S
C842   C844    1.390   .     A
C842   C852    1.394   .     A
C843   C845    1.410   .     A
C844   C846    1.410   .     A
C845   C847    1.415   .     A
C845   C871    1.521   .     S
C846   C848    1.415   .     A
C846   C875    1.521   .     S
C847   C853    1.407   .     A
C847   C849    1.422   .     A
C848   C854    1.407   .     A
C848   C850    1.422   .     A
C849   C851    1.417   .     A
C849   C786    1.410   1_655 S
C850   C852    1.417   .     A
C853   H859    1.081   .     S
C853   C771    1.394   1_655 S
C854   H860    1.081   .     S
Cu855  O870    1.951   .     S
Cu855  O866    1.957   .     S
Cu855  O867    1.966   .     S
Cu855  N862    2.018   .     S
Cu855  Cu856   2.685   .     S
Cu855  O863    1.967   .     S
Cu856  O864    1.967   .     S
Cu856  O865    1.957   .     S
Cu856  O869    1.951   .     S
Cu856  O868    1.966   .     S
Cu856  N861    2.018   .     S
N862   N93     1.292   1_556 S
N862   H128    1.029   1_556 S
C871   H874    1.111   .     S
C871   H873    1.105   .     S
C871   H872    1.111   .     S
C875   H876    1.111   .     S
C875   H877    1.111   .     S
C875   H878    1.105   .     S
C879   H882    1.111   .     S
C879   H881    1.110   .     S
C879   H1136   1.111   1_545 S
H880   C1007   1.111   .     S
C883   H886    1.110   .     S
C883   H885    1.111   .     S
C883   H1012   1.111   .     S
H884   C1139   1.111   1_545 S
C887   H889    1.110   .     S
C887   H890    1.111   .     S
C887   C965    1.523   .     S
C887   H1016   1.111   .     S
H888   C1143   1.111   1_545 S
C891   H893    1.111   .     S
C891   H894    1.110   .     S
C891   C1094   1.523   1_545 S
C891   H1148   1.111   1_545 S
H892   C1019   1.111   .     S
H895   N93     1.029   1_556 S
C897   O929    1.288   .     A
C897   C901    1.426   .     S
C897   O927    1.283   .     A
C898   O930    1.288   .     A
C898   O928    1.283   .     A
C898   C902    1.426   .     S
C899   C916    1.414   .     A
C899   C943    1.513   .     S
C899   C981    1.394   1_455 S
C900   C947    1.513   .     S
C900   C915    1.414   .     A
C900   C982    1.394   .     S
C902   C1029   1.355   .     S
C902   C1083   1.523   .     S
C903   O933    1.290   .     A
C903   C908    1.445   .     S
C903   O931    1.292   .     A
C904   O934    1.290   .     A
C904   C907    1.445   .     S
C904   O932    1.292   .     A
C905   C907    1.390   .     A
C905   H921    1.083   .     S
C905   C915    1.394   .     A
C906   H922    1.083   .     S
C906   C908    1.390   .     A
C906   C916    1.394   .     A
C907   C909    1.410   .     A
C908   C910    1.410   .     A
C909   C911    1.415   .     A
C909   C935    1.521   .     S
C910   C912    1.415   .     A
C910   C939    1.521   .     S
C911   C917    1.407   .     A
C911   C913    1.422   .     A
C912   C918    1.407   .     A
C912   C914    1.422   .     A
C913   C915    1.417   .     A
C913   C978    1.410   .     S
C914   C916    1.417   .     A
C914   C977    1.410   1_455 S
C917   H923    1.081   .     S
C917   C963    1.394   .     S
C918   H924    1.081   .     S
C918   C964    1.394   1_455 S
Cu919  O934    1.951   .     S
Cu919  O930    1.957   .     S
Cu919  O931    1.966   .     S
Cu919  N926    2.018   .     S
Cu919  Cu920   2.685   .     S
Cu919  O927    1.967   .     S
Cu920  O928    1.967   .     S
Cu920  O929    1.957   .     S
Cu920  O933    1.951   .     S
Cu920  O932    1.966   .     S
Cu920  N925    2.018   .     S
N926   N157    1.292   1_556 S
N926   H192    1.029   1_556 S
C935   H938    1.111   .     S
C935   H937    1.105   .     S
C935   H936    1.111   .     S
C939   H940    1.111   .     S
C939   H941    1.111   .     S
C939   H942    1.105   .     S
C943   H946    1.111   .     S
C943   H945    1.110   .     S
H944   C1071   1.111   .     S
C947   H950    1.110   .     S
C947   H949    1.111   .     S
C947   H1076   1.111   .     S
C951   H953    1.110   .     S
C951   H954    1.111   .     S
C951   C1029   1.523   .     S
C951   H1080   1.111   .     S
C955   H957    1.111   .     S
C955   H958    1.110   .     S
H956   C1083   1.111   .     S
H959   N157    1.029   1_556 S
C961   O993    1.288   .     A
C961   C965    1.426   .     S
C961   O991    1.283   .     A
C962   O994    1.288   .     A
C962   O992    1.283   .     A
C962   C966    1.426   .     S
C963   C980    1.414   .     A
C963   C1007   1.513   .     S
C964   C1011   1.513   .     S
C964   C979    1.414   .     A
C964   C918    1.394   1_655 S
C966   C1093   1.355   .     S
C966   C1147   1.523   .     S
C967   O997    1.290   .     A
C967   C972    1.445   .     S
C967   O995    1.292   .     A
C968   O998    1.290   .     A
C968   C971    1.445   .     S
C968   O996    1.292   .     A
C969   C971    1.390   .     A
C969   H985    1.083   .     S
C969   C979    1.394   .     A
C970   H986    1.083   .     S
C970   C972    1.390   .     A
C970   C980    1.394   .     A
C971   C973    1.410   .     A
C972   C974    1.410   .     A
C973   C975    1.415   .     A
C973   C999    1.521   .     S
C974   C976    1.415   .     A
C974   C1003   1.521   .     S
C975   C981    1.407   .     A
C975   C977    1.422   .     A
C976   C982    1.407   .     A
C976   C978    1.422   .     A
C977   C979    1.417   .     A
C977   C914    1.410   1_655 S
C978   C980    1.417   .     A
C981   H987    1.081   .     S
C981   C899    1.394   1_655 S
C982   H988    1.081   .     S
Cu983  O998    1.951   .     S
Cu983  O994    1.957   .     S
Cu983  O995    1.966   .     S
Cu983  N990    2.018   .     S
Cu983  Cu984   2.685   .     S
Cu983  O991    1.967   .     S
Cu984  O992    1.967   .     S
Cu984  O993    1.957   .     S
Cu984  O997    1.951   .     S
Cu984  O996    1.966   .     S
Cu984  N989    2.018   .     S
N990   N221    1.292   1_556 S
N990   H256    1.029   1_556 S
C999   H1002   1.111   .     S
C999   H1001   1.105   .     S
C999   H1000   1.111   .     S
C1003  H1004   1.111   .     S
C1003  H1005   1.111   .     S
C1003  H1006   1.105   .     S
C1007  H1010   1.111   .     S
C1007  H1009   1.110   .     S
H1008  C1135   1.111   .     S
C1011  H1014   1.110   .     S
C1011  H1013   1.111   .     S
C1011  H1140   1.111   .     S
C1015  H1017   1.110   .     S
C1015  H1018   1.111   .     S
C1015  C1093   1.523   .     S
C1015  H1144   1.111   .     S
C1019  H1021   1.111   .     S
C1019  H1022   1.110   .     S
H1020  C1147   1.111   .     S
H1023  N221    1.029   1_556 S
C1025  O1057   1.288   .     A
C1025  C1029   1.426   .     S
C1025  O1055   1.283   .     A
C1026  O1058   1.288   .     A
C1026  O1056   1.283   .     A
C1026  C1030   1.426   .     S
C1027  C1044   1.414   .     A
C1027  C1071   1.513   .     S
C1027  C1109   1.394   1_455 S
C1028  C1075   1.513   .     S
C1028  C1043   1.414   .     A
C1028  C1110   1.394   .     S
C1030  C773    1.355   1_565 S
C1030  C827    1.523   1_565 S
C1031  O1061   1.290   .     A
C1031  C1036   1.445   .     S
C1031  O1059   1.292   .     A
C1032  O1062   1.290   .     A
C1032  C1035   1.445   .     S
C1032  O1060   1.292   .     A
C1033  C1035   1.390   .     A
C1033  H1049   1.083   .     S
C1033  C1043   1.394   .     A
C1034  H1050   1.083   .     S
C1034  C1036   1.390   .     A
C1034  C1044   1.394   .     A
C1035  C1037   1.410   .     A
C1036  C1038   1.410   .     A
C1037  C1039   1.415   .     A
C1037  C1063   1.521   .     S
C1038  C1040   1.415   .     A
C1038  C1067   1.521   .     S
C1039  C1045   1.407   .     A
C1039  C1041   1.422   .     A
C1040  C1046   1.407   .     A
C1040  C1042   1.422   .     A
C1041  C1043   1.417   .     A
C1041  C1106   1.410   .     S
C1042  C1044   1.417   .     A
C1042  C1105   1.410   1_455 S
C1045  H1051   1.081   .     S
C1045  C1091   1.394   .     S
C1046  H1052   1.081   .     S
C1046  C1092   1.394   1_455 S
Cu1047 O1062   1.951   .     S
Cu1047 O1058   1.957   .     S
Cu1047 O1059   1.966   .     S
Cu1047 N1054   2.018   .     S
Cu1047 Cu1048  2.685   .     S
Cu1047 O1055   1.967   .     S
Cu1048 O1056   1.967   .     S
Cu1048 O1057   1.957   .     S
Cu1048 O1061   1.951   .     S
Cu1048 O1060   1.966   .     S
Cu1048 N1053   2.018   .     S
N1054  N285    1.292   1_556 S
N1054  H320    1.029   1_556 S
C1063  H1066   1.111   .     S
C1063  H1065   1.105   .     S
C1063  H1064   1.111   .     S
C1067  H1068   1.111   .     S
C1067  H1069   1.111   .     S
C1067  H1070   1.105   .     S
C1071  H1074   1.111   .     S
C1071  H1073   1.110   .     S
H1072  C815    1.111   1_565 S
C1075  H1078   1.110   .     S
C1075  H1077   1.111   .     S
C1075  H820    1.111   1_565 S
C1079  H1081   1.110   .     S
C1079  H1082   1.111   .     S
C1079  C773    1.523   1_565 S
C1079  H824    1.111   1_565 S
C1083  H1085   1.111   .     S
C1083  H1086   1.110   .     S
H1084  C827    1.111   1_565 S
H1087  N285    1.029   1_556 S
C1089  O1121   1.288   .     A
C1089  C1093   1.426   .     S
C1089  O1119   1.283   .     A
C1090  O1122   1.288   .     A
C1090  O1120   1.283   .     A
C1090  C1094   1.426   .     S
C1091  C1108   1.414   .     A
C1091  C1135   1.513   .     S
C1092  C1139   1.513   .     S
C1092  C1107   1.414   .     A
C1092  C1046   1.394   1_655 S
C1094  C837    1.355   1_565 S
C1094  C891    1.523   1_565 S
C1095  O1125   1.290   .     A
C1095  C1100   1.445   .     S
C1095  O1123   1.292   .     A
C1096  O1126   1.290   .     A
C1096  C1099   1.445   .     S
C1096  O1124   1.292   .     A
C1097  C1099   1.390   .     A
C1097  H1113   1.083   .     S
C1097  C1107   1.394   .     A
C1098  H1114   1.083   .     S
C1098  C1100   1.390   .     A
C1098  C1108   1.394   .     A
C1099  C1101   1.410   .     A
C1100  C1102   1.410   .     A
C1101  C1103   1.415   .     A
C1101  C1127   1.521   .     S
C1102  C1104   1.415   .     A
C1102  C1131   1.521   .     S
C1103  C1109   1.407   .     A
C1103  C1105   1.422   .     A
C1104  C1110   1.407   .     A
C1104  C1106   1.422   .     A
C1105  C1107   1.417   .     A
C1105  C1042   1.410   1_655 S
C1106  C1108   1.417   .     A
C1109  H1115   1.081   .     S
C1109  C1027   1.394   1_655 S
C1110  H1116   1.081   .     S
Cu1111 O1126   1.951   .     S
Cu1111 O1122   1.957   .     S
Cu1111 O1123   1.966   .     S
Cu1111 N1118   2.018   .     S
Cu1111 Cu1112  2.685   .     S
Cu1111 O1119   1.967   .     S
Cu1112 O1120   1.967   .     S
Cu1112 O1121   1.957   .     S
Cu1112 O1125   1.951   .     S
Cu1112 O1124   1.966   .     S
Cu1112 N1117   2.018   .     S
N1118  N349    1.292   1_556 S
N1118  H384    1.029   1_556 S
C1127  H1130   1.111   .     S
C1127  H1129   1.105   .     S
C1127  H1128   1.111   .     S
C1131  H1132   1.111   .     S
C1131  H1133   1.111   .     S
C1131  H1134   1.105   .     S
C1135  H1138   1.111   .     S
C1135  H1137   1.110   .     S
H1136  C879    1.111   1_565 S
C1139  H1142   1.110   .     S
C1139  H1141   1.111   .     S
C1139  H884    1.111   1_565 S
C1143  H1145   1.110   .     S
C1143  H1146   1.111   .     S
C1143  C837    1.523   1_565 S
C1143  H888    1.111   1_565 S
C1147  H1149   1.111   .     S
C1147  H1150   1.110   .     S
H1148  C891    1.111   1_565 S
H1151  N349    1.029   1_556 S
