data_str_m2_o10_o16_pcu_sym.23
_audit_creation_date              2020-01-03
_audit_creation_method            'Materials Studio'
_symmetry_space_group_name_H-M    'P1'
_symmetry_Int_Tables_number       1
_symmetry_cell_setting            triclinic
loop_
_symmetry_equiv_pos_as_xyz
  x,y,z
_cell_length_a                    22.3793
_cell_length_b                    26.0803
_cell_length_c                    26.8033
_cell_angle_alpha                 94.6256
_cell_angle_beta                  77.4609
_cell_angle_gamma                 103.2895
loop_
_atom_site_label
_atom_site_type_symbol
_atom_site_fract_x
_atom_site_fract_y
_atom_site_fract_z
_atom_site_U_iso_or_equiv
_atom_site_adp_type
_atom_site_occupancy
C1     C     0.18157   0.26671   0.25205   0.00000  Uiso   1.00
C2     C     0.11286   0.16548   0.40335   0.00000  Uiso   1.00
C3     C     0.18931   0.32269   0.25422   0.00000  Uiso   1.00
C4     C     0.13334   0.16612   0.34721   0.00000  Uiso   1.00
C5     C     0.14305   0.01056   0.24757   0.00000  Uiso   1.00
C6     C     0.15146   0.06660   0.24860   0.00000  Uiso   1.00
C7     C     0.20044   0.17037   0.15302   0.00000  Uiso   1.00
C8     C     0.29277   0.22624   0.02752   0.00000  Uiso   1.00
C9     C     0.22059   0.17920   0.09810   0.00000  Uiso   1.00
C10    C     0.05133   0.13946   0.42420   0.00000  Uiso   1.00
C11    C     0.03321   0.12989   0.47607   0.00000  Uiso   1.00
C12    C     0.13945   0.16994   0.48792   0.00000  Uiso   1.00
C13    C     0.07667   0.14396   0.00755   0.00000  Uiso   1.00
C14    C     0.01099   0.08236   0.18217   0.00000  Uiso   1.00
C15    C     0.30618   0.05295   0.14396   0.00000  Uiso   1.00
C16    C     0.15574   0.18502   0.43619   0.00000  Uiso   1.00
C17    C     0.18638   0.18208   0.01808   0.00000  Uiso   1.00
C18    C     0.24634   0.21354   0.49797   0.00000  Uiso   1.00
C19    C     0.25883   0.23308   0.44908   0.00000  Uiso   1.00
C20    C     0.21404   0.21968   0.41891   0.00000  Uiso   1.00
C21    C     0.17569   0.16368   0.06766   0.00000  Uiso   1.00
C22    C     0.27984   0.20940   0.07753   0.00000  Uiso   1.00
Cu23   Cu    0.10710   0.16105   0.24436   0.00000  Uiso   1.00
Cu24   Cu    0.22623   0.17228   0.25564   0.00000  Uiso   1.00
H25    H     0.31504   0.22185   0.10068   0.00000  Uiso   1.00
H26    H     0.22537   0.23814   0.38238   0.00000  Uiso   1.00
H27    H     0.23338   0.01323   0.26139   0.00000  Uiso   1.00
H28    H     0.33180   0.05870   0.21716   0.00000  Uiso   1.00
H29    H     0.06116   0.08557   0.16443   0.00000  Uiso   1.00
H30    H     0.31880   0.07459   0.10784   0.00000  Uiso   1.00
H31    H     0.31589   0.01291   0.13552   0.00000  Uiso   1.00
H32    H     0.25532   0.04917   0.15976   0.00000  Uiso   1.00
H33    H     0.09864   0.31998   0.24089   0.00000  Uiso   1.00
H34    H     0.00007   0.20014   0.29459   0.00000  Uiso   1.00
H35    H     0.30352   0.25888   0.43401   0.00000  Uiso   1.00
H36    H     0.00525   0.25031   0.01233   0.00000  Uiso   1.00
H37    H     0.13213   0.13779   0.08412   0.00000  Uiso   1.00
H38    H     0.01748   0.12514   0.40012   0.00000  Uiso   1.00
H39    H     0.05914   0.13529   0.04732   0.00000  Uiso   1.00
H40    H     0.31875   0.11017   0.49184   0.00000  Uiso   1.00
N41    N     0.31574   0.18074   0.26416   0.00000  Uiso   1.00
N42    N     0.01759   0.15259   0.23584   0.00000  Uiso   1.00
O43    O     0.12797   0.23807   0.24633   0.00000  Uiso   1.00
O44    O     0.22858   0.24755   0.25586   0.00000  Uiso   1.00
O45    O     0.09181   0.15960   0.31840   0.00000  Uiso   1.00
O46    O     0.19242   0.16908   0.32793   0.00000  Uiso   1.00
O47    O     0.10476   0.08578   0.24414   0.00000  Uiso   1.00
O48    O     0.20536   0.09526   0.25367   0.00000  Uiso   1.00
O49    O     0.14092   0.16425   0.17207   0.00000  Uiso   1.00
O50    O     0.24152   0.17373   0.18160   0.00000  Uiso   1.00
O51    O     0.33069   0.13258   0.19303   0.00000  Uiso   1.00
C52    C     0.51490   0.26671   0.25205   0.00000  Uiso   1.00
C53    C     0.44619   0.16548   0.40335   0.00000  Uiso   1.00
C54    C     0.52264   0.32269   0.25422   0.00000  Uiso   1.00
C55    C     0.46667   0.16612   0.34721   0.00000  Uiso   1.00
C56    C     0.47638   0.01056   0.24757   0.00000  Uiso   1.00
C57    C     0.48479   0.06660   0.24860   0.00000  Uiso   1.00
C58    C     0.53377   0.17037   0.15302   0.00000  Uiso   1.00
C59    C     0.62611   0.22624   0.02752   0.00000  Uiso   1.00
C60    C     0.55393   0.17920   0.09810   0.00000  Uiso   1.00
C61    C     0.38466   0.13946   0.42420   0.00000  Uiso   1.00
C62    C     0.36654   0.12989   0.47607   0.00000  Uiso   1.00
C63    C     0.47278   0.16994   0.48792   0.00000  Uiso   1.00
C64    C     0.41000   0.14396   0.00755   0.00000  Uiso   1.00
C65    C     0.34432   0.08236   0.18217   0.00000  Uiso   1.00
C66    C     0.63952   0.05295   0.14396   0.00000  Uiso   1.00
C67    C     0.48907   0.18502   0.43619   0.00000  Uiso   1.00
C68    C     0.51971   0.18208   0.01808   0.00000  Uiso   1.00
C69    C     0.57967   0.21354   0.49797   0.00000  Uiso   1.00
C70    C     0.59216   0.23308   0.44908   0.00000  Uiso   1.00
C71    C     0.54738   0.21968   0.41891   0.00000  Uiso   1.00
C72    C     0.50902   0.16368   0.06766   0.00000  Uiso   1.00
C73    C     0.61318   0.20940   0.07753   0.00000  Uiso   1.00
Cu74   Cu    0.44043   0.16105   0.24436   0.00000  Uiso   1.00
Cu75   Cu    0.55957   0.17228   0.25564   0.00000  Uiso   1.00
H76    H     0.64838   0.22185   0.10068   0.00000  Uiso   1.00
H77    H     0.55870   0.23814   0.38238   0.00000  Uiso   1.00
H78    H     0.56672   0.01323   0.26139   0.00000  Uiso   1.00
H79    H     0.66513   0.05870   0.21716   0.00000  Uiso   1.00
H80    H     0.39450   0.08557   0.16443   0.00000  Uiso   1.00
H81    H     0.65213   0.07459   0.10784   0.00000  Uiso   1.00
H82    H     0.64922   0.01291   0.13552   0.00000  Uiso   1.00
H83    H     0.58866   0.04917   0.15976   0.00000  Uiso   1.00
H84    H     0.43197   0.31998   0.24089   0.00000  Uiso   1.00
H85    H     0.33340   0.20014   0.29459   0.00000  Uiso   1.00
H86    H     0.63685   0.25888   0.43401   0.00000  Uiso   1.00
H87    H     0.33858   0.25031   0.01233   0.00000  Uiso   1.00
H88    H     0.46547   0.13779   0.08412   0.00000  Uiso   1.00
H89    H     0.35081   0.12514   0.40012   0.00000  Uiso   1.00
H90    H     0.39247   0.13529   0.04732   0.00000  Uiso   1.00
H91    H     0.65209   0.11017   0.49184   0.00000  Uiso   1.00
N92    N     0.64908   0.18074   0.26416   0.00000  Uiso   1.00
N93    N     0.35092   0.15259   0.23584   0.00000  Uiso   1.00
O94    O     0.46131   0.23807   0.24633   0.00000  Uiso   1.00
O95    O     0.56191   0.24755   0.25586   0.00000  Uiso   1.00
O96    O     0.42515   0.15960   0.31840   0.00000  Uiso   1.00
O97    O     0.52575   0.16908   0.32793   0.00000  Uiso   1.00
O98    O     0.43809   0.08578   0.24414   0.00000  Uiso   1.00
O99    O     0.53869   0.09526   0.25367   0.00000  Uiso   1.00
O100   O     0.47425   0.16425   0.17207   0.00000  Uiso   1.00
O101   O     0.57485   0.17373   0.18160   0.00000  Uiso   1.00
O102   O     0.66402   0.13258   0.19303   0.00000  Uiso   1.00
C103   C     0.84823   0.26671   0.25205   0.00000  Uiso   1.00
C104   C     0.77952   0.16548   0.40335   0.00000  Uiso   1.00
C105   C     0.85597   0.32269   0.25422   0.00000  Uiso   1.00
C106   C     0.80000   0.16612   0.34721   0.00000  Uiso   1.00
C107   C     0.80971   0.01056   0.24757   0.00000  Uiso   1.00
C108   C     0.81812   0.06660   0.24860   0.00000  Uiso   1.00
C109   C     0.86710   0.17037   0.15302   0.00000  Uiso   1.00
C110   C     0.95944   0.22624   0.02752   0.00000  Uiso   1.00
C111   C     0.88726   0.17920   0.09810   0.00000  Uiso   1.00
C112   C     0.71800   0.13946   0.42420   0.00000  Uiso   1.00
C113   C     0.69988   0.12989   0.47607   0.00000  Uiso   1.00
C114   C     0.80611   0.16994   0.48792   0.00000  Uiso   1.00
C115   C     0.74334   0.14396   0.00755   0.00000  Uiso   1.00
C116   C     0.67766   0.08236   0.18217   0.00000  Uiso   1.00
C117   C     0.97285   0.05295   0.14396   0.00000  Uiso   1.00
C118   C     0.82241   0.18502   0.43619   0.00000  Uiso   1.00
C119   C     0.85304   0.18208   0.01808   0.00000  Uiso   1.00
C120   C     0.91300   0.21354   0.49797   0.00000  Uiso   1.00
C121   C     0.92549   0.23308   0.44908   0.00000  Uiso   1.00
C122   C     0.88071   0.21968   0.41891   0.00000  Uiso   1.00
C123   C     0.84236   0.16368   0.06766   0.00000  Uiso   1.00
C124   C     0.94651   0.20940   0.07753   0.00000  Uiso   1.00
Cu125  Cu    0.77377   0.16105   0.24436   0.00000  Uiso   1.00
Cu126  Cu    0.89290   0.17228   0.25564   0.00000  Uiso   1.00
H127   H     0.98171   0.22185   0.10068   0.00000  Uiso   1.00
H128   H     0.89203   0.23814   0.38238   0.00000  Uiso   1.00
H129   H     0.90005   0.01323   0.26139   0.00000  Uiso   1.00
H130   H     0.99847   0.05870   0.21716   0.00000  Uiso   1.00
H131   H     0.72783   0.08557   0.16443   0.00000  Uiso   1.00
H132   H     0.98546   0.07459   0.10784   0.00000  Uiso   1.00
H133   H     0.98256   0.01291   0.13552   0.00000  Uiso   1.00
H134   H     0.92199   0.04917   0.15976   0.00000  Uiso   1.00
H135   H     0.76531   0.31998   0.24089   0.00000  Uiso   1.00
H136   H     0.66674   0.20014   0.29459   0.00000  Uiso   1.00
H137   H     0.97018   0.25888   0.43401   0.00000  Uiso   1.00
H138   H     0.67192   0.25031   0.01233   0.00000  Uiso   1.00
H139   H     0.79880   0.13779   0.08412   0.00000  Uiso   1.00
H140   H     0.68414   0.12514   0.40012   0.00000  Uiso   1.00
H141   H     0.72581   0.13529   0.04732   0.00000  Uiso   1.00
H142   H     0.98542   0.11017   0.49184   0.00000  Uiso   1.00
N143   N     0.98241   0.18074   0.26416   0.00000  Uiso   1.00
N144   N     0.68426   0.15259   0.23584   0.00000  Uiso   1.00
O145   O     0.79464   0.23807   0.24633   0.00000  Uiso   1.00
O146   O     0.89524   0.24755   0.25586   0.00000  Uiso   1.00
O147   O     0.75848   0.15960   0.31840   0.00000  Uiso   1.00
O148   O     0.85908   0.16908   0.32793   0.00000  Uiso   1.00
O149   O     0.77142   0.08578   0.24414   0.00000  Uiso   1.00
O150   O     0.87203   0.09526   0.25367   0.00000  Uiso   1.00
O151   O     0.80758   0.16425   0.17207   0.00000  Uiso   1.00
O152   O     0.90819   0.17373   0.18160   0.00000  Uiso   1.00
O153   O     0.99736   0.13258   0.19303   0.00000  Uiso   1.00
C154   C     0.18157   0.60004   0.25205   0.00000  Uiso   1.00
C155   C     0.11286   0.49881   0.40335   0.00000  Uiso   1.00
C156   C     0.18931   0.65602   0.25422   0.00000  Uiso   1.00
C157   C     0.13334   0.49945   0.34721   0.00000  Uiso   1.00
C158   C     0.14305   0.34389   0.24757   0.00000  Uiso   1.00
C159   C     0.15146   0.39994   0.24860   0.00000  Uiso   1.00
C160   C     0.20044   0.50370   0.15302   0.00000  Uiso   1.00
C161   C     0.29277   0.55957   0.02752   0.00000  Uiso   1.00
C162   C     0.22059   0.51253   0.09810   0.00000  Uiso   1.00
C163   C     0.05133   0.47280   0.42420   0.00000  Uiso   1.00
C164   C     0.03321   0.46322   0.47607   0.00000  Uiso   1.00
C165   C     0.13945   0.50327   0.48792   0.00000  Uiso   1.00
C166   C     0.07667   0.47729   0.00755   0.00000  Uiso   1.00
C167   C     0.01099   0.41569   0.18217   0.00000  Uiso   1.00
C168   C     0.30618   0.38628   0.14396   0.00000  Uiso   1.00
C169   C     0.15574   0.51835   0.43619   0.00000  Uiso   1.00
C170   C     0.18638   0.51542   0.01808   0.00000  Uiso   1.00
C171   C     0.24634   0.54688   0.49797   0.00000  Uiso   1.00
C172   C     0.25883   0.56641   0.44908   0.00000  Uiso   1.00
C173   C     0.21404   0.55302   0.41891   0.00000  Uiso   1.00
C174   C     0.17569   0.49702   0.06766   0.00000  Uiso   1.00
C175   C     0.27984   0.54273   0.07753   0.00000  Uiso   1.00
Cu176  Cu    0.10710   0.49439   0.24436   0.00000  Uiso   1.00
Cu177  Cu    0.22623   0.50561   0.25564   0.00000  Uiso   1.00
H178   H     0.31504   0.55518   0.10068   0.00000  Uiso   1.00
H179   H     0.22537   0.57148   0.38238   0.00000  Uiso   1.00
H180   H     0.23338   0.34657   0.26139   0.00000  Uiso   1.00
H181   H     0.33180   0.39204   0.21716   0.00000  Uiso   1.00
H182   H     0.06116   0.41891   0.16443   0.00000  Uiso   1.00
H183   H     0.31880   0.40792   0.10784   0.00000  Uiso   1.00
H184   H     0.31589   0.34624   0.13552   0.00000  Uiso   1.00
H185   H     0.25532   0.38250   0.15976   0.00000  Uiso   1.00
H186   H     0.09864   0.65332   0.24089   0.00000  Uiso   1.00
H187   H     0.00007   0.53348   0.29459   0.00000  Uiso   1.00
H188   H     0.30352   0.59222   0.43401   0.00000  Uiso   1.00
H189   H     0.00525   0.58364   0.01233   0.00000  Uiso   1.00
H190   H     0.13213   0.47112   0.08412   0.00000  Uiso   1.00
H191   H     0.01748   0.45847   0.40012   0.00000  Uiso   1.00
H192   H     0.05914   0.46862   0.04732   0.00000  Uiso   1.00
H193   H     0.31875   0.44351   0.49184   0.00000  Uiso   1.00
N194   N     0.31574   0.51407   0.26416   0.00000  Uiso   1.00
N195   N     0.01759   0.48593   0.23584   0.00000  Uiso   1.00
O196   O     0.12797   0.57141   0.24633   0.00000  Uiso   1.00
O197   O     0.22858   0.58089   0.25586   0.00000  Uiso   1.00
O198   O     0.09181   0.49293   0.31840   0.00000  Uiso   1.00
O199   O     0.19242   0.50241   0.32793   0.00000  Uiso   1.00
O200   O     0.10476   0.41911   0.24414   0.00000  Uiso   1.00
O201   O     0.20536   0.42859   0.25367   0.00000  Uiso   1.00
O202   O     0.14092   0.49759   0.17207   0.00000  Uiso   1.00
O203   O     0.24152   0.50707   0.18160   0.00000  Uiso   1.00
O204   O     0.33069   0.46592   0.19303   0.00000  Uiso   1.00
C205   C     0.51490   0.60004   0.25205   0.00000  Uiso   1.00
C206   C     0.44619   0.49881   0.40335   0.00000  Uiso   1.00
C207   C     0.52264   0.65602   0.25422   0.00000  Uiso   1.00
C208   C     0.46667   0.49945   0.34721   0.00000  Uiso   1.00
C209   C     0.47638   0.34389   0.24757   0.00000  Uiso   1.00
C210   C     0.48479   0.39994   0.24860   0.00000  Uiso   1.00
C211   C     0.53377   0.50370   0.15302   0.00000  Uiso   1.00
C212   C     0.62611   0.55957   0.02752   0.00000  Uiso   1.00
C213   C     0.55393   0.51253   0.09810   0.00000  Uiso   1.00
C214   C     0.38466   0.47280   0.42420   0.00000  Uiso   1.00
C215   C     0.36654   0.46322   0.47607   0.00000  Uiso   1.00
C216   C     0.47278   0.50327   0.48792   0.00000  Uiso   1.00
C217   C     0.41000   0.47729   0.00755   0.00000  Uiso   1.00
C218   C     0.34432   0.41569   0.18217   0.00000  Uiso   1.00
C219   C     0.63952   0.38628   0.14396   0.00000  Uiso   1.00
C220   C     0.48907   0.51835   0.43619   0.00000  Uiso   1.00
C221   C     0.51971   0.51542   0.01808   0.00000  Uiso   1.00
C222   C     0.57967   0.54688   0.49797   0.00000  Uiso   1.00
C223   C     0.59216   0.56641   0.44908   0.00000  Uiso   1.00
C224   C     0.54738   0.55302   0.41891   0.00000  Uiso   1.00
C225   C     0.50902   0.49702   0.06766   0.00000  Uiso   1.00
C226   C     0.61318   0.54273   0.07753   0.00000  Uiso   1.00
Cu227  Cu    0.44043   0.49439   0.24436   0.00000  Uiso   1.00
Cu228  Cu    0.55957   0.50561   0.25564   0.00000  Uiso   1.00
H229   H     0.64838   0.55518   0.10068   0.00000  Uiso   1.00
H230   H     0.55870   0.57148   0.38238   0.00000  Uiso   1.00
H231   H     0.56672   0.34657   0.26139   0.00000  Uiso   1.00
H232   H     0.66513   0.39204   0.21716   0.00000  Uiso   1.00
H233   H     0.39450   0.41891   0.16443   0.00000  Uiso   1.00
H234   H     0.65213   0.40792   0.10784   0.00000  Uiso   1.00
H235   H     0.64922   0.34624   0.13552   0.00000  Uiso   1.00
H236   H     0.58866   0.38250   0.15976   0.00000  Uiso   1.00
H237   H     0.43197   0.65332   0.24089   0.00000  Uiso   1.00
H238   H     0.33340   0.53348   0.29459   0.00000  Uiso   1.00
H239   H     0.63685   0.59222   0.43401   0.00000  Uiso   1.00
H240   H     0.33858   0.58364   0.01233   0.00000  Uiso   1.00
H241   H     0.46547   0.47112   0.08412   0.00000  Uiso   1.00
H242   H     0.35081   0.45847   0.40012   0.00000  Uiso   1.00
H243   H     0.39247   0.46862   0.04732   0.00000  Uiso   1.00
H244   H     0.65209   0.44351   0.49184   0.00000  Uiso   1.00
N245   N     0.64908   0.51407   0.26416   0.00000  Uiso   1.00
N246   N     0.35092   0.48593   0.23584   0.00000  Uiso   1.00
O247   O     0.46131   0.57141   0.24633   0.00000  Uiso   1.00
O248   O     0.56191   0.58089   0.25586   0.00000  Uiso   1.00
O249   O     0.42515   0.49293   0.31840   0.00000  Uiso   1.00
O250   O     0.52575   0.50241   0.32793   0.00000  Uiso   1.00
O251   O     0.43809   0.41911   0.24414   0.00000  Uiso   1.00
O252   O     0.53869   0.42859   0.25367   0.00000  Uiso   1.00
O253   O     0.47425   0.49759   0.17207   0.00000  Uiso   1.00
O254   O     0.57485   0.50707   0.18160   0.00000  Uiso   1.00
O255   O     0.66402   0.46592   0.19303   0.00000  Uiso   1.00
C256   C     0.84823   0.60004   0.25205   0.00000  Uiso   1.00
C257   C     0.77952   0.49881   0.40335   0.00000  Uiso   1.00
C258   C     0.85597   0.65602   0.25422   0.00000  Uiso   1.00
C259   C     0.80000   0.49945   0.34721   0.00000  Uiso   1.00
C260   C     0.80971   0.34389   0.24757   0.00000  Uiso   1.00
C261   C     0.81812   0.39994   0.24860   0.00000  Uiso   1.00
C262   C     0.86710   0.50370   0.15302   0.00000  Uiso   1.00
C263   C     0.95944   0.55957   0.02752   0.00000  Uiso   1.00
C264   C     0.88726   0.51253   0.09810   0.00000  Uiso   1.00
C265   C     0.71800   0.47280   0.42420   0.00000  Uiso   1.00
C266   C     0.69988   0.46322   0.47607   0.00000  Uiso   1.00
C267   C     0.80611   0.50327   0.48792   0.00000  Uiso   1.00
C268   C     0.74334   0.47729   0.00755   0.00000  Uiso   1.00
C269   C     0.67766   0.41569   0.18217   0.00000  Uiso   1.00
C270   C     0.97285   0.38628   0.14396   0.00000  Uiso   1.00
C271   C     0.82241   0.51835   0.43619   0.00000  Uiso   1.00
C272   C     0.85304   0.51542   0.01808   0.00000  Uiso   1.00
C273   C     0.91300   0.54688   0.49797   0.00000  Uiso   1.00
C274   C     0.92549   0.56641   0.44908   0.00000  Uiso   1.00
C275   C     0.88071   0.55302   0.41891   0.00000  Uiso   1.00
C276   C     0.84236   0.49702   0.06766   0.00000  Uiso   1.00
C277   C     0.94651   0.54273   0.07753   0.00000  Uiso   1.00
Cu278  Cu    0.77377   0.49439   0.24436   0.00000  Uiso   1.00
Cu279  Cu    0.89290   0.50561   0.25564   0.00000  Uiso   1.00
H280   H     0.98171   0.55518   0.10068   0.00000  Uiso   1.00
H281   H     0.89203   0.57148   0.38238   0.00000  Uiso   1.00
H282   H     0.90005   0.34657   0.26139   0.00000  Uiso   1.00
H283   H     0.99847   0.39204   0.21716   0.00000  Uiso   1.00
H284   H     0.72783   0.41891   0.16443   0.00000  Uiso   1.00
H285   H     0.98546   0.40792   0.10784   0.00000  Uiso   1.00
H286   H     0.98256   0.34624   0.13552   0.00000  Uiso   1.00
H287   H     0.92199   0.38250   0.15976   0.00000  Uiso   1.00
H288   H     0.76531   0.65332   0.24089   0.00000  Uiso   1.00
H289   H     0.66674   0.53348   0.29459   0.00000  Uiso   1.00
H290   H     0.97018   0.59222   0.43401   0.00000  Uiso   1.00
H291   H     0.67192   0.58364   0.01233   0.00000  Uiso   1.00
H292   H     0.79880   0.47112   0.08412   0.00000  Uiso   1.00
H293   H     0.68414   0.45847   0.40012   0.00000  Uiso   1.00
H294   H     0.72581   0.46862   0.04732   0.00000  Uiso   1.00
H295   H     0.98542   0.44351   0.49184   0.00000  Uiso   1.00
N296   N     0.98241   0.51407   0.26416   0.00000  Uiso   1.00
N297   N     0.68426   0.48593   0.23584   0.00000  Uiso   1.00
O298   O     0.79464   0.57141   0.24633   0.00000  Uiso   1.00
O299   O     0.89524   0.58089   0.25586   0.00000  Uiso   1.00
O300   O     0.75848   0.49293   0.31840   0.00000  Uiso   1.00
O301   O     0.85908   0.50241   0.32793   0.00000  Uiso   1.00
O302   O     0.77142   0.41911   0.24414   0.00000  Uiso   1.00
O303   O     0.87203   0.42859   0.25367   0.00000  Uiso   1.00
O304   O     0.80758   0.49759   0.17207   0.00000  Uiso   1.00
O305   O     0.90819   0.50707   0.18160   0.00000  Uiso   1.00
O306   O     0.99736   0.46592   0.19303   0.00000  Uiso   1.00
C307   C     0.18157   0.93338   0.25205   0.00000  Uiso   1.00
C308   C     0.11286   0.83215   0.40335   0.00000  Uiso   1.00
C309   C     0.18931   0.98935   0.25422   0.00000  Uiso   1.00
C310   C     0.13334   0.83278   0.34721   0.00000  Uiso   1.00
C311   C     0.14305   0.67722   0.24757   0.00000  Uiso   1.00
C312   C     0.15146   0.73327   0.24860   0.00000  Uiso   1.00
C313   C     0.20044   0.83704   0.15302   0.00000  Uiso   1.00
C314   C     0.29277   0.89291   0.02752   0.00000  Uiso   1.00
C315   C     0.22059   0.84586   0.09810   0.00000  Uiso   1.00
C316   C     0.05133   0.80613   0.42420   0.00000  Uiso   1.00
C317   C     0.03321   0.79656   0.47607   0.00000  Uiso   1.00
C318   C     0.13945   0.83660   0.48792   0.00000  Uiso   1.00
C319   C     0.07667   0.81063   0.00755   0.00000  Uiso   1.00
C320   C     0.01099   0.74902   0.18217   0.00000  Uiso   1.00
C321   C     0.30618   0.71962   0.14396   0.00000  Uiso   1.00
C322   C     0.15574   0.85168   0.43619   0.00000  Uiso   1.00
C323   C     0.18638   0.84875   0.01808   0.00000  Uiso   1.00
C324   C     0.24634   0.88021   0.49797   0.00000  Uiso   1.00
C325   C     0.25883   0.89974   0.44908   0.00000  Uiso   1.00
C326   C     0.21404   0.88635   0.41891   0.00000  Uiso   1.00
C327   C     0.17569   0.83035   0.06766   0.00000  Uiso   1.00
C328   C     0.27984   0.87606   0.07753   0.00000  Uiso   1.00
Cu329  Cu    0.10710   0.82772   0.24436   0.00000  Uiso   1.00
Cu330  Cu    0.22623   0.83895   0.25564   0.00000  Uiso   1.00
H331   H     0.31504   0.88851   0.10068   0.00000  Uiso   1.00
H332   H     0.22537   0.90481   0.38238   0.00000  Uiso   1.00
H333   H     0.23338   0.67990   0.26139   0.00000  Uiso   1.00
H334   H     0.33180   0.72537   0.21716   0.00000  Uiso   1.00
H335   H     0.06116   0.75224   0.16443   0.00000  Uiso   1.00
H336   H     0.31880   0.74125   0.10784   0.00000  Uiso   1.00
H337   H     0.31589   0.67957   0.13552   0.00000  Uiso   1.00
H338   H     0.25532   0.71583   0.15976   0.00000  Uiso   1.00
H339   H     0.09864   0.98665   0.24089   0.00000  Uiso   1.00
H340   H     0.00007   0.86681   0.29459   0.00000  Uiso   1.00
H341   H     0.30352   0.92555   0.43401   0.00000  Uiso   1.00
H342   H     0.00525   0.91697   0.01233   0.00000  Uiso   1.00
H343   H     0.13213   0.80445   0.08412   0.00000  Uiso   1.00
H344   H     0.01748   0.79181   0.40012   0.00000  Uiso   1.00
H345   H     0.05914   0.80196   0.04732   0.00000  Uiso   1.00
H346   H     0.31875   0.77684   0.49184   0.00000  Uiso   1.00
N347   N     0.31574   0.84741   0.26416   0.00000  Uiso   1.00
N348   N     0.01759   0.81926   0.23584   0.00000  Uiso   1.00
O349   O     0.12797   0.90474   0.24633   0.00000  Uiso   1.00
O350   O     0.22858   0.91422   0.25586   0.00000  Uiso   1.00
O351   O     0.09181   0.82627   0.31840   0.00000  Uiso   1.00
O352   O     0.19242   0.83575   0.32793   0.00000  Uiso   1.00
O353   O     0.10476   0.75245   0.24414   0.00000  Uiso   1.00
O354   O     0.20536   0.76193   0.25367   0.00000  Uiso   1.00
O355   O     0.14092   0.83092   0.17207   0.00000  Uiso   1.00
O356   O     0.24152   0.84040   0.18160   0.00000  Uiso   1.00
O357   O     0.33069   0.79925   0.19303   0.00000  Uiso   1.00
C358   C     0.51490   0.93338   0.25205   0.00000  Uiso   1.00
C359   C     0.44619   0.83215   0.40335   0.00000  Uiso   1.00
C360   C     0.52264   0.98935   0.25422   0.00000  Uiso   1.00
C361   C     0.46667   0.83278   0.34721   0.00000  Uiso   1.00
C362   C     0.47638   0.67722   0.24757   0.00000  Uiso   1.00
C363   C     0.48479   0.73327   0.24860   0.00000  Uiso   1.00
C364   C     0.53377   0.83704   0.15302   0.00000  Uiso   1.00
C365   C     0.62611   0.89291   0.02752   0.00000  Uiso   1.00
C366   C     0.55393   0.84586   0.09810   0.00000  Uiso   1.00
C367   C     0.38466   0.80613   0.42420   0.00000  Uiso   1.00
C368   C     0.36654   0.79656   0.47607   0.00000  Uiso   1.00
C369   C     0.47278   0.83660   0.48792   0.00000  Uiso   1.00
C370   C     0.41000   0.81063   0.00755   0.00000  Uiso   1.00
C371   C     0.34432   0.74902   0.18217   0.00000  Uiso   1.00
C372   C     0.63952   0.71962   0.14396   0.00000  Uiso   1.00
C373   C     0.48907   0.85168   0.43619   0.00000  Uiso   1.00
C374   C     0.51971   0.84875   0.01808   0.00000  Uiso   1.00
C375   C     0.57967   0.88021   0.49797   0.00000  Uiso   1.00
C376   C     0.59216   0.89974   0.44908   0.00000  Uiso   1.00
C377   C     0.54738   0.88635   0.41891   0.00000  Uiso   1.00
C378   C     0.50902   0.83035   0.06766   0.00000  Uiso   1.00
C379   C     0.61318   0.87606   0.07753   0.00000  Uiso   1.00
Cu380  Cu    0.44043   0.82772   0.24436   0.00000  Uiso   1.00
Cu381  Cu    0.55957   0.83895   0.25564   0.00000  Uiso   1.00
H382   H     0.64838   0.88851   0.10068   0.00000  Uiso   1.00
H383   H     0.55870   0.90481   0.38238   0.00000  Uiso   1.00
H384   H     0.56672   0.67990   0.26139   0.00000  Uiso   1.00
H385   H     0.66513   0.72537   0.21716   0.00000  Uiso   1.00
H386   H     0.39450   0.75224   0.16443   0.00000  Uiso   1.00
H387   H     0.65213   0.74125   0.10784   0.00000  Uiso   1.00
H388   H     0.64922   0.67957   0.13552   0.00000  Uiso   1.00
H389   H     0.58866   0.71583   0.15976   0.00000  Uiso   1.00
H390   H     0.43197   0.98665   0.24089   0.00000  Uiso   1.00
H391   H     0.33340   0.86681   0.29459   0.00000  Uiso   1.00
H392   H     0.63685   0.92555   0.43401   0.00000  Uiso   1.00
H393   H     0.33858   0.91697   0.01233   0.00000  Uiso   1.00
H394   H     0.46547   0.80445   0.08412   0.00000  Uiso   1.00
H395   H     0.35081   0.79181   0.40012   0.00000  Uiso   1.00
H396   H     0.39247   0.80196   0.04732   0.00000  Uiso   1.00
H397   H     0.65209   0.77684   0.49184   0.00000  Uiso   1.00
N398   N     0.64908   0.84741   0.26416   0.00000  Uiso   1.00
N399   N     0.35092   0.81926   0.23584   0.00000  Uiso   1.00
O400   O     0.46131   0.90474   0.24633   0.00000  Uiso   1.00
O401   O     0.56191   0.91422   0.25586   0.00000  Uiso   1.00
O402   O     0.42515   0.82627   0.31840   0.00000  Uiso   1.00
O403   O     0.52575   0.83575   0.32793   0.00000  Uiso   1.00
O404   O     0.43809   0.75245   0.24414   0.00000  Uiso   1.00
O405   O     0.53869   0.76193   0.25367   0.00000  Uiso   1.00
O406   O     0.47425   0.83092   0.17207   0.00000  Uiso   1.00
O407   O     0.57485   0.84040   0.18160   0.00000  Uiso   1.00
O408   O     0.66402   0.79925   0.19303   0.00000  Uiso   1.00
C409   C     0.84823   0.93338   0.25205   0.00000  Uiso   1.00
C410   C     0.77952   0.83215   0.40335   0.00000  Uiso   1.00
C411   C     0.85597   0.98935   0.25422   0.00000  Uiso   1.00
C412   C     0.80000   0.83278   0.34721   0.00000  Uiso   1.00
C413   C     0.80971   0.67722   0.24757   0.00000  Uiso   1.00
C414   C     0.81812   0.73327   0.24860   0.00000  Uiso   1.00
C415   C     0.86710   0.83704   0.15302   0.00000  Uiso   1.00
C416   C     0.95944   0.89291   0.02752   0.00000  Uiso   1.00
C417   C     0.88726   0.84586   0.09810   0.00000  Uiso   1.00
C418   C     0.71800   0.80613   0.42420   0.00000  Uiso   1.00
C419   C     0.69988   0.79656   0.47607   0.00000  Uiso   1.00
C420   C     0.80611   0.83660   0.48792   0.00000  Uiso   1.00
C421   C     0.74334   0.81063   0.00755   0.00000  Uiso   1.00
C422   C     0.67766   0.74902   0.18217   0.00000  Uiso   1.00
C423   C     0.97285   0.71962   0.14396   0.00000  Uiso   1.00
C424   C     0.82241   0.85168   0.43619   0.00000  Uiso   1.00
C425   C     0.85304   0.84875   0.01808   0.00000  Uiso   1.00
C426   C     0.91300   0.88021   0.49797   0.00000  Uiso   1.00
C427   C     0.92549   0.89974   0.44908   0.00000  Uiso   1.00
C428   C     0.88071   0.88635   0.41891   0.00000  Uiso   1.00
C429   C     0.84236   0.83035   0.06766   0.00000  Uiso   1.00
C430   C     0.94651   0.87606   0.07753   0.00000  Uiso   1.00
Cu431  Cu    0.77377   0.82772   0.24436   0.00000  Uiso   1.00
Cu432  Cu    0.89290   0.83895   0.25564   0.00000  Uiso   1.00
H433   H     0.98171   0.88851   0.10068   0.00000  Uiso   1.00
H434   H     0.89203   0.90481   0.38238   0.00000  Uiso   1.00
H435   H     0.90005   0.67990   0.26139   0.00000  Uiso   1.00
H436   H     0.99847   0.72537   0.21716   0.00000  Uiso   1.00
H437   H     0.72783   0.75224   0.16443   0.00000  Uiso   1.00
H438   H     0.98546   0.74125   0.10784   0.00000  Uiso   1.00
H439   H     0.98256   0.67957   0.13552   0.00000  Uiso   1.00
H440   H     0.92199   0.71583   0.15976   0.00000  Uiso   1.00
H441   H     0.76531   0.98665   0.24089   0.00000  Uiso   1.00
H442   H     0.66674   0.86681   0.29459   0.00000  Uiso   1.00
H443   H     0.97018   0.92555   0.43401   0.00000  Uiso   1.00
H444   H     0.67192   0.91697   0.01233   0.00000  Uiso   1.00
H445   H     0.79880   0.80445   0.08412   0.00000  Uiso   1.00
H446   H     0.68414   0.79181   0.40012   0.00000  Uiso   1.00
H447   H     0.72581   0.80196   0.04732   0.00000  Uiso   1.00
H448   H     0.98542   0.77684   0.49184   0.00000  Uiso   1.00
N449   N     0.98241   0.84741   0.26416   0.00000  Uiso   1.00
N450   N     0.68426   0.81926   0.23584   0.00000  Uiso   1.00
O451   O     0.79464   0.90474   0.24633   0.00000  Uiso   1.00
O452   O     0.89524   0.91422   0.25586   0.00000  Uiso   1.00
O453   O     0.75848   0.82627   0.31840   0.00000  Uiso   1.00
O454   O     0.85908   0.83575   0.32793   0.00000  Uiso   1.00
O455   O     0.77142   0.75245   0.24414   0.00000  Uiso   1.00
O456   O     0.87203   0.76193   0.25367   0.00000  Uiso   1.00
O457   O     0.80758   0.83092   0.17207   0.00000  Uiso   1.00
O458   O     0.90819   0.84040   0.18160   0.00000  Uiso   1.00
O459   O     0.99736   0.79925   0.19303   0.00000  Uiso   1.00
C460   C     0.18157   0.26671   0.75205   0.00000  Uiso   1.00
C461   C     0.11286   0.16548   0.90335   0.00000  Uiso   1.00
C462   C     0.18931   0.32269   0.75422   0.00000  Uiso   1.00
C463   C     0.13334   0.16612   0.84721   0.00000  Uiso   1.00
C464   C     0.14305   0.01056   0.74757   0.00000  Uiso   1.00
C465   C     0.15146   0.06660   0.74860   0.00000  Uiso   1.00
C466   C     0.20044   0.17037   0.65302   0.00000  Uiso   1.00
C467   C     0.29277   0.22624   0.52752   0.00000  Uiso   1.00
C468   C     0.22059   0.17920   0.59810   0.00000  Uiso   1.00
C469   C     0.05133   0.13946   0.92420   0.00000  Uiso   1.00
C470   C     0.03321   0.12989   0.97607   0.00000  Uiso   1.00
C471   C     0.13945   0.16994   0.98792   0.00000  Uiso   1.00
C472   C     0.07667   0.14396   0.50755   0.00000  Uiso   1.00
C473   C     0.01099   0.08236   0.68217   0.00000  Uiso   1.00
C474   C     0.30618   0.05295   0.64396   0.00000  Uiso   1.00
C475   C     0.15574   0.18502   0.93619   0.00000  Uiso   1.00
C476   C     0.18638   0.18208   0.51808   0.00000  Uiso   1.00
C477   C     0.24634   0.21354   0.99797   0.00000  Uiso   1.00
C478   C     0.25883   0.23308   0.94908   0.00000  Uiso   1.00
C479   C     0.21404   0.21968   0.91891   0.00000  Uiso   1.00
C480   C     0.17569   0.16368   0.56766   0.00000  Uiso   1.00
C481   C     0.27984   0.20940   0.57753   0.00000  Uiso   1.00
Cu482  Cu    0.10710   0.16105   0.74436   0.00000  Uiso   1.00
Cu483  Cu    0.22623   0.17228   0.75564   0.00000  Uiso   1.00
H484   H     0.31504   0.22185   0.60068   0.00000  Uiso   1.00
H485   H     0.22537   0.23814   0.88238   0.00000  Uiso   1.00
H486   H     0.23338   0.01323   0.76139   0.00000  Uiso   1.00
H487   H     0.33180   0.05870   0.71716   0.00000  Uiso   1.00
H488   H     0.06116   0.08557   0.66443   0.00000  Uiso   1.00
H489   H     0.31880   0.07459   0.60784   0.00000  Uiso   1.00
H490   H     0.31589   0.01291   0.63552   0.00000  Uiso   1.00
H491   H     0.25532   0.04917   0.65976   0.00000  Uiso   1.00
H492   H     0.09864   0.31998   0.74089   0.00000  Uiso   1.00
H493   H     0.00007   0.20014   0.79459   0.00000  Uiso   1.00
H494   H     0.30352   0.25888   0.93401   0.00000  Uiso   1.00
H495   H     0.00525   0.25031   0.51233   0.00000  Uiso   1.00
H496   H     0.13213   0.13779   0.58412   0.00000  Uiso   1.00
H497   H     0.01748   0.12514   0.90012   0.00000  Uiso   1.00
H498   H     0.05914   0.13529   0.54732   0.00000  Uiso   1.00
H499   H     0.31875   0.11017   0.99184   0.00000  Uiso   1.00
N500   N     0.31574   0.18074   0.76416   0.00000  Uiso   1.00
N501   N     0.01759   0.15259   0.73584   0.00000  Uiso   1.00
O502   O     0.12797   0.23807   0.74633   0.00000  Uiso   1.00
O503   O     0.22858   0.24755   0.75586   0.00000  Uiso   1.00
O504   O     0.09181   0.15960   0.81840   0.00000  Uiso   1.00
O505   O     0.19242   0.16908   0.82793   0.00000  Uiso   1.00
O506   O     0.10476   0.08578   0.74414   0.00000  Uiso   1.00
O507   O     0.20536   0.09526   0.75367   0.00000  Uiso   1.00
O508   O     0.14092   0.16425   0.67207   0.00000  Uiso   1.00
O509   O     0.24152   0.17373   0.68160   0.00000  Uiso   1.00
O510   O     0.33069   0.13258   0.69303   0.00000  Uiso   1.00
C511   C     0.51490   0.26671   0.75205   0.00000  Uiso   1.00
C512   C     0.44619   0.16548   0.90335   0.00000  Uiso   1.00
C513   C     0.52264   0.32269   0.75422   0.00000  Uiso   1.00
C514   C     0.46667   0.16612   0.84721   0.00000  Uiso   1.00
C515   C     0.47638   0.01056   0.74757   0.00000  Uiso   1.00
C516   C     0.48479   0.06660   0.74860   0.00000  Uiso   1.00
C517   C     0.53377   0.17037   0.65302   0.00000  Uiso   1.00
C518   C     0.62611   0.22624   0.52752   0.00000  Uiso   1.00
C519   C     0.55393   0.17920   0.59810   0.00000  Uiso   1.00
C520   C     0.38466   0.13946   0.92420   0.00000  Uiso   1.00
C521   C     0.36654   0.12989   0.97607   0.00000  Uiso   1.00
C522   C     0.47278   0.16994   0.98792   0.00000  Uiso   1.00
C523   C     0.41000   0.14396   0.50755   0.00000  Uiso   1.00
C524   C     0.34432   0.08236   0.68217   0.00000  Uiso   1.00
C525   C     0.63952   0.05295   0.64396   0.00000  Uiso   1.00
C526   C     0.48907   0.18502   0.93619   0.00000  Uiso   1.00
C527   C     0.51971   0.18208   0.51808   0.00000  Uiso   1.00
C528   C     0.57967   0.21354   0.99797   0.00000  Uiso   1.00
C529   C     0.59216   0.23308   0.94908   0.00000  Uiso   1.00
C530   C     0.54738   0.21968   0.91891   0.00000  Uiso   1.00
C531   C     0.50902   0.16368   0.56766   0.00000  Uiso   1.00
C532   C     0.61318   0.20940   0.57753   0.00000  Uiso   1.00
Cu533  Cu    0.44043   0.16105   0.74436   0.00000  Uiso   1.00
Cu534  Cu    0.55957   0.17228   0.75564   0.00000  Uiso   1.00
H535   H     0.64838   0.22185   0.60068   0.00000  Uiso   1.00
H536   H     0.55870   0.23814   0.88238   0.00000  Uiso   1.00
H537   H     0.56672   0.01323   0.76139   0.00000  Uiso   1.00
H538   H     0.66513   0.05870   0.71716   0.00000  Uiso   1.00
H539   H     0.39450   0.08557   0.66443   0.00000  Uiso   1.00
H540   H     0.65213   0.07459   0.60784   0.00000  Uiso   1.00
H541   H     0.64922   0.01291   0.63552   0.00000  Uiso   1.00
H542   H     0.58866   0.04917   0.65976   0.00000  Uiso   1.00
H543   H     0.43197   0.31998   0.74089   0.00000  Uiso   1.00
H544   H     0.33340   0.20014   0.79459   0.00000  Uiso   1.00
H545   H     0.63685   0.25888   0.93401   0.00000  Uiso   1.00
H546   H     0.33858   0.25031   0.51233   0.00000  Uiso   1.00
H547   H     0.46547   0.13779   0.58412   0.00000  Uiso   1.00
H548   H     0.35081   0.12514   0.90012   0.00000  Uiso   1.00
H549   H     0.39247   0.13529   0.54732   0.00000  Uiso   1.00
H550   H     0.65209   0.11017   0.99184   0.00000  Uiso   1.00
N551   N     0.64908   0.18074   0.76416   0.00000  Uiso   1.00
N552   N     0.35092   0.15259   0.73584   0.00000  Uiso   1.00
O553   O     0.46131   0.23807   0.74633   0.00000  Uiso   1.00
O554   O     0.56191   0.24755   0.75586   0.00000  Uiso   1.00
O555   O     0.42515   0.15960   0.81840   0.00000  Uiso   1.00
O556   O     0.52575   0.16908   0.82793   0.00000  Uiso   1.00
O557   O     0.43809   0.08578   0.74414   0.00000  Uiso   1.00
O558   O     0.53869   0.09526   0.75367   0.00000  Uiso   1.00
O559   O     0.47425   0.16425   0.67207   0.00000  Uiso   1.00
O560   O     0.57485   0.17373   0.68160   0.00000  Uiso   1.00
O561   O     0.66402   0.13258   0.69303   0.00000  Uiso   1.00
C562   C     0.84823   0.26671   0.75205   0.00000  Uiso   1.00
C563   C     0.77952   0.16548   0.90335   0.00000  Uiso   1.00
C564   C     0.85597   0.32269   0.75422   0.00000  Uiso   1.00
C565   C     0.80000   0.16612   0.84721   0.00000  Uiso   1.00
C566   C     0.80971   0.01056   0.74757   0.00000  Uiso   1.00
C567   C     0.81812   0.06660   0.74860   0.00000  Uiso   1.00
C568   C     0.86710   0.17037   0.65302   0.00000  Uiso   1.00
C569   C     0.95944   0.22624   0.52752   0.00000  Uiso   1.00
C570   C     0.88726   0.17920   0.59810   0.00000  Uiso   1.00
C571   C     0.71800   0.13946   0.92420   0.00000  Uiso   1.00
C572   C     0.69988   0.12989   0.97607   0.00000  Uiso   1.00
C573   C     0.80611   0.16994   0.98792   0.00000  Uiso   1.00
C574   C     0.74334   0.14396   0.50755   0.00000  Uiso   1.00
C575   C     0.67766   0.08236   0.68217   0.00000  Uiso   1.00
C576   C     0.97285   0.05295   0.64396   0.00000  Uiso   1.00
C577   C     0.82241   0.18502   0.93619   0.00000  Uiso   1.00
C578   C     0.85304   0.18208   0.51808   0.00000  Uiso   1.00
C579   C     0.91300   0.21354   0.99797   0.00000  Uiso   1.00
C580   C     0.92549   0.23308   0.94908   0.00000  Uiso   1.00
C581   C     0.88071   0.21968   0.91891   0.00000  Uiso   1.00
C582   C     0.84236   0.16368   0.56766   0.00000  Uiso   1.00
C583   C     0.94651   0.20940   0.57753   0.00000  Uiso   1.00
Cu584  Cu    0.77377   0.16105   0.74436   0.00000  Uiso   1.00
Cu585  Cu    0.89290   0.17228   0.75564   0.00000  Uiso   1.00
H586   H     0.98171   0.22185   0.60068   0.00000  Uiso   1.00
H587   H     0.89203   0.23814   0.88238   0.00000  Uiso   1.00
H588   H     0.90005   0.01323   0.76139   0.00000  Uiso   1.00
H589   H     0.99847   0.05870   0.71716   0.00000  Uiso   1.00
H590   H     0.72783   0.08557   0.66443   0.00000  Uiso   1.00
H591   H     0.98546   0.07459   0.60784   0.00000  Uiso   1.00
H592   H     0.98256   0.01291   0.63552   0.00000  Uiso   1.00
H593   H     0.92199   0.04917   0.65976   0.00000  Uiso   1.00
H594   H     0.76531   0.31998   0.74089   0.00000  Uiso   1.00
H595   H     0.66674   0.20014   0.79459   0.00000  Uiso   1.00
H596   H     0.97018   0.25888   0.93401   0.00000  Uiso   1.00
H597   H     0.67192   0.25031   0.51233   0.00000  Uiso   1.00
H598   H     0.79880   0.13779   0.58412   0.00000  Uiso   1.00
H599   H     0.68414   0.12514   0.90012   0.00000  Uiso   1.00
H600   H     0.72581   0.13529   0.54732   0.00000  Uiso   1.00
H601   H     0.98542   0.11017   0.99184   0.00000  Uiso   1.00
N602   N     0.98241   0.18074   0.76416   0.00000  Uiso   1.00
N603   N     0.68426   0.15259   0.73584   0.00000  Uiso   1.00
O604   O     0.79464   0.23807   0.74633   0.00000  Uiso   1.00
O605   O     0.89524   0.24755   0.75586   0.00000  Uiso   1.00
O606   O     0.75848   0.15960   0.81840   0.00000  Uiso   1.00
O607   O     0.85908   0.16908   0.82793   0.00000  Uiso   1.00
O608   O     0.77142   0.08578   0.74414   0.00000  Uiso   1.00
O609   O     0.87203   0.09526   0.75367   0.00000  Uiso   1.00
O610   O     0.80758   0.16425   0.67207   0.00000  Uiso   1.00
O611   O     0.90819   0.17373   0.68160   0.00000  Uiso   1.00
O612   O     0.99736   0.13258   0.69303   0.00000  Uiso   1.00
C613   C     0.18157   0.60004   0.75205   0.00000  Uiso   1.00
C614   C     0.11286   0.49881   0.90335   0.00000  Uiso   1.00
C615   C     0.18931   0.65602   0.75422   0.00000  Uiso   1.00
C616   C     0.13334   0.49945   0.84721   0.00000  Uiso   1.00
C617   C     0.14305   0.34389   0.74757   0.00000  Uiso   1.00
C618   C     0.15146   0.39994   0.74860   0.00000  Uiso   1.00
C619   C     0.20044   0.50370   0.65302   0.00000  Uiso   1.00
C620   C     0.29277   0.55957   0.52752   0.00000  Uiso   1.00
C621   C     0.22059   0.51253   0.59810   0.00000  Uiso   1.00
C622   C     0.05133   0.47280   0.92420   0.00000  Uiso   1.00
C623   C     0.03321   0.46322   0.97607   0.00000  Uiso   1.00
C624   C     0.13945   0.50327   0.98792   0.00000  Uiso   1.00
C625   C     0.07667   0.47729   0.50755   0.00000  Uiso   1.00
C626   C     0.01099   0.41569   0.68217   0.00000  Uiso   1.00
C627   C     0.30618   0.38628   0.64396   0.00000  Uiso   1.00
C628   C     0.15574   0.51835   0.93619   0.00000  Uiso   1.00
C629   C     0.18638   0.51542   0.51808   0.00000  Uiso   1.00
C630   C     0.24634   0.54688   0.99797   0.00000  Uiso   1.00
C631   C     0.25883   0.56641   0.94908   0.00000  Uiso   1.00
C632   C     0.21404   0.55302   0.91891   0.00000  Uiso   1.00
C633   C     0.17569   0.49702   0.56766   0.00000  Uiso   1.00
C634   C     0.27984   0.54273   0.57753   0.00000  Uiso   1.00
Cu635  Cu    0.10710   0.49439   0.74436   0.00000  Uiso   1.00
Cu636  Cu    0.22623   0.50561   0.75564   0.00000  Uiso   1.00
H637   H     0.31504   0.55518   0.60068   0.00000  Uiso   1.00
H638   H     0.22537   0.57148   0.88238   0.00000  Uiso   1.00
H639   H     0.23338   0.34657   0.76139   0.00000  Uiso   1.00
H640   H     0.33180   0.39204   0.71716   0.00000  Uiso   1.00
H641   H     0.06116   0.41891   0.66443   0.00000  Uiso   1.00
H642   H     0.31880   0.40792   0.60784   0.00000  Uiso   1.00
H643   H     0.31589   0.34624   0.63552   0.00000  Uiso   1.00
H644   H     0.25532   0.38250   0.65976   0.00000  Uiso   1.00
H645   H     0.09864   0.65332   0.74089   0.00000  Uiso   1.00
H646   H     0.00007   0.53348   0.79459   0.00000  Uiso   1.00
H647   H     0.30352   0.59222   0.93401   0.00000  Uiso   1.00
H648   H     0.00525   0.58364   0.51233   0.00000  Uiso   1.00
H649   H     0.13213   0.47112   0.58412   0.00000  Uiso   1.00
H650   H     0.01748   0.45847   0.90012   0.00000  Uiso   1.00
H651   H     0.05914   0.46862   0.54732   0.00000  Uiso   1.00
H652   H     0.31875   0.44351   0.99184   0.00000  Uiso   1.00
N653   N     0.31574   0.51407   0.76416   0.00000  Uiso   1.00
N654   N     0.01759   0.48593   0.73584   0.00000  Uiso   1.00
O655   O     0.12797   0.57141   0.74633   0.00000  Uiso   1.00
O656   O     0.22858   0.58089   0.75586   0.00000  Uiso   1.00
O657   O     0.09181   0.49293   0.81840   0.00000  Uiso   1.00
O658   O     0.19242   0.50241   0.82793   0.00000  Uiso   1.00
O659   O     0.10476   0.41911   0.74414   0.00000  Uiso   1.00
O660   O     0.20536   0.42859   0.75367   0.00000  Uiso   1.00
O661   O     0.14092   0.49759   0.67207   0.00000  Uiso   1.00
O662   O     0.24152   0.50707   0.68160   0.00000  Uiso   1.00
O663   O     0.33069   0.46592   0.69303   0.00000  Uiso   1.00
C664   C     0.51490   0.60004   0.75205   0.00000  Uiso   1.00
C665   C     0.44619   0.49881   0.90335   0.00000  Uiso   1.00
C666   C     0.52264   0.65602   0.75422   0.00000  Uiso   1.00
C667   C     0.46667   0.49945   0.84721   0.00000  Uiso   1.00
C668   C     0.47638   0.34389   0.74757   0.00000  Uiso   1.00
C669   C     0.48479   0.39994   0.74860   0.00000  Uiso   1.00
C670   C     0.53377   0.50370   0.65302   0.00000  Uiso   1.00
C671   C     0.62611   0.55957   0.52752   0.00000  Uiso   1.00
C672   C     0.55393   0.51253   0.59810   0.00000  Uiso   1.00
C673   C     0.38466   0.47280   0.92420   0.00000  Uiso   1.00
C674   C     0.36654   0.46322   0.97607   0.00000  Uiso   1.00
C675   C     0.47278   0.50327   0.98792   0.00000  Uiso   1.00
C676   C     0.41000   0.47729   0.50755   0.00000  Uiso   1.00
C677   C     0.34432   0.41569   0.68217   0.00000  Uiso   1.00
C678   C     0.63952   0.38628   0.64396   0.00000  Uiso   1.00
C679   C     0.48907   0.51835   0.93619   0.00000  Uiso   1.00
C680   C     0.51971   0.51542   0.51808   0.00000  Uiso   1.00
C681   C     0.57967   0.54688   0.99797   0.00000  Uiso   1.00
C682   C     0.59216   0.56641   0.94908   0.00000  Uiso   1.00
C683   C     0.54738   0.55302   0.91891   0.00000  Uiso   1.00
C684   C     0.50902   0.49702   0.56766   0.00000  Uiso   1.00
C685   C     0.61318   0.54273   0.57753   0.00000  Uiso   1.00
Cu686  Cu    0.44043   0.49439   0.74436   0.00000  Uiso   1.00
Cu687  Cu    0.55957   0.50561   0.75564   0.00000  Uiso   1.00
H688   H     0.64838   0.55518   0.60068   0.00000  Uiso   1.00
H689   H     0.55870   0.57148   0.88238   0.00000  Uiso   1.00
H690   H     0.56672   0.34657   0.76139   0.00000  Uiso   1.00
H691   H     0.66513   0.39204   0.71716   0.00000  Uiso   1.00
H692   H     0.39450   0.41891   0.66443   0.00000  Uiso   1.00
H693   H     0.65213   0.40792   0.60784   0.00000  Uiso   1.00
H694   H     0.64922   0.34624   0.63552   0.00000  Uiso   1.00
H695   H     0.58866   0.38250   0.65976   0.00000  Uiso   1.00
H696   H     0.43197   0.65332   0.74089   0.00000  Uiso   1.00
H697   H     0.33340   0.53348   0.79459   0.00000  Uiso   1.00
H698   H     0.63685   0.59222   0.93401   0.00000  Uiso   1.00
H699   H     0.33858   0.58364   0.51233   0.00000  Uiso   1.00
H700   H     0.46547   0.47112   0.58412   0.00000  Uiso   1.00
H701   H     0.35081   0.45847   0.90012   0.00000  Uiso   1.00
H702   H     0.39247   0.46862   0.54732   0.00000  Uiso   1.00
H703   H     0.65209   0.44351   0.99184   0.00000  Uiso   1.00
N704   N     0.64908   0.51407   0.76416   0.00000  Uiso   1.00
N705   N     0.35092   0.48593   0.73584   0.00000  Uiso   1.00
O706   O     0.46131   0.57141   0.74633   0.00000  Uiso   1.00
O707   O     0.56191   0.58089   0.75586   0.00000  Uiso   1.00
O708   O     0.42515   0.49293   0.81840   0.00000  Uiso   1.00
O709   O     0.52575   0.50241   0.82793   0.00000  Uiso   1.00
O710   O     0.43809   0.41911   0.74414   0.00000  Uiso   1.00
O711   O     0.53869   0.42859   0.75367   0.00000  Uiso   1.00
O712   O     0.47425   0.49759   0.67207   0.00000  Uiso   1.00
O713   O     0.57485   0.50707   0.68160   0.00000  Uiso   1.00
O714   O     0.66402   0.46592   0.69303   0.00000  Uiso   1.00
C715   C     0.84823   0.60004   0.75205   0.00000  Uiso   1.00
C716   C     0.77952   0.49881   0.90335   0.00000  Uiso   1.00
C717   C     0.85597   0.65602   0.75422   0.00000  Uiso   1.00
C718   C     0.80000   0.49945   0.84721   0.00000  Uiso   1.00
C719   C     0.80971   0.34389   0.74757   0.00000  Uiso   1.00
C720   C     0.81812   0.39994   0.74860   0.00000  Uiso   1.00
C721   C     0.86710   0.50370   0.65302   0.00000  Uiso   1.00
C722   C     0.95944   0.55957   0.52752   0.00000  Uiso   1.00
C723   C     0.88726   0.51253   0.59810   0.00000  Uiso   1.00
C724   C     0.71800   0.47280   0.92420   0.00000  Uiso   1.00
C725   C     0.69988   0.46322   0.97607   0.00000  Uiso   1.00
C726   C     0.80611   0.50327   0.98792   0.00000  Uiso   1.00
C727   C     0.74334   0.47729   0.50755   0.00000  Uiso   1.00
C728   C     0.67766   0.41569   0.68217   0.00000  Uiso   1.00
C729   C     0.97285   0.38628   0.64396   0.00000  Uiso   1.00
C730   C     0.82241   0.51835   0.93619   0.00000  Uiso   1.00
C731   C     0.85304   0.51542   0.51808   0.00000  Uiso   1.00
C732   C     0.91300   0.54688   0.99797   0.00000  Uiso   1.00
C733   C     0.92549   0.56641   0.94908   0.00000  Uiso   1.00
C734   C     0.88071   0.55302   0.91891   0.00000  Uiso   1.00
C735   C     0.84236   0.49702   0.56766   0.00000  Uiso   1.00
C736   C     0.94651   0.54273   0.57753   0.00000  Uiso   1.00
Cu737  Cu    0.77377   0.49439   0.74436   0.00000  Uiso   1.00
Cu738  Cu    0.89290   0.50561   0.75564   0.00000  Uiso   1.00
H739   H     0.98171   0.55518   0.60068   0.00000  Uiso   1.00
H740   H     0.89203   0.57148   0.88238   0.00000  Uiso   1.00
H741   H     0.90005   0.34657   0.76139   0.00000  Uiso   1.00
H742   H     0.99847   0.39204   0.71716   0.00000  Uiso   1.00
H743   H     0.72783   0.41891   0.66443   0.00000  Uiso   1.00
H744   H     0.98546   0.40792   0.60784   0.00000  Uiso   1.00
H745   H     0.98256   0.34624   0.63552   0.00000  Uiso   1.00
H746   H     0.92199   0.38250   0.65976   0.00000  Uiso   1.00
H747   H     0.76531   0.65332   0.74089   0.00000  Uiso   1.00
H748   H     0.66674   0.53348   0.79459   0.00000  Uiso   1.00
H749   H     0.97018   0.59222   0.93401   0.00000  Uiso   1.00
H750   H     0.67192   0.58364   0.51233   0.00000  Uiso   1.00
H751   H     0.79880   0.47112   0.58412   0.00000  Uiso   1.00
H752   H     0.68414   0.45847   0.90012   0.00000  Uiso   1.00
H753   H     0.72581   0.46862   0.54732   0.00000  Uiso   1.00
H754   H     0.98542   0.44351   0.99184   0.00000  Uiso   1.00
N755   N     0.98241   0.51407   0.76416   0.00000  Uiso   1.00
N756   N     0.68426   0.48593   0.73584   0.00000  Uiso   1.00
O757   O     0.79464   0.57141   0.74633   0.00000  Uiso   1.00
O758   O     0.89524   0.58089   0.75586   0.00000  Uiso   1.00
O759   O     0.75848   0.49293   0.81840   0.00000  Uiso   1.00
O760   O     0.85908   0.50241   0.82793   0.00000  Uiso   1.00
O761   O     0.77142   0.41911   0.74414   0.00000  Uiso   1.00
O762   O     0.87203   0.42859   0.75367   0.00000  Uiso   1.00
O763   O     0.80758   0.49759   0.67207   0.00000  Uiso   1.00
O764   O     0.90819   0.50707   0.68160   0.00000  Uiso   1.00
O765   O     0.99736   0.46592   0.69303   0.00000  Uiso   1.00
C766   C     0.18157   0.93338   0.75205   0.00000  Uiso   1.00
C767   C     0.11286   0.83215   0.90335   0.00000  Uiso   1.00
C768   C     0.18931   0.98935   0.75422   0.00000  Uiso   1.00
C769   C     0.13334   0.83278   0.84721   0.00000  Uiso   1.00
C770   C     0.14305   0.67722   0.74757   0.00000  Uiso   1.00
C771   C     0.15146   0.73327   0.74860   0.00000  Uiso   1.00
C772   C     0.20044   0.83704   0.65302   0.00000  Uiso   1.00
C773   C     0.29277   0.89291   0.52752   0.00000  Uiso   1.00
C774   C     0.22059   0.84586   0.59810   0.00000  Uiso   1.00
C775   C     0.05133   0.80613   0.92420   0.00000  Uiso   1.00
C776   C     0.03321   0.79656   0.97607   0.00000  Uiso   1.00
C777   C     0.13945   0.83660   0.98792   0.00000  Uiso   1.00
C778   C     0.07667   0.81063   0.50755   0.00000  Uiso   1.00
C779   C     0.01099   0.74902   0.68217   0.00000  Uiso   1.00
C780   C     0.30618   0.71962   0.64396   0.00000  Uiso   1.00
C781   C     0.15574   0.85168   0.93619   0.00000  Uiso   1.00
C782   C     0.18638   0.84875   0.51808   0.00000  Uiso   1.00
C783   C     0.24634   0.88021   0.99797   0.00000  Uiso   1.00
C784   C     0.25883   0.89974   0.94908   0.00000  Uiso   1.00
C785   C     0.21404   0.88635   0.91891   0.00000  Uiso   1.00
C786   C     0.17569   0.83035   0.56766   0.00000  Uiso   1.00
C787   C     0.27984   0.87606   0.57753   0.00000  Uiso   1.00
Cu788  Cu    0.10710   0.82772   0.74436   0.00000  Uiso   1.00
Cu789  Cu    0.22623   0.83895   0.75564   0.00000  Uiso   1.00
H790   H     0.31504   0.88851   0.60068   0.00000  Uiso   1.00
H791   H     0.22537   0.90481   0.88238   0.00000  Uiso   1.00
H792   H     0.23338   0.67990   0.76139   0.00000  Uiso   1.00
H793   H     0.33180   0.72537   0.71716   0.00000  Uiso   1.00
H794   H     0.06116   0.75224   0.66443   0.00000  Uiso   1.00
H795   H     0.31880   0.74125   0.60784   0.00000  Uiso   1.00
H796   H     0.31589   0.67957   0.63552   0.00000  Uiso   1.00
H797   H     0.25532   0.71583   0.65976   0.00000  Uiso   1.00
H798   H     0.09864   0.98665   0.74089   0.00000  Uiso   1.00
H799   H     0.00007   0.86681   0.79459   0.00000  Uiso   1.00
H800   H     0.30352   0.92555   0.93401   0.00000  Uiso   1.00
H801   H     0.00525   0.91697   0.51233   0.00000  Uiso   1.00
H802   H     0.13213   0.80445   0.58412   0.00000  Uiso   1.00
H803   H     0.01748   0.79181   0.90012   0.00000  Uiso   1.00
H804   H     0.05914   0.80196   0.54732   0.00000  Uiso   1.00
H805   H     0.31875   0.77684   0.99184   0.00000  Uiso   1.00
N806   N     0.31574   0.84741   0.76416   0.00000  Uiso   1.00
N807   N     0.01759   0.81926   0.73584   0.00000  Uiso   1.00
O808   O     0.12797   0.90474   0.74633   0.00000  Uiso   1.00
O809   O     0.22858   0.91422   0.75586   0.00000  Uiso   1.00
O810   O     0.09181   0.82627   0.81840   0.00000  Uiso   1.00
O811   O     0.19242   0.83575   0.82793   0.00000  Uiso   1.00
O812   O     0.10476   0.75245   0.74414   0.00000  Uiso   1.00
O813   O     0.20536   0.76193   0.75367   0.00000  Uiso   1.00
O814   O     0.14092   0.83092   0.67207   0.00000  Uiso   1.00
O815   O     0.24152   0.84040   0.68160   0.00000  Uiso   1.00
O816   O     0.33069   0.79925   0.69303   0.00000  Uiso   1.00
C817   C     0.51490   0.93338   0.75205   0.00000  Uiso   1.00
C818   C     0.44619   0.83215   0.90335   0.00000  Uiso   1.00
C819   C     0.52264   0.98935   0.75422   0.00000  Uiso   1.00
C820   C     0.46667   0.83278   0.84721   0.00000  Uiso   1.00
C821   C     0.47638   0.67722   0.74757   0.00000  Uiso   1.00
C822   C     0.48479   0.73327   0.74860   0.00000  Uiso   1.00
C823   C     0.53377   0.83704   0.65302   0.00000  Uiso   1.00
C824   C     0.62611   0.89291   0.52752   0.00000  Uiso   1.00
C825   C     0.55393   0.84586   0.59810   0.00000  Uiso   1.00
C826   C     0.38466   0.80613   0.92420   0.00000  Uiso   1.00
C827   C     0.36654   0.79656   0.97607   0.00000  Uiso   1.00
C828   C     0.47278   0.83660   0.98792   0.00000  Uiso   1.00
C829   C     0.41000   0.81063   0.50755   0.00000  Uiso   1.00
C830   C     0.34432   0.74902   0.68217   0.00000  Uiso   1.00
C831   C     0.63952   0.71962   0.64396   0.00000  Uiso   1.00
C832   C     0.48907   0.85168   0.93619   0.00000  Uiso   1.00
C833   C     0.51971   0.84875   0.51808   0.00000  Uiso   1.00
C834   C     0.57967   0.88021   0.99797   0.00000  Uiso   1.00
C835   C     0.59216   0.89974   0.94908   0.00000  Uiso   1.00
C836   C     0.54738   0.88635   0.91891   0.00000  Uiso   1.00
C837   C     0.50902   0.83035   0.56766   0.00000  Uiso   1.00
C838   C     0.61318   0.87606   0.57753   0.00000  Uiso   1.00
Cu839  Cu    0.44043   0.82772   0.74436   0.00000  Uiso   1.00
Cu840  Cu    0.55957   0.83895   0.75564   0.00000  Uiso   1.00
H841   H     0.64838   0.88851   0.60068   0.00000  Uiso   1.00
H842   H     0.55870   0.90481   0.88238   0.00000  Uiso   1.00
H843   H     0.56672   0.67990   0.76139   0.00000  Uiso   1.00
H844   H     0.66513   0.72537   0.71716   0.00000  Uiso   1.00
H845   H     0.39450   0.75224   0.66443   0.00000  Uiso   1.00
H846   H     0.65213   0.74125   0.60784   0.00000  Uiso   1.00
H847   H     0.64922   0.67957   0.63552   0.00000  Uiso   1.00
H848   H     0.58866   0.71583   0.65976   0.00000  Uiso   1.00
H849   H     0.43197   0.98665   0.74089   0.00000  Uiso   1.00
H850   H     0.33340   0.86681   0.79459   0.00000  Uiso   1.00
H851   H     0.63685   0.92555   0.93401   0.00000  Uiso   1.00
H852   H     0.33858   0.91697   0.51233   0.00000  Uiso   1.00
H853   H     0.46547   0.80445   0.58412   0.00000  Uiso   1.00
H854   H     0.35081   0.79181   0.90012   0.00000  Uiso   1.00
H855   H     0.39247   0.80196   0.54732   0.00000  Uiso   1.00
H856   H     0.65209   0.77684   0.99184   0.00000  Uiso   1.00
N857   N     0.64908   0.84741   0.76416   0.00000  Uiso   1.00
N858   N     0.35092   0.81926   0.73584   0.00000  Uiso   1.00
O859   O     0.46131   0.90474   0.74633   0.00000  Uiso   1.00
O860   O     0.56191   0.91422   0.75586   0.00000  Uiso   1.00
O861   O     0.42515   0.82627   0.81840   0.00000  Uiso   1.00
O862   O     0.52575   0.83575   0.82793   0.00000  Uiso   1.00
O863   O     0.43809   0.75245   0.74414   0.00000  Uiso   1.00
O864   O     0.53869   0.76193   0.75367   0.00000  Uiso   1.00
O865   O     0.47425   0.83092   0.67207   0.00000  Uiso   1.00
O866   O     0.57485   0.84040   0.68160   0.00000  Uiso   1.00
O867   O     0.66402   0.79925   0.69303   0.00000  Uiso   1.00
C868   C     0.84823   0.93338   0.75205   0.00000  Uiso   1.00
C869   C     0.77952   0.83215   0.90335   0.00000  Uiso   1.00
C870   C     0.85597   0.98935   0.75422   0.00000  Uiso   1.00
C871   C     0.80000   0.83278   0.84721   0.00000  Uiso   1.00
C872   C     0.80971   0.67722   0.74757   0.00000  Uiso   1.00
C873   C     0.81812   0.73327   0.74860   0.00000  Uiso   1.00
C874   C     0.86710   0.83704   0.65302   0.00000  Uiso   1.00
C875   C     0.95944   0.89291   0.52752   0.00000  Uiso   1.00
C876   C     0.88726   0.84586   0.59810   0.00000  Uiso   1.00
C877   C     0.71800   0.80613   0.92420   0.00000  Uiso   1.00
C878   C     0.69988   0.79656   0.97607   0.00000  Uiso   1.00
C879   C     0.80611   0.83660   0.98792   0.00000  Uiso   1.00
C880   C     0.74334   0.81063   0.50755   0.00000  Uiso   1.00
C881   C     0.67766   0.74902   0.68217   0.00000  Uiso   1.00
C882   C     0.97285   0.71962   0.64396   0.00000  Uiso   1.00
C883   C     0.82241   0.85168   0.93619   0.00000  Uiso   1.00
C884   C     0.85304   0.84875   0.51808   0.00000  Uiso   1.00
C885   C     0.91300   0.88021   0.99797   0.00000  Uiso   1.00
C886   C     0.92549   0.89974   0.94908   0.00000  Uiso   1.00
C887   C     0.88071   0.88635   0.91891   0.00000  Uiso   1.00
C888   C     0.84236   0.83035   0.56766   0.00000  Uiso   1.00
C889   C     0.94651   0.87606   0.57753   0.00000  Uiso   1.00
Cu890  Cu    0.77377   0.82772   0.74436   0.00000  Uiso   1.00
Cu891  Cu    0.89290   0.83895   0.75564   0.00000  Uiso   1.00
H892   H     0.98171   0.88851   0.60068   0.00000  Uiso   1.00
H893   H     0.89203   0.90481   0.88238   0.00000  Uiso   1.00
H894   H     0.90005   0.67990   0.76139   0.00000  Uiso   1.00
H895   H     0.99847   0.72537   0.71716   0.00000  Uiso   1.00
H896   H     0.72783   0.75224   0.66443   0.00000  Uiso   1.00
H897   H     0.98546   0.74125   0.60784   0.00000  Uiso   1.00
H898   H     0.98256   0.67957   0.63552   0.00000  Uiso   1.00
H899   H     0.92199   0.71583   0.65976   0.00000  Uiso   1.00
H900   H     0.76531   0.98665   0.74089   0.00000  Uiso   1.00
H901   H     0.66674   0.86681   0.79459   0.00000  Uiso   1.00
H902   H     0.97018   0.92555   0.93401   0.00000  Uiso   1.00
H903   H     0.67192   0.91697   0.51233   0.00000  Uiso   1.00
H904   H     0.79880   0.80445   0.58412   0.00000  Uiso   1.00
H905   H     0.68414   0.79181   0.90012   0.00000  Uiso   1.00
H906   H     0.72581   0.80196   0.54732   0.00000  Uiso   1.00
H907   H     0.98542   0.77684   0.99184   0.00000  Uiso   1.00
N908   N     0.98241   0.84741   0.76416   0.00000  Uiso   1.00
N909   N     0.68426   0.81926   0.73584   0.00000  Uiso   1.00
O910   O     0.79464   0.90474   0.74633   0.00000  Uiso   1.00
O911   O     0.89524   0.91422   0.75586   0.00000  Uiso   1.00
O912   O     0.75848   0.82627   0.81840   0.00000  Uiso   1.00
O913   O     0.85908   0.83575   0.82793   0.00000  Uiso   1.00
O914   O     0.77142   0.75245   0.74414   0.00000  Uiso   1.00
O915   O     0.87203   0.76193   0.75367   0.00000  Uiso   1.00
O916   O     0.80758   0.83092   0.67207   0.00000  Uiso   1.00
O917   O     0.90819   0.84040   0.68160   0.00000  Uiso   1.00
O918   O     0.99736   0.79925   0.69303   0.00000  Uiso   1.00
loop_
_geom_bond_atom_site_label_1
_geom_bond_atom_site_label_2
_geom_bond_distance
_geom_bond_site_symmetry_2
_ccdc_geom_bond_type
C1     O44     1.290   .     A
C1     O43     1.292   .     A
C1     C3      1.428   .     S
C2     C4      1.475   .     S
C2     C16     1.423   .     A
C2     C10     1.402   .     A
C3     C158    1.330   .     S
C3     H180    1.086   .     S
C4     O46     1.298   .     A
C4     O45     1.306   .     A
C5     C6      1.429   .     S
C5     C309    1.330   1_545 S
C5     H339    1.088   1_545 S
C6     O48     1.293   .     A
C6     O47     1.289   .     A
C7     O49     1.296   .     A
C7     C9      1.463   .     S
C7     O50     1.303   .     A
C8     C22     1.394   .     A
C8     C477    1.405   1_554 S
C8     H87     1.084   .     S
C9     C21     1.398   .     A
C9     C22     1.398   .     A
C10    H38     1.083   .     S
C10    C11     1.387   .     A
C11    C472    1.391   .     S
C11    H142    1.083   1_455 S
C12    C16     1.419   .     A
C12    C472    1.417   .     S
C12    C476    1.425   .     S
C13    H39     1.076   .     S
C13    C470    1.391   1_554 S
C13    C471    1.417   1_554 S
C14    H29     1.107   .     S
C14    C117    1.522   1_455 S
C14    H130    1.113   1_455 S
C14    O153    1.406   1_455 S
C15    H31     1.111   .     S
C15    H32     1.109   .     S
C15    H30     1.110   .     S
C15    C65     1.522   .     S
C16    C20     1.413   .     A
C17    C21     1.402   .     A
C17    C471    1.425   1_554 S
C17    C477    1.420   1_554 S
C18    C19     1.392   .     A
C18    C476    1.420   .     S
C18    C467    1.405   .     S
C19    H35     1.084   .     S
C19    C20     1.388   .     A
C20    H26     1.080   .     S
C21    H37     1.077   .     S
C22    H25     1.083   .     S
Cu23   Cu24    2.695   .     S
Cu23   O45     1.941   .     S
Cu23   O47     1.951   .     S
Cu23   O43     1.954   .     S
Cu23   N42     2.025   .     S
Cu23   O49     1.922   .     S
Cu24   O46     1.922   .     S
Cu24   N41     2.025   .     S
Cu24   O50     1.941   .     S
Cu24   O44     1.951   .     S
Cu24   O48     1.954   .     S
H27    C309    1.086   1_545 S
H28    C65     1.113   .     S
H33    C158    1.088   .     S
H34    N143    1.029   1_455 S
H36    C110    1.084   1_455 S
H40    C62     1.083   .     S
N41    H85     1.029   .     S
N41    N93     1.285   .     S
N42    N143    1.285   1_455 S
N42    O153    1.347   1_455 S
O51    C65     1.406   .     S
O51    N93     1.347   .     S
C52    O95     1.290   .     A
C52    O94     1.292   .     A
C52    C54     1.428   .     S
C53    C55     1.475   .     S
C53    C67     1.423   .     A
C53    C61     1.402   .     A
C54    C209    1.330   .     S
C54    H231    1.086   .     S
C55    O97     1.298   .     A
C55    O96     1.306   .     A
C56    C57     1.429   .     S
C56    C360    1.330   1_545 S
C56    H390    1.088   1_545 S
C57    O99     1.293   .     A
C57    O98     1.289   .     A
C58    O100    1.296   .     A
C58    C60     1.463   .     S
C58    O101    1.303   .     A
C59    C73     1.394   .     A
C59    C528    1.405   1_554 S
C59    H138    1.084   .     S
C60    C72     1.398   .     A
C60    C73     1.398   .     A
C61    H89     1.083   .     S
C61    C62     1.387   .     A
C62    C523    1.391   .     S
C63    C67     1.419   .     A
C63    C523    1.417   .     S
C63    C527    1.425   .     S
C64    H90     1.076   .     S
C64    C521    1.391   1_554 S
C64    C522    1.417   1_554 S
C65    H80     1.107   .     S
C66    H82     1.111   .     S
C66    H83     1.109   .     S
C66    H81     1.110   .     S
C66    C116    1.522   .     S
C67    C71     1.413   .     A
C68    C72     1.402   .     A
C68    C522    1.425   1_554 S
C68    C528    1.420   1_554 S
C69    C70     1.392   .     A
C69    C527    1.420   .     S
C69    C518    1.405   .     S
C70    H86     1.084   .     S
C70    C71     1.388   .     A
C71    H77     1.080   .     S
C72    H88     1.077   .     S
C73    H76     1.083   .     S
Cu74   Cu75    2.695   .     S
Cu74   O96     1.941   .     S
Cu74   O98     1.951   .     S
Cu74   O94     1.954   .     S
Cu74   N93     2.025   .     S
Cu74   O100    1.922   .     S
Cu75   O97     1.922   .     S
Cu75   N92     2.025   .     S
Cu75   O101    1.941   .     S
Cu75   O95     1.951   .     S
Cu75   O99     1.954   .     S
H78    C360    1.086   1_545 S
H79    C116    1.113   .     S
H84    C209    1.088   .     S
H91    C113    1.083   .     S
N92    H136    1.029   .     S
N92    N144    1.285   .     S
O102   C116    1.406   .     S
O102   N144    1.347   .     S
C103   O146    1.290   .     A
C103   O145    1.292   .     A
C103   C105    1.428   .     S
C104   C106    1.475   .     S
C104   C118    1.423   .     A
C104   C112    1.402   .     A
C105   C260    1.330   .     S
C105   H282    1.086   .     S
C106   O148    1.298   .     A
C106   O147    1.306   .     A
C107   C108    1.429   .     S
C107   C411    1.330   1_545 S
C107   H441    1.088   1_545 S
C108   O150    1.293   .     A
C108   O149    1.289   .     A
C109   O151    1.296   .     A
C109   C111    1.463   .     S
C109   O152    1.303   .     A
C110   C124    1.394   .     A
C110   C579    1.405   1_554 S
C110   H36     1.084   1_655 S
C111   C123    1.398   .     A
C111   C124    1.398   .     A
C112   H140    1.083   .     S
C112   C113    1.387   .     A
C113   C574    1.391   .     S
C114   C118    1.419   .     A
C114   C574    1.417   .     S
C114   C578    1.425   .     S
C115   H141    1.076   .     S
C115   C572    1.391   1_554 S
C115   C573    1.417   1_554 S
C116   H131    1.107   .     S
C117   H133    1.111   .     S
C117   H134    1.109   .     S
C117   H132    1.110   .     S
C117   C14     1.522   1_655 S
C118   C122    1.413   .     A
C119   C123    1.402   .     A
C119   C573    1.425   1_554 S
C119   C579    1.420   1_554 S
C120   C121    1.392   .     A
C120   C578    1.420   .     S
C120   C569    1.405   .     S
C121   H137    1.084   .     S
C121   C122    1.388   .     A
C122   H128    1.080   .     S
C123   H139    1.077   .     S
C124   H127    1.083   .     S
Cu125  Cu126   2.695   .     S
Cu125  O147    1.941   .     S
Cu125  O149    1.951   .     S
Cu125  O145    1.954   .     S
Cu125  N144    2.025   .     S
Cu125  O151    1.922   .     S
Cu126  O148    1.922   .     S
Cu126  N143    2.025   .     S
Cu126  O152    1.941   .     S
Cu126  O146    1.951   .     S
Cu126  O150    1.954   .     S
H129   C411    1.086   1_545 S
H130   C14     1.113   1_655 S
H135   C260    1.088   .     S
H142   C11     1.083   1_655 S
N143   H34     1.029   1_655 S
N143   N42     1.285   1_655 S
O153   C14     1.406   1_655 S
O153   N42     1.347   1_655 S
C154   O197    1.290   .     A
C154   O196    1.292   .     A
C154   C156    1.428   .     S
C155   C157    1.475   .     S
C155   C169    1.423   .     A
C155   C163    1.402   .     A
C156   C311    1.330   .     S
C156   H333    1.086   .     S
C157   O199    1.298   .     A
C157   O198    1.306   .     A
C158   C159    1.429   .     S
C159   O201    1.293   .     A
C159   O200    1.289   .     A
C160   O202    1.296   .     A
C160   C162    1.463   .     S
C160   O203    1.303   .     A
C161   C175    1.394   .     A
C161   C630    1.405   1_554 S
C161   H240    1.084   .     S
C162   C174    1.398   .     A
C162   C175    1.398   .     A
C163   H191    1.083   .     S
C163   C164    1.387   .     A
C164   C625    1.391   .     S
C164   H295    1.083   1_455 S
C165   C169    1.419   .     A
C165   C625    1.417   .     S
C165   C629    1.425   .     S
C166   H192    1.076   .     S
C166   C623    1.391   1_554 S
C166   C624    1.417   1_554 S
C167   H182    1.107   .     S
C167   C270    1.522   1_455 S
C167   H283    1.113   1_455 S
C167   O306    1.406   1_455 S
C168   H184    1.111   .     S
C168   H185    1.109   .     S
C168   H183    1.110   .     S
C168   C218    1.522   .     S
C169   C173    1.413   .     A
C170   C174    1.402   .     A
C170   C624    1.425   1_554 S
C170   C630    1.420   1_554 S
C171   C172    1.392   .     A
C171   C629    1.420   .     S
C171   C620    1.405   .     S
C172   H188    1.084   .     S
C172   C173    1.388   .     A
C173   H179    1.080   .     S
C174   H190    1.077   .     S
C175   H178    1.083   .     S
Cu176  Cu177   2.695   .     S
Cu176  O198    1.941   .     S
Cu176  O200    1.951   .     S
Cu176  O196    1.954   .     S
Cu176  N195    2.025   .     S
Cu176  O202    1.922   .     S
Cu177  O199    1.922   .     S
Cu177  N194    2.025   .     S
Cu177  O203    1.941   .     S
Cu177  O197    1.951   .     S
Cu177  O201    1.954   .     S
H181   C218    1.113   .     S
H186   C311    1.088   .     S
H187   N296    1.029   1_455 S
H189   C263    1.084   1_455 S
H193   C215    1.083   .     S
N194   H238    1.029   .     S
N194   N246    1.285   .     S
N195   N296    1.285   1_455 S
N195   O306    1.347   1_455 S
O204   C218    1.406   .     S
O204   N246    1.347   .     S
C205   O248    1.290   .     A
C205   O247    1.292   .     A
C205   C207    1.428   .     S
C206   C208    1.475   .     S
C206   C220    1.423   .     A
C206   C214    1.402   .     A
C207   C362    1.330   .     S
C207   H384    1.086   .     S
C208   O250    1.298   .     A
C208   O249    1.306   .     A
C209   C210    1.429   .     S
C210   O252    1.293   .     A
C210   O251    1.289   .     A
C211   O253    1.296   .     A
C211   C213    1.463   .     S
C211   O254    1.303   .     A
C212   C226    1.394   .     A
C212   C681    1.405   1_554 S
C212   H291    1.084   .     S
C213   C225    1.398   .     A
C213   C226    1.398   .     A
C214   H242    1.083   .     S
C214   C215    1.387   .     A
C215   C676    1.391   .     S
C216   C220    1.419   .     A
C216   C676    1.417   .     S
C216   C680    1.425   .     S
C217   H243    1.076   .     S
C217   C674    1.391   1_554 S
C217   C675    1.417   1_554 S
C218   H233    1.107   .     S
C219   H235    1.111   .     S
C219   H236    1.109   .     S
C219   H234    1.110   .     S
C219   C269    1.522   .     S
C220   C224    1.413   .     A
C221   C225    1.402   .     A
C221   C675    1.425   1_554 S
C221   C681    1.420   1_554 S
C222   C223    1.392   .     A
C222   C680    1.420   .     S
C222   C671    1.405   .     S
C223   H239    1.084   .     S
C223   C224    1.388   .     A
C224   H230    1.080   .     S
C225   H241    1.077   .     S
C226   H229    1.083   .     S
Cu227  Cu228   2.695   .     S
Cu227  O249    1.941   .     S
Cu227  O251    1.951   .     S
Cu227  O247    1.954   .     S
Cu227  N246    2.025   .     S
Cu227  O253    1.922   .     S
Cu228  O250    1.922   .     S
Cu228  N245    2.025   .     S
Cu228  O254    1.941   .     S
Cu228  O248    1.951   .     S
Cu228  O252    1.954   .     S
H232   C269    1.113   .     S
H237   C362    1.088   .     S
H244   C266    1.083   .     S
N245   H289    1.029   .     S
N245   N297    1.285   .     S
O255   C269    1.406   .     S
O255   N297    1.347   .     S
C256   O299    1.290   .     A
C256   O298    1.292   .     A
C256   C258    1.428   .     S
C257   C259    1.475   .     S
C257   C271    1.423   .     A
C257   C265    1.402   .     A
C258   C413    1.330   .     S
C258   H435    1.086   .     S
C259   O301    1.298   .     A
C259   O300    1.306   .     A
C260   C261    1.429   .     S
C261   O303    1.293   .     A
C261   O302    1.289   .     A
C262   O304    1.296   .     A
C262   C264    1.463   .     S
C262   O305    1.303   .     A
C263   C277    1.394   .     A
C263   C732    1.405   1_554 S
C263   H189    1.084   1_655 S
C264   C276    1.398   .     A
C264   C277    1.398   .     A
C265   H293    1.083   .     S
C265   C266    1.387   .     A
C266   C727    1.391   .     S
C267   C271    1.419   .     A
C267   C727    1.417   .     S
C267   C731    1.425   .     S
C268   H294    1.076   .     S
C268   C725    1.391   1_554 S
C268   C726    1.417   1_554 S
C269   H284    1.107   .     S
C270   H286    1.111   .     S
C270   H287    1.109   .     S
C270   H285    1.110   .     S
C270   C167    1.522   1_655 S
C271   C275    1.413   .     A
C272   C276    1.402   .     A
C272   C726    1.425   1_554 S
C272   C732    1.420   1_554 S
C273   C274    1.392   .     A
C273   C731    1.420   .     S
C273   C722    1.405   .     S
C274   H290    1.084   .     S
C274   C275    1.388   .     A
C275   H281    1.080   .     S
C276   H292    1.077   .     S
C277   H280    1.083   .     S
Cu278  Cu279   2.695   .     S
Cu278  O300    1.941   .     S
Cu278  O302    1.951   .     S
Cu278  O298    1.954   .     S
Cu278  N297    2.025   .     S
Cu278  O304    1.922   .     S
Cu279  O301    1.922   .     S
Cu279  N296    2.025   .     S
Cu279  O305    1.941   .     S
Cu279  O299    1.951   .     S
Cu279  O303    1.954   .     S
H283   C167    1.113   1_655 S
H288   C413    1.088   .     S
H295   C164    1.083   1_655 S
N296   H187    1.029   1_655 S
N296   N195    1.285   1_655 S
O306   C167    1.406   1_655 S
O306   N195    1.347   1_655 S
C307   O350    1.290   .     A
C307   O349    1.292   .     A
C307   C309    1.428   .     S
C308   C310    1.475   .     S
C308   C322    1.423   .     A
C308   C316    1.402   .     A
C309   C5      1.330   1_565 S
C309   H27     1.086   1_565 S
C310   O352    1.298   .     A
C310   O351    1.306   .     A
C311   C312    1.429   .     S
C312   O354    1.293   .     A
C312   O353    1.289   .     A
C313   O355    1.296   .     A
C313   C315    1.463   .     S
C313   O356    1.303   .     A
C314   C328    1.394   .     A
C314   C783    1.405   1_554 S
C314   H393    1.084   .     S
C315   C327    1.398   .     A
C315   C328    1.398   .     A
C316   H344    1.083   .     S
C316   C317    1.387   .     A
C317   C778    1.391   .     S
C317   H448    1.083   1_455 S
C318   C322    1.419   .     A
C318   C778    1.417   .     S
C318   C782    1.425   .     S
C319   H345    1.076   .     S
C319   C776    1.391   1_554 S
C319   C777    1.417   1_554 S
C320   H335    1.107   .     S
C320   C423    1.522   1_455 S
C320   H436    1.113   1_455 S
C320   O459    1.406   1_455 S
C321   H337    1.111   .     S
C321   H338    1.109   .     S
C321   H336    1.110   .     S
C321   C371    1.522   .     S
C322   C326    1.413   .     A
C323   C327    1.402   .     A
C323   C777    1.425   1_554 S
C323   C783    1.420   1_554 S
C324   C325    1.392   .     A
C324   C782    1.420   .     S
C324   C773    1.405   .     S
C325   H341    1.084   .     S
C325   C326    1.388   .     A
C326   H332    1.080   .     S
C327   H343    1.077   .     S
C328   H331    1.083   .     S
Cu329  Cu330   2.695   .     S
Cu329  O351    1.941   .     S
Cu329  O353    1.951   .     S
Cu329  O349    1.954   .     S
Cu329  N348    2.025   .     S
Cu329  O355    1.922   .     S
Cu330  O352    1.922   .     S
Cu330  N347    2.025   .     S
Cu330  O356    1.941   .     S
Cu330  O350    1.951   .     S
Cu330  O354    1.954   .     S
H334   C371    1.113   .     S
H339   C5      1.088   1_565 S
H340   N449    1.029   1_455 S
H342   C416    1.084   1_455 S
H346   C368    1.083   .     S
N347   H391    1.029   .     S
N347   N399    1.285   .     S
N348   N449    1.285   1_455 S
N348   O459    1.347   1_455 S
O357   C371    1.406   .     S
O357   N399    1.347   .     S
C358   O401    1.290   .     A
C358   O400    1.292   .     A
C358   C360    1.428   .     S
C359   C361    1.475   .     S
C359   C373    1.423   .     A
C359   C367    1.402   .     A
C360   C56     1.330   1_565 S
C360   H78     1.086   1_565 S
C361   O403    1.298   .     A
C361   O402    1.306   .     A
C362   C363    1.429   .     S
C363   O405    1.293   .     A
C363   O404    1.289   .     A
C364   O406    1.296   .     A
C364   C366    1.463   .     S
C364   O407    1.303   .     A
C365   C379    1.394   .     A
C365   C834    1.405   1_554 S
C365   H444    1.084   .     S
C366   C378    1.398   .     A
C366   C379    1.398   .     A
C367   H395    1.083   .     S
C367   C368    1.387   .     A
C368   C829    1.391   .     S
C369   C373    1.419   .     A
C369   C829    1.417   .     S
C369   C833    1.425   .     S
C370   H396    1.076   .     S
C370   C827    1.391   1_554 S
C370   C828    1.417   1_554 S
C371   H386    1.107   .     S
C372   H388    1.111   .     S
C372   H389    1.109   .     S
C372   H387    1.110   .     S
C372   C422    1.522   .     S
C373   C377    1.413   .     A
C374   C378    1.402   .     A
C374   C828    1.425   1_554 S
C374   C834    1.420   1_554 S
C375   C376    1.392   .     A
C375   C833    1.420   .     S
C375   C824    1.405   .     S
C376   H392    1.084   .     S
C376   C377    1.388   .     A
C377   H383    1.080   .     S
C378   H394    1.077   .     S
C379   H382    1.083   .     S
Cu380  Cu381   2.695   .     S
Cu380  O402    1.941   .     S
Cu380  O404    1.951   .     S
Cu380  O400    1.954   .     S
Cu380  N399    2.025   .     S
Cu380  O406    1.922   .     S
Cu381  O403    1.922   .     S
Cu381  N398    2.025   .     S
Cu381  O407    1.941   .     S
Cu381  O401    1.951   .     S
Cu381  O405    1.954   .     S
H385   C422    1.113   .     S
H390   C56     1.088   1_565 S
H397   C419    1.083   .     S
N398   H442    1.029   .     S
N398   N450    1.285   .     S
O408   C422    1.406   .     S
O408   N450    1.347   .     S
C409   O452    1.290   .     A
C409   O451    1.292   .     A
C409   C411    1.428   .     S
C410   C412    1.475   .     S
C410   C424    1.423   .     A
C410   C418    1.402   .     A
C411   C107    1.330   1_565 S
C411   H129    1.086   1_565 S
C412   O454    1.298   .     A
C412   O453    1.306   .     A
C413   C414    1.429   .     S
C414   O456    1.293   .     A
C414   O455    1.289   .     A
C415   O457    1.296   .     A
C415   C417    1.463   .     S
C415   O458    1.303   .     A
C416   C430    1.394   .     A
C416   C885    1.405   1_554 S
C416   H342    1.084   1_655 S
C417   C429    1.398   .     A
C417   C430    1.398   .     A
C418   H446    1.083   .     S
C418   C419    1.387   .     A
C419   C880    1.391   .     S
C420   C424    1.419   .     A
C420   C880    1.417   .     S
C420   C884    1.425   .     S
C421   H447    1.076   .     S
C421   C878    1.391   1_554 S
C421   C879    1.417   1_554 S
C422   H437    1.107   .     S
C423   H439    1.111   .     S
C423   H440    1.109   .     S
C423   H438    1.110   .     S
C423   C320    1.522   1_655 S
C424   C428    1.413   .     A
C425   C429    1.402   .     A
C425   C879    1.425   1_554 S
C425   C885    1.420   1_554 S
C426   C427    1.392   .     A
C426   C884    1.420   .     S
C426   C875    1.405   .     S
C427   H443    1.084   .     S
C427   C428    1.388   .     A
C428   H434    1.080   .     S
C429   H445    1.077   .     S
C430   H433    1.083   .     S
Cu431  Cu432   2.695   .     S
Cu431  O453    1.941   .     S
Cu431  O455    1.951   .     S
Cu431  O451    1.954   .     S
Cu431  N450    2.025   .     S
Cu431  O457    1.922   .     S
Cu432  O454    1.922   .     S
Cu432  N449    2.025   .     S
Cu432  O458    1.941   .     S
Cu432  O452    1.951   .     S
Cu432  O456    1.954   .     S
H436   C320    1.113   1_655 S
H441   C107    1.088   1_565 S
H448   C317    1.083   1_655 S
N449   H340    1.029   1_655 S
N449   N348    1.285   1_655 S
O459   C320    1.406   1_655 S
O459   N348    1.347   1_655 S
C460   O503    1.290   .     A
C460   O502    1.292   .     A
C460   C462    1.428   .     S
C461   C463    1.475   .     S
C461   C475    1.423   .     A
C461   C469    1.402   .     A
C462   C617    1.330   .     S
C462   H639    1.086   .     S
C463   O505    1.298   .     A
C463   O504    1.306   .     A
C464   C465    1.429   .     S
C464   C768    1.330   1_545 S
C464   H798    1.088   1_545 S
C465   O507    1.293   .     A
C465   O506    1.289   .     A
C466   O508    1.296   .     A
C466   C468    1.463   .     S
C466   O509    1.303   .     A
C467   C481    1.394   .     A
C467   H546    1.084   .     S
C468   C480    1.398   .     A
C468   C481    1.398   .     A
C469   H497    1.083   .     S
C469   C470    1.387   .     A
C470   C13     1.391   1_556 S
C470   H601    1.083   1_455 S
C471   C475    1.419   .     A
C471   C13     1.417   1_556 S
C471   C17     1.425   1_556 S
C472   H498    1.076   .     S
C473   H488    1.107   .     S
C473   C576    1.522   1_455 S
C473   H589    1.113   1_455 S
C473   O612    1.406   1_455 S
C474   H490    1.111   .     S
C474   H491    1.109   .     S
C474   H489    1.110   .     S
C474   C524    1.522   .     S
C475   C479    1.413   .     A
C476   C480    1.402   .     A
C477   C478    1.392   .     A
C477   C17     1.420   1_556 S
C477   C8      1.405   1_556 S
C478   H494    1.084   .     S
C478   C479    1.388   .     A
C479   H485    1.080   .     S
C480   H496    1.077   .     S
C481   H484    1.083   .     S
Cu482  Cu483   2.695   .     S
Cu482  O504    1.941   .     S
Cu482  O506    1.951   .     S
Cu482  O502    1.954   .     S
Cu482  N501    2.025   .     S
Cu482  O508    1.922   .     S
Cu483  O505    1.922   .     S
Cu483  N500    2.025   .     S
Cu483  O509    1.941   .     S
Cu483  O503    1.951   .     S
Cu483  O507    1.954   .     S
H486   C768    1.086   1_545 S
H487   C524    1.113   .     S
H492   C617    1.088   .     S
H493   N602    1.029   1_455 S
H495   C569    1.084   1_455 S
H499   C521    1.083   .     S
N500   H544    1.029   .     S
N500   N552    1.285   .     S
N501   N602    1.285   1_455 S
N501   O612    1.347   1_455 S
O510   C524    1.406   .     S
O510   N552    1.347   .     S
C511   O554    1.290   .     A
C511   O553    1.292   .     A
C511   C513    1.428   .     S
C512   C514    1.475   .     S
C512   C526    1.423   .     A
C512   C520    1.402   .     A
C513   C668    1.330   .     S
C513   H690    1.086   .     S
C514   O556    1.298   .     A
C514   O555    1.306   .     A
C515   C516    1.429   .     S
C515   C819    1.330   1_545 S
C515   H849    1.088   1_545 S
C516   O558    1.293   .     A
C516   O557    1.289   .     A
C517   O559    1.296   .     A
C517   C519    1.463   .     S
C517   O560    1.303   .     A
C518   C532    1.394   .     A
C518   H597    1.084   .     S
C519   C531    1.398   .     A
C519   C532    1.398   .     A
C520   H548    1.083   .     S
C520   C521    1.387   .     A
C521   C64     1.391   1_556 S
C522   C526    1.419   .     A
C522   C64     1.417   1_556 S
C522   C68     1.425   1_556 S
C523   H549    1.076   .     S
C524   H539    1.107   .     S
C525   H541    1.111   .     S
C525   H542    1.109   .     S
C525   H540    1.110   .     S
C525   C575    1.522   .     S
C526   C530    1.413   .     A
C527   C531    1.402   .     A
C528   C529    1.392   .     A
C528   C68     1.420   1_556 S
C528   C59     1.405   1_556 S
C529   H545    1.084   .     S
C529   C530    1.388   .     A
C530   H536    1.080   .     S
C531   H547    1.077   .     S
C532   H535    1.083   .     S
Cu533  Cu534   2.695   .     S
Cu533  O555    1.941   .     S
Cu533  O557    1.951   .     S
Cu533  O553    1.954   .     S
Cu533  N552    2.025   .     S
Cu533  O559    1.922   .     S
Cu534  O556    1.922   .     S
Cu534  N551    2.025   .     S
Cu534  O560    1.941   .     S
Cu534  O554    1.951   .     S
Cu534  O558    1.954   .     S
H537   C819    1.086   1_545 S
H538   C575    1.113   .     S
H543   C668    1.088   .     S
H550   C572    1.083   .     S
N551   H595    1.029   .     S
N551   N603    1.285   .     S
O561   C575    1.406   .     S
O561   N603    1.347   .     S
C562   O605    1.290   .     A
C562   O604    1.292   .     A
C562   C564    1.428   .     S
C563   C565    1.475   .     S
C563   C577    1.423   .     A
C563   C571    1.402   .     A
C564   C719    1.330   .     S
C564   H741    1.086   .     S
C565   O607    1.298   .     A
C565   O606    1.306   .     A
C566   C567    1.429   .     S
C566   C870    1.330   1_545 S
C566   H900    1.088   1_545 S
C567   O609    1.293   .     A
C567   O608    1.289   .     A
C568   O610    1.296   .     A
C568   C570    1.463   .     S
C568   O611    1.303   .     A
C569   C583    1.394   .     A
C569   H495    1.084   1_655 S
C570   C582    1.398   .     A
C570   C583    1.398   .     A
C571   H599    1.083   .     S
C571   C572    1.387   .     A
C572   C115    1.391   1_556 S
C573   C577    1.419   .     A
C573   C115    1.417   1_556 S
C573   C119    1.425   1_556 S
C574   H600    1.076   .     S
C575   H590    1.107   .     S
C576   H592    1.111   .     S
C576   H593    1.109   .     S
C576   H591    1.110   .     S
C576   C473    1.522   1_655 S
C577   C581    1.413   .     A
C578   C582    1.402   .     A
C579   C580    1.392   .     A
C579   C119    1.420   1_556 S
C579   C110    1.405   1_556 S
C580   H596    1.084   .     S
C580   C581    1.388   .     A
C581   H587    1.080   .     S
C582   H598    1.077   .     S
C583   H586    1.083   .     S
Cu584  Cu585   2.695   .     S
Cu584  O606    1.941   .     S
Cu584  O608    1.951   .     S
Cu584  O604    1.954   .     S
Cu584  N603    2.025   .     S
Cu584  O610    1.922   .     S
Cu585  O607    1.922   .     S
Cu585  N602    2.025   .     S
Cu585  O611    1.941   .     S
Cu585  O605    1.951   .     S
Cu585  O609    1.954   .     S
H588   C870    1.086   1_545 S
H589   C473    1.113   1_655 S
H594   C719    1.088   .     S
H601   C470    1.083   1_655 S
N602   H493    1.029   1_655 S
N602   N501    1.285   1_655 S
O612   C473    1.406   1_655 S
O612   N501    1.347   1_655 S
C613   O656    1.290   .     A
C613   O655    1.292   .     A
C613   C615    1.428   .     S
C614   C616    1.475   .     S
C614   C628    1.423   .     A
C614   C622    1.402   .     A
C615   C770    1.330   .     S
C615   H792    1.086   .     S
C616   O658    1.298   .     A
C616   O657    1.306   .     A
C617   C618    1.429   .     S
C618   O660    1.293   .     A
C618   O659    1.289   .     A
C619   O661    1.296   .     A
C619   C621    1.463   .     S
C619   O662    1.303   .     A
C620   C634    1.394   .     A
C620   H699    1.084   .     S
C621   C633    1.398   .     A
C621   C634    1.398   .     A
C622   H650    1.083   .     S
C622   C623    1.387   .     A
C623   C166    1.391   1_556 S
C623   H754    1.083   1_455 S
C624   C628    1.419   .     A
C624   C166    1.417   1_556 S
C624   C170    1.425   1_556 S
C625   H651    1.076   .     S
C626   H641    1.107   .     S
C626   C729    1.522   1_455 S
C626   H742    1.113   1_455 S
C626   O765    1.406   1_455 S
C627   H643    1.111   .     S
C627   H644    1.109   .     S
C627   H642    1.110   .     S
C627   C677    1.522   .     S
C628   C632    1.413   .     A
C629   C633    1.402   .     A
C630   C631    1.392   .     A
C630   C170    1.420   1_556 S
C630   C161    1.405   1_556 S
C631   H647    1.084   .     S
C631   C632    1.388   .     A
C632   H638    1.080   .     S
C633   H649    1.077   .     S
C634   H637    1.083   .     S
Cu635  Cu636   2.695   .     S
Cu635  O657    1.941   .     S
Cu635  O659    1.951   .     S
Cu635  O655    1.954   .     S
Cu635  N654    2.025   .     S
Cu635  O661    1.922   .     S
Cu636  O658    1.922   .     S
Cu636  N653    2.025   .     S
Cu636  O662    1.941   .     S
Cu636  O656    1.951   .     S
Cu636  O660    1.954   .     S
H640   C677    1.113   .     S
H645   C770    1.088   .     S
H646   N755    1.029   1_455 S
H648   C722    1.084   1_455 S
H652   C674    1.083   .     S
N653   H697    1.029   .     S
N653   N705    1.285   .     S
N654   N755    1.285   1_455 S
N654   O765    1.347   1_455 S
O663   C677    1.406   .     S
O663   N705    1.347   .     S
C664   O707    1.290   .     A
C664   O706    1.292   .     A
C664   C666    1.428   .     S
C665   C667    1.475   .     S
C665   C679    1.423   .     A
C665   C673    1.402   .     A
C666   C821    1.330   .     S
C666   H843    1.086   .     S
C667   O709    1.298   .     A
C667   O708    1.306   .     A
C668   C669    1.429   .     S
C669   O711    1.293   .     A
C669   O710    1.289   .     A
C670   O712    1.296   .     A
C670   C672    1.463   .     S
C670   O713    1.303   .     A
C671   C685    1.394   .     A
C671   H750    1.084   .     S
C672   C684    1.398   .     A
C672   C685    1.398   .     A
C673   H701    1.083   .     S
C673   C674    1.387   .     A
C674   C217    1.391   1_556 S
C675   C679    1.419   .     A
C675   C217    1.417   1_556 S
C675   C221    1.425   1_556 S
C676   H702    1.076   .     S
C677   H692    1.107   .     S
C678   H694    1.111   .     S
C678   H695    1.109   .     S
C678   H693    1.110   .     S
C678   C728    1.522   .     S
C679   C683    1.413   .     A
C680   C684    1.402   .     A
C681   C682    1.392   .     A
C681   C221    1.420   1_556 S
C681   C212    1.405   1_556 S
C682   H698    1.084   .     S
C682   C683    1.388   .     A
C683   H689    1.080   .     S
C684   H700    1.077   .     S
C685   H688    1.083   .     S
Cu686  Cu687   2.695   .     S
Cu686  O708    1.941   .     S
Cu686  O710    1.951   .     S
Cu686  O706    1.954   .     S
Cu686  N705    2.025   .     S
Cu686  O712    1.922   .     S
Cu687  O709    1.922   .     S
Cu687  N704    2.025   .     S
Cu687  O713    1.941   .     S
Cu687  O707    1.951   .     S
Cu687  O711    1.954   .     S
H691   C728    1.113   .     S
H696   C821    1.088   .     S
H703   C725    1.083   .     S
N704   H748    1.029   .     S
N704   N756    1.285   .     S
O714   C728    1.406   .     S
O714   N756    1.347   .     S
C715   O758    1.290   .     A
C715   O757    1.292   .     A
C715   C717    1.428   .     S
C716   C718    1.475   .     S
C716   C730    1.423   .     A
C716   C724    1.402   .     A
C717   C872    1.330   .     S
C717   H894    1.086   .     S
C718   O760    1.298   .     A
C718   O759    1.306   .     A
C719   C720    1.429   .     S
C720   O762    1.293   .     A
C720   O761    1.289   .     A
C721   O763    1.296   .     A
C721   C723    1.463   .     S
C721   O764    1.303   .     A
C722   C736    1.394   .     A
C722   H648    1.084   1_655 S
C723   C735    1.398   .     A
C723   C736    1.398   .     A
C724   H752    1.083   .     S
C724   C725    1.387   .     A
C725   C268    1.391   1_556 S
C726   C730    1.419   .     A
C726   C268    1.417   1_556 S
C726   C272    1.425   1_556 S
C727   H753    1.076   .     S
C728   H743    1.107   .     S
C729   H745    1.111   .     S
C729   H746    1.109   .     S
C729   H744    1.110   .     S
C729   C626    1.522   1_655 S
C730   C734    1.413   .     A
C731   C735    1.402   .     A
C732   C733    1.392   .     A
C732   C272    1.420   1_556 S
C732   C263    1.405   1_556 S
C733   H749    1.084   .     S
C733   C734    1.388   .     A
C734   H740    1.080   .     S
C735   H751    1.077   .     S
C736   H739    1.083   .     S
Cu737  Cu738   2.695   .     S
Cu737  O759    1.941   .     S
Cu737  O761    1.951   .     S
Cu737  O757    1.954   .     S
Cu737  N756    2.025   .     S
Cu737  O763    1.922   .     S
Cu738  O760    1.922   .     S
Cu738  N755    2.025   .     S
Cu738  O764    1.941   .     S
Cu738  O758    1.951   .     S
Cu738  O762    1.954   .     S
H742   C626    1.113   1_655 S
H747   C872    1.088   .     S
H754   C623    1.083   1_655 S
N755   H646    1.029   1_655 S
N755   N654    1.285   1_655 S
O765   C626    1.406   1_655 S
O765   N654    1.347   1_655 S
C766   O809    1.290   .     A
C766   O808    1.292   .     A
C766   C768    1.428   .     S
C767   C769    1.475   .     S
C767   C781    1.423   .     A
C767   C775    1.402   .     A
C768   C464    1.330   1_565 S
C768   H486    1.086   1_565 S
C769   O811    1.298   .     A
C769   O810    1.306   .     A
C770   C771    1.429   .     S
C771   O813    1.293   .     A
C771   O812    1.289   .     A
C772   O814    1.296   .     A
C772   C774    1.463   .     S
C772   O815    1.303   .     A
C773   C787    1.394   .     A
C773   H852    1.084   .     S
C774   C786    1.398   .     A
C774   C787    1.398   .     A
C775   H803    1.083   .     S
C775   C776    1.387   .     A
C776   C319    1.391   1_556 S
C776   H907    1.083   1_455 S
C777   C781    1.419   .     A
C777   C319    1.417   1_556 S
C777   C323    1.425   1_556 S
C778   H804    1.076   .     S
C779   H794    1.107   .     S
C779   C882    1.522   1_455 S
C779   H895    1.113   1_455 S
C779   O918    1.406   1_455 S
C780   H796    1.111   .     S
C780   H797    1.109   .     S
C780   H795    1.110   .     S
C780   C830    1.522   .     S
C781   C785    1.413   .     A
C782   C786    1.402   .     A
C783   C784    1.392   .     A
C783   C323    1.420   1_556 S
C783   C314    1.405   1_556 S
C784   H800    1.084   .     S
C784   C785    1.388   .     A
C785   H791    1.080   .     S
C786   H802    1.077   .     S
C787   H790    1.083   .     S
Cu788  Cu789   2.695   .     S
Cu788  O810    1.941   .     S
Cu788  O812    1.951   .     S
Cu788  O808    1.954   .     S
Cu788  N807    2.025   .     S
Cu788  O814    1.922   .     S
Cu789  O811    1.922   .     S
Cu789  N806    2.025   .     S
Cu789  O815    1.941   .     S
Cu789  O809    1.951   .     S
Cu789  O813    1.954   .     S
H793   C830    1.113   .     S
H798   C464    1.088   1_565 S
H799   N908    1.029   1_455 S
H801   C875    1.084   1_455 S
H805   C827    1.083   .     S
N806   H850    1.029   .     S
N806   N858    1.285   .     S
N807   N908    1.285   1_455 S
N807   O918    1.347   1_455 S
O816   C830    1.406   .     S
O816   N858    1.347   .     S
C817   O860    1.290   .     A
C817   O859    1.292   .     A
C817   C819    1.428   .     S
C818   C820    1.475   .     S
C818   C832    1.423   .     A
C818   C826    1.402   .     A
C819   C515    1.330   1_565 S
C819   H537    1.086   1_565 S
C820   O862    1.298   .     A
C820   O861    1.306   .     A
C821   C822    1.429   .     S
C822   O864    1.293   .     A
C822   O863    1.289   .     A
C823   O865    1.296   .     A
C823   C825    1.463   .     S
C823   O866    1.303   .     A
C824   C838    1.394   .     A
C824   H903    1.084   .     S
C825   C837    1.398   .     A
C825   C838    1.398   .     A
C826   H854    1.083   .     S
C826   C827    1.387   .     A
C827   C370    1.391   1_556 S
C828   C832    1.419   .     A
C828   C370    1.417   1_556 S
C828   C374    1.425   1_556 S
C829   H855    1.076   .     S
C830   H845    1.107   .     S
C831   H847    1.111   .     S
C831   H848    1.109   .     S
C831   H846    1.110   .     S
C831   C881    1.522   .     S
C832   C836    1.413   .     A
C833   C837    1.402   .     A
C834   C835    1.392   .     A
C834   C374    1.420   1_556 S
C834   C365    1.405   1_556 S
C835   H851    1.084   .     S
C835   C836    1.388   .     A
C836   H842    1.080   .     S
C837   H853    1.077   .     S
C838   H841    1.083   .     S
Cu839  Cu840   2.695   .     S
Cu839  O861    1.941   .     S
Cu839  O863    1.951   .     S
Cu839  O859    1.954   .     S
Cu839  N858    2.025   .     S
Cu839  O865    1.922   .     S
Cu840  O862    1.922   .     S
Cu840  N857    2.025   .     S
Cu840  O866    1.941   .     S
Cu840  O860    1.951   .     S
Cu840  O864    1.954   .     S
H844   C881    1.113   .     S
H849   C515    1.088   1_565 S
H856   C878    1.083   .     S
N857   H901    1.029   .     S
N857   N909    1.285   .     S
O867   C881    1.406   .     S
O867   N909    1.347   .     S
C868   O911    1.290   .     A
C868   O910    1.292   .     A
C868   C870    1.428   .     S
C869   C871    1.475   .     S
C869   C883    1.423   .     A
C869   C877    1.402   .     A
C870   C566    1.330   1_565 S
C870   H588    1.086   1_565 S
C871   O913    1.298   .     A
C871   O912    1.306   .     A
C872   C873    1.429   .     S
C873   O915    1.293   .     A
C873   O914    1.289   .     A
C874   O916    1.296   .     A
C874   C876    1.463   .     S
C874   O917    1.303   .     A
C875   C889    1.394   .     A
C875   H801    1.084   1_655 S
C876   C888    1.398   .     A
C876   C889    1.398   .     A
C877   H905    1.083   .     S
C877   C878    1.387   .     A
C878   C421    1.391   1_556 S
C879   C883    1.419   .     A
C879   C421    1.417   1_556 S
C879   C425    1.425   1_556 S
C880   H906    1.076   .     S
C881   H896    1.107   .     S
C882   H898    1.111   .     S
C882   H899    1.109   .     S
C882   H897    1.110   .     S
C882   C779    1.522   1_655 S
C883   C887    1.413   .     A
C884   C888    1.402   .     A
C885   C886    1.392   .     A
C885   C425    1.420   1_556 S
C885   C416    1.405   1_556 S
C886   H902    1.084   .     S
C886   C887    1.388   .     A
C887   H893    1.080   .     S
C888   H904    1.077   .     S
C889   H892    1.083   .     S
Cu890  Cu891   2.695   .     S
Cu890  O912    1.941   .     S
Cu890  O914    1.951   .     S
Cu890  O910    1.954   .     S
Cu890  N909    2.025   .     S
Cu890  O916    1.922   .     S
Cu891  O913    1.922   .     S
Cu891  N908    2.025   .     S
Cu891  O917    1.941   .     S
Cu891  O911    1.951   .     S
Cu891  O915    1.954   .     S
H895   C779    1.113   1_655 S
H900   C566    1.088   1_565 S
H907   C776    1.083   1_655 S
N908   H799    1.029   1_655 S
N908   N807    1.285   1_655 S
O918   C779    1.406   1_655 S
O918   N807    1.347   1_655 S
