data_str_m2_o1_o16_pcu_sym.78
_audit_creation_date              2020-01-03
_audit_creation_method            'Materials Studio'
_symmetry_space_group_name_H-M    'P1'
_symmetry_Int_Tables_number       1
_symmetry_cell_setting            triclinic
loop_
_symmetry_equiv_pos_as_xyz
  x,y,z
_cell_length_a                    28.5374
_cell_length_b                    32.6635
_cell_length_c                    26.8508
_cell_angle_alpha                 89.6117
_cell_angle_beta                  73.8768
_cell_angle_gamma                 89.9970
loop_
_atom_site_label
_atom_site_type_symbol
_atom_site_fract_x
_atom_site_fract_y
_atom_site_fract_z
_atom_site_U_iso_or_equiv
_atom_site_adp_type
_atom_site_occupancy
C1     C     0.16756   0.24590   0.24636   0.00000  Uiso   1.00
C2     C     0.12749   0.14906   0.40512   0.00000  Uiso   1.00
C3     C     0.21015   0.31219   0.24488   0.00000  Uiso   1.00
C4     C     0.14123   0.16132   0.34946   0.00000  Uiso   1.00
C5     C     0.20956   0.02112   0.24643   0.00000  Uiso   1.00
C6     C     0.16545   0.04240   0.25255   0.00000  Uiso   1.00
C7     C     0.12211   0.02010   0.25550   0.00000  Uiso   1.00
C8     C     0.12627   0.31255   0.23997   0.00000  Uiso   1.00
C9     C     0.16828   0.29061   0.24239   0.00000  Uiso   1.00
C10    C     0.29927   0.18856   0.28598   0.00000  Uiso   1.00
C11    C     0.01537   0.18794   0.28645   0.00000  Uiso   1.00
C12    C     0.14773   0.14627   0.48763   0.00000  Uiso   1.00
C13    C     0.03420   0.14540   0.21344   0.00000  Uiso   1.00
C14    C     0.31791   0.14522   0.21368   0.00000  Uiso   1.00
C15    C     0.16605   0.08726   0.25181   0.00000  Uiso   1.00
C16    C     0.19224   0.16856   0.15007   0.00000  Uiso   1.00
C17    C     0.26743   0.17247   0.01069   0.00000  Uiso   1.00
C18    C     0.20599   0.16984   0.09321   0.00000  Uiso   1.00
C19    C     0.07854   0.14042   0.43152   0.00000  Uiso   1.00
C20    C     0.06585   0.12926   0.48380   0.00000  Uiso   1.00
C21    C     0.09954   0.13318   0.01236   0.00000  Uiso   1.00
C22    C     0.16296   0.14524   0.43299   0.00000  Uiso   1.00
C23    C     0.18271   0.15698   0.01412   0.00000  Uiso   1.00
C24    C     0.23255   0.16074   0.48562   0.00000  Uiso   1.00
C25    C     0.24719   0.14948   0.43352   0.00000  Uiso   1.00
C26    C     0.21258   0.13674   0.40923   0.00000  Uiso   1.00
C27    C     0.16979   0.16614   0.06718   0.00000  Uiso   1.00
C28    C     0.25475   0.17456   0.06451   0.00000  Uiso   1.00
Cu29   Cu    0.11978   0.16666   0.25000   0.00000  Uiso   1.00
Cu30   Cu    0.21355   0.16667   0.25000   0.00000  Uiso   1.00
F31    F     0.25206   0.04077   0.24414   0.00000  Uiso   1.00
F32    F     0.26694   0.21120   0.32168   0.00000  Uiso   1.00
F33    F     0.06669   0.12345   0.17707   0.00000  Uiso   1.00
F34    F     0.31365   0.18176   0.48315   0.00000  Uiso   1.00
F35    F     0.12289   0.17531   0.09260   0.00000  Uiso   1.00
F36    F     0.04354   0.14010   0.40623   0.00000  Uiso   1.00
F37    F     0.08644   0.11870   0.06178   0.00000  Uiso   1.00
F38    F     0.02068   0.11429   0.00707   0.00000  Uiso   1.00
F39    F     0.25251   0.29276   0.24387   0.00000  Uiso   1.00
H40    H     0.28285   0.18055   0.08359   0.00000  Uiso   1.00
H41    H     0.02654   0.20507   0.31556   0.00000  Uiso   1.00
H42    H     0.30667   0.12777   0.18488   0.00000  Uiso   1.00
H43    H     0.28550   0.14532   0.41392   0.00000  Uiso   1.00
H44    H     0.03210   0.08089   0.35017   0.00000  Uiso   1.00
H45    H     0.08626   0.24538   0.15123   0.00000  Uiso   1.00
H46    H     0.18278   0.04177   0.35946   0.00000  Uiso   1.00
N47    N     0.04931   0.16666   0.24999   0.00000  Uiso   1.00
N48    N     0.28402   0.16669   0.25000   0.00000  Uiso   1.00
O49    O     0.12708   0.22678   0.25001   0.00000  Uiso   1.00
O50    O     0.03077   0.00381   0.31421   0.00000  Uiso   1.00
O51    O     0.06626   0.07219   0.33463   0.00000  Uiso   1.00
O52    O     0.04251   0.27243   0.24550   0.00000  Uiso   1.00
O53    O     0.06546   0.32732   0.18088   0.00000  Uiso   1.00
O54    O     0.11285   0.25917   0.16183   0.00000  Uiso   1.00
O55    O     0.26535   0.10173   0.32092   0.00000  Uiso   1.00
O56    O     0.24927   0.06158   0.40055   0.00000  Uiso   1.00
O57    O     0.17783   0.07178   0.35947   0.00000  Uiso   1.00
O58    O     0.20627   0.22679   0.25001   0.00000  Uiso   1.00
O59    O     0.10775   0.16665   0.32549   0.00000  Uiso   1.00
O60    O     0.18694   0.16666   0.32549   0.00000  Uiso   1.00
O61    O     0.12706   0.10654   0.25000   0.00000  Uiso   1.00
O62    O     0.20625   0.10655   0.25000   0.00000  Uiso   1.00
O63    O     0.14640   0.16667   0.17451   0.00000  Uiso   1.00
O64    O     0.22559   0.16668   0.17451   0.00000  Uiso   1.00
O65    O     0.04042   0.05924   0.25058   0.00000  Uiso   1.00
S66    S     0.06293   0.03873   0.28849   0.00000  Uiso   1.00
S67    S     0.08457   0.29301   0.20724   0.00000  Uiso   1.00
S68    S     0.22786   0.09222   0.37100   0.00000  Uiso   1.00
C69    C     0.50089   0.24590   0.24636   0.00000  Uiso   1.00
C70    C     0.46082   0.14906   0.40512   0.00000  Uiso   1.00
C71    C     0.54348   0.31219   0.24488   0.00000  Uiso   1.00
C72    C     0.47457   0.16132   0.34946   0.00000  Uiso   1.00
C73    C     0.54289   0.02112   0.24643   0.00000  Uiso   1.00
C74    C     0.49878   0.04240   0.25255   0.00000  Uiso   1.00
C75    C     0.45544   0.02010   0.25550   0.00000  Uiso   1.00
C76    C     0.45960   0.31255   0.23997   0.00000  Uiso   1.00
C77    C     0.50162   0.29061   0.24239   0.00000  Uiso   1.00
C78    C     0.63260   0.18856   0.28598   0.00000  Uiso   1.00
C79    C     0.34870   0.18794   0.28645   0.00000  Uiso   1.00
C80    C     0.48107   0.14627   0.48763   0.00000  Uiso   1.00
C81    C     0.36754   0.14540   0.21344   0.00000  Uiso   1.00
C82    C     0.65124   0.14522   0.21368   0.00000  Uiso   1.00
C83    C     0.49938   0.08726   0.25181   0.00000  Uiso   1.00
C84    C     0.52557   0.16856   0.15007   0.00000  Uiso   1.00
C85    C     0.60076   0.17247   0.01069   0.00000  Uiso   1.00
C86    C     0.53933   0.16984   0.09321   0.00000  Uiso   1.00
C87    C     0.41187   0.14042   0.43152   0.00000  Uiso   1.00
C88    C     0.39918   0.12926   0.48380   0.00000  Uiso   1.00
C89    C     0.43288   0.13318   0.01236   0.00000  Uiso   1.00
C90    C     0.49630   0.14524   0.43299   0.00000  Uiso   1.00
C91    C     0.51605   0.15698   0.01412   0.00000  Uiso   1.00
C92    C     0.56589   0.16074   0.48562   0.00000  Uiso   1.00
C93    C     0.58052   0.14948   0.43352   0.00000  Uiso   1.00
C94    C     0.54592   0.13674   0.40923   0.00000  Uiso   1.00
C95    C     0.50313   0.16614   0.06718   0.00000  Uiso   1.00
C96    C     0.58809   0.17456   0.06451   0.00000  Uiso   1.00
Cu97   Cu    0.45311   0.16666   0.25000   0.00000  Uiso   1.00
Cu98   Cu    0.54689   0.16667   0.25000   0.00000  Uiso   1.00
F99    F     0.58540   0.04077   0.24414   0.00000  Uiso   1.00
F100   F     0.60027   0.21120   0.32168   0.00000  Uiso   1.00
F101   F     0.40003   0.12345   0.17707   0.00000  Uiso   1.00
F102   F     0.64699   0.18176   0.48315   0.00000  Uiso   1.00
F103   F     0.45623   0.17531   0.09260   0.00000  Uiso   1.00
F104   F     0.37687   0.14010   0.40623   0.00000  Uiso   1.00
F105   F     0.41977   0.11870   0.06178   0.00000  Uiso   1.00
F106   F     0.35401   0.11429   0.00707   0.00000  Uiso   1.00
F107   F     0.58584   0.29276   0.24387   0.00000  Uiso   1.00
H108   H     0.61619   0.18055   0.08359   0.00000  Uiso   1.00
H109   H     0.35987   0.20507   0.31556   0.00000  Uiso   1.00
H110   H     0.64000   0.12777   0.18488   0.00000  Uiso   1.00
H111   H     0.61883   0.14532   0.41392   0.00000  Uiso   1.00
H112   H     0.36543   0.08089   0.35017   0.00000  Uiso   1.00
H113   H     0.41959   0.24538   0.15123   0.00000  Uiso   1.00
H114   H     0.51611   0.04177   0.35946   0.00000  Uiso   1.00
N115   N     0.38265   0.16666   0.24999   0.00000  Uiso   1.00
N116   N     0.61735   0.16669   0.25000   0.00000  Uiso   1.00
O117   O     0.46042   0.22678   0.25001   0.00000  Uiso   1.00
O118   O     0.36410   0.00381   0.31421   0.00000  Uiso   1.00
O119   O     0.39960   0.07219   0.33463   0.00000  Uiso   1.00
O120   O     0.37584   0.27243   0.24550   0.00000  Uiso   1.00
O121   O     0.39880   0.32732   0.18088   0.00000  Uiso   1.00
O122   O     0.44618   0.25917   0.16183   0.00000  Uiso   1.00
O123   O     0.59868   0.10173   0.32092   0.00000  Uiso   1.00
O124   O     0.58260   0.06158   0.40055   0.00000  Uiso   1.00
O125   O     0.51117   0.07178   0.35947   0.00000  Uiso   1.00
O126   O     0.53961   0.22679   0.25001   0.00000  Uiso   1.00
O127   O     0.44108   0.16665   0.32549   0.00000  Uiso   1.00
O128   O     0.52027   0.16666   0.32549   0.00000  Uiso   1.00
O129   O     0.46039   0.10654   0.25000   0.00000  Uiso   1.00
O130   O     0.53958   0.10655   0.25000   0.00000  Uiso   1.00
O131   O     0.47973   0.16667   0.17451   0.00000  Uiso   1.00
O132   O     0.55892   0.16668   0.17451   0.00000  Uiso   1.00
O133   O     0.37375   0.05924   0.25058   0.00000  Uiso   1.00
S134   S     0.39627   0.03873   0.28849   0.00000  Uiso   1.00
S135   S     0.41791   0.29301   0.20724   0.00000  Uiso   1.00
S136   S     0.56119   0.09222   0.37100   0.00000  Uiso   1.00
C137   C     0.83422   0.24590   0.24636   0.00000  Uiso   1.00
C138   C     0.79416   0.14906   0.40512   0.00000  Uiso   1.00
C139   C     0.87682   0.31219   0.24488   0.00000  Uiso   1.00
C140   C     0.80790   0.16132   0.34946   0.00000  Uiso   1.00
C141   C     0.87623   0.02112   0.24643   0.00000  Uiso   1.00
C142   C     0.83212   0.04240   0.25255   0.00000  Uiso   1.00
C143   C     0.78877   0.02010   0.25550   0.00000  Uiso   1.00
C144   C     0.79293   0.31255   0.23997   0.00000  Uiso   1.00
C145   C     0.83495   0.29061   0.24239   0.00000  Uiso   1.00
C146   C     0.96593   0.18856   0.28598   0.00000  Uiso   1.00
C147   C     0.68204   0.18794   0.28645   0.00000  Uiso   1.00
C148   C     0.81440   0.14627   0.48763   0.00000  Uiso   1.00
C149   C     0.70087   0.14540   0.21344   0.00000  Uiso   1.00
C150   C     0.98458   0.14522   0.21368   0.00000  Uiso   1.00
C151   C     0.83272   0.08726   0.25181   0.00000  Uiso   1.00
C152   C     0.85890   0.16856   0.15007   0.00000  Uiso   1.00
C153   C     0.93410   0.17247   0.01069   0.00000  Uiso   1.00
C154   C     0.87266   0.16984   0.09321   0.00000  Uiso   1.00
C155   C     0.74520   0.14042   0.43152   0.00000  Uiso   1.00
C156   C     0.73252   0.12926   0.48380   0.00000  Uiso   1.00
C157   C     0.76621   0.13318   0.01236   0.00000  Uiso   1.00
C158   C     0.82963   0.14524   0.43299   0.00000  Uiso   1.00
C159   C     0.84938   0.15698   0.01412   0.00000  Uiso   1.00
C160   C     0.89922   0.16074   0.48562   0.00000  Uiso   1.00
C161   C     0.91386   0.14948   0.43352   0.00000  Uiso   1.00
C162   C     0.87925   0.13674   0.40923   0.00000  Uiso   1.00
C163   C     0.83646   0.16614   0.06718   0.00000  Uiso   1.00
C164   C     0.92142   0.17456   0.06451   0.00000  Uiso   1.00
Cu165  Cu    0.78645   0.16666   0.25000   0.00000  Uiso   1.00
Cu166  Cu    0.88022   0.16667   0.25000   0.00000  Uiso   1.00
F167   F     0.91873   0.04077   0.24414   0.00000  Uiso   1.00
F168   F     0.93361   0.21120   0.32168   0.00000  Uiso   1.00
F169   F     0.73336   0.12345   0.17707   0.00000  Uiso   1.00
F170   F     0.98032   0.18176   0.48315   0.00000  Uiso   1.00
F171   F     0.78956   0.17531   0.09260   0.00000  Uiso   1.00
F172   F     0.71021   0.14010   0.40623   0.00000  Uiso   1.00
F173   F     0.75310   0.11870   0.06178   0.00000  Uiso   1.00
F174   F     0.68735   0.11429   0.00707   0.00000  Uiso   1.00
F175   F     0.91917   0.29276   0.24387   0.00000  Uiso   1.00
H176   H     0.94952   0.18055   0.08359   0.00000  Uiso   1.00
H177   H     0.69320   0.20507   0.31556   0.00000  Uiso   1.00
H178   H     0.97334   0.12777   0.18488   0.00000  Uiso   1.00
H179   H     0.95217   0.14532   0.41392   0.00000  Uiso   1.00
H180   H     0.69877   0.08089   0.35017   0.00000  Uiso   1.00
H181   H     0.75293   0.24538   0.15123   0.00000  Uiso   1.00
H182   H     0.84945   0.04177   0.35946   0.00000  Uiso   1.00
N183   N     0.71598   0.16666   0.24999   0.00000  Uiso   1.00
N184   N     0.95069   0.16669   0.25000   0.00000  Uiso   1.00
O185   O     0.79375   0.22678   0.25001   0.00000  Uiso   1.00
O186   O     0.69744   0.00381   0.31421   0.00000  Uiso   1.00
O187   O     0.73293   0.07219   0.33463   0.00000  Uiso   1.00
O188   O     0.70917   0.27243   0.24550   0.00000  Uiso   1.00
O189   O     0.73213   0.32732   0.18088   0.00000  Uiso   1.00
O190   O     0.77951   0.25917   0.16183   0.00000  Uiso   1.00
O191   O     0.93201   0.10173   0.32092   0.00000  Uiso   1.00
O192   O     0.91594   0.06158   0.40055   0.00000  Uiso   1.00
O193   O     0.84450   0.07178   0.35947   0.00000  Uiso   1.00
O194   O     0.87294   0.22679   0.25001   0.00000  Uiso   1.00
O195   O     0.77441   0.16665   0.32549   0.00000  Uiso   1.00
O196   O     0.85360   0.16666   0.32549   0.00000  Uiso   1.00
O197   O     0.79373   0.10654   0.25000   0.00000  Uiso   1.00
O198   O     0.87292   0.10655   0.25000   0.00000  Uiso   1.00
O199   O     0.81306   0.16667   0.17451   0.00000  Uiso   1.00
O200   O     0.89225   0.16668   0.17451   0.00000  Uiso   1.00
O201   O     0.70709   0.05924   0.25058   0.00000  Uiso   1.00
S202   S     0.72960   0.03873   0.28849   0.00000  Uiso   1.00
S203   S     0.75124   0.29301   0.20724   0.00000  Uiso   1.00
S204   S     0.89453   0.09222   0.37100   0.00000  Uiso   1.00
C205   C     0.16756   0.57924   0.24636   0.00000  Uiso   1.00
C206   C     0.12749   0.48240   0.40512   0.00000  Uiso   1.00
C207   C     0.21015   0.64552   0.24488   0.00000  Uiso   1.00
C208   C     0.14123   0.49466   0.34946   0.00000  Uiso   1.00
C209   C     0.20956   0.35445   0.24643   0.00000  Uiso   1.00
C210   C     0.16545   0.37573   0.25255   0.00000  Uiso   1.00
C211   C     0.12211   0.35343   0.25550   0.00000  Uiso   1.00
C212   C     0.12627   0.64588   0.23997   0.00000  Uiso   1.00
C213   C     0.16828   0.62395   0.24239   0.00000  Uiso   1.00
C214   C     0.29927   0.52190   0.28598   0.00000  Uiso   1.00
C215   C     0.01537   0.52127   0.28645   0.00000  Uiso   1.00
C216   C     0.14773   0.47961   0.48763   0.00000  Uiso   1.00
C217   C     0.03420   0.47874   0.21344   0.00000  Uiso   1.00
C218   C     0.31791   0.47856   0.21368   0.00000  Uiso   1.00
C219   C     0.16605   0.42060   0.25181   0.00000  Uiso   1.00
C220   C     0.19224   0.50189   0.15007   0.00000  Uiso   1.00
C221   C     0.26743   0.50580   0.01069   0.00000  Uiso   1.00
C222   C     0.20599   0.50317   0.09321   0.00000  Uiso   1.00
C223   C     0.07854   0.47375   0.43152   0.00000  Uiso   1.00
C224   C     0.06585   0.46260   0.48380   0.00000  Uiso   1.00
C225   C     0.09954   0.46651   0.01236   0.00000  Uiso   1.00
C226   C     0.16296   0.47858   0.43299   0.00000  Uiso   1.00
C227   C     0.18271   0.49031   0.01412   0.00000  Uiso   1.00
C228   C     0.23255   0.49408   0.48562   0.00000  Uiso   1.00
C229   C     0.24719   0.48281   0.43352   0.00000  Uiso   1.00
C230   C     0.21258   0.47007   0.40923   0.00000  Uiso   1.00
C231   C     0.16979   0.49947   0.06718   0.00000  Uiso   1.00
C232   C     0.25475   0.50789   0.06451   0.00000  Uiso   1.00
Cu233  Cu    0.11978   0.49999   0.25000   0.00000  Uiso   1.00
Cu234  Cu    0.21355   0.50001   0.25000   0.00000  Uiso   1.00
F235   F     0.25206   0.37410   0.24414   0.00000  Uiso   1.00
F236   F     0.26694   0.54453   0.32168   0.00000  Uiso   1.00
F237   F     0.06669   0.45678   0.17707   0.00000  Uiso   1.00
F238   F     0.31365   0.51509   0.48315   0.00000  Uiso   1.00
F239   F     0.12289   0.50864   0.09260   0.00000  Uiso   1.00
F240   F     0.04354   0.47343   0.40623   0.00000  Uiso   1.00
F241   F     0.08644   0.45204   0.06178   0.00000  Uiso   1.00
F242   F     0.02068   0.44763   0.00707   0.00000  Uiso   1.00
F243   F     0.25251   0.62609   0.24387   0.00000  Uiso   1.00
H244   H     0.28285   0.51389   0.08359   0.00000  Uiso   1.00
H245   H     0.02654   0.53841   0.31556   0.00000  Uiso   1.00
H246   H     0.30667   0.46111   0.18488   0.00000  Uiso   1.00
H247   H     0.28550   0.47865   0.41392   0.00000  Uiso   1.00
H248   H     0.03210   0.41423   0.35017   0.00000  Uiso   1.00
H249   H     0.08626   0.57872   0.15123   0.00000  Uiso   1.00
H250   H     0.18278   0.37510   0.35946   0.00000  Uiso   1.00
N251   N     0.04931   0.49999   0.24999   0.00000  Uiso   1.00
N252   N     0.28402   0.50002   0.25000   0.00000  Uiso   1.00
O253   O     0.12708   0.56011   0.25001   0.00000  Uiso   1.00
O254   O     0.03077   0.33714   0.31421   0.00000  Uiso   1.00
O255   O     0.06626   0.40553   0.33463   0.00000  Uiso   1.00
O256   O     0.04251   0.60576   0.24550   0.00000  Uiso   1.00
O257   O     0.06546   0.66066   0.18088   0.00000  Uiso   1.00
O258   O     0.11285   0.59250   0.16183   0.00000  Uiso   1.00
O259   O     0.26535   0.43506   0.32092   0.00000  Uiso   1.00
O260   O     0.24927   0.39492   0.40055   0.00000  Uiso   1.00
O261   O     0.17783   0.40511   0.35947   0.00000  Uiso   1.00
O262   O     0.20627   0.56012   0.25001   0.00000  Uiso   1.00
O263   O     0.10775   0.49998   0.32549   0.00000  Uiso   1.00
O264   O     0.18694   0.49999   0.32549   0.00000  Uiso   1.00
O265   O     0.12706   0.43988   0.25000   0.00000  Uiso   1.00
O266   O     0.20625   0.43989   0.25000   0.00000  Uiso   1.00
O267   O     0.14640   0.50001   0.17451   0.00000  Uiso   1.00
O268   O     0.22559   0.50002   0.17451   0.00000  Uiso   1.00
O269   O     0.04042   0.39257   0.25058   0.00000  Uiso   1.00
S270   S     0.06293   0.37207   0.28849   0.00000  Uiso   1.00
S271   S     0.08457   0.62635   0.20724   0.00000  Uiso   1.00
S272   S     0.22786   0.42555   0.37100   0.00000  Uiso   1.00
C273   C     0.50089   0.57924   0.24636   0.00000  Uiso   1.00
C274   C     0.46082   0.48240   0.40512   0.00000  Uiso   1.00
C275   C     0.54348   0.64552   0.24488   0.00000  Uiso   1.00
C276   C     0.47457   0.49466   0.34946   0.00000  Uiso   1.00
C277   C     0.54289   0.35445   0.24643   0.00000  Uiso   1.00
C278   C     0.49878   0.37573   0.25255   0.00000  Uiso   1.00
C279   C     0.45544   0.35343   0.25550   0.00000  Uiso   1.00
C280   C     0.45960   0.64588   0.23997   0.00000  Uiso   1.00
C281   C     0.50162   0.62395   0.24239   0.00000  Uiso   1.00
C282   C     0.63260   0.52190   0.28598   0.00000  Uiso   1.00
C283   C     0.34870   0.52127   0.28645   0.00000  Uiso   1.00
C284   C     0.48107   0.47961   0.48763   0.00000  Uiso   1.00
C285   C     0.36754   0.47874   0.21344   0.00000  Uiso   1.00
C286   C     0.65124   0.47856   0.21368   0.00000  Uiso   1.00
C287   C     0.49938   0.42060   0.25181   0.00000  Uiso   1.00
C288   C     0.52557   0.50189   0.15007   0.00000  Uiso   1.00
C289   C     0.60076   0.50580   0.01069   0.00000  Uiso   1.00
C290   C     0.53933   0.50317   0.09321   0.00000  Uiso   1.00
C291   C     0.41187   0.47375   0.43152   0.00000  Uiso   1.00
C292   C     0.39918   0.46260   0.48380   0.00000  Uiso   1.00
C293   C     0.43288   0.46651   0.01236   0.00000  Uiso   1.00
C294   C     0.49630   0.47858   0.43299   0.00000  Uiso   1.00
C295   C     0.51605   0.49031   0.01412   0.00000  Uiso   1.00
C296   C     0.56589   0.49408   0.48562   0.00000  Uiso   1.00
C297   C     0.58052   0.48281   0.43352   0.00000  Uiso   1.00
C298   C     0.54592   0.47007   0.40923   0.00000  Uiso   1.00
C299   C     0.50313   0.49947   0.06718   0.00000  Uiso   1.00
C300   C     0.58809   0.50789   0.06451   0.00000  Uiso   1.00
Cu301  Cu    0.45311   0.49999   0.25000   0.00000  Uiso   1.00
Cu302  Cu    0.54689   0.50001   0.25000   0.00000  Uiso   1.00
F303   F     0.58540   0.37410   0.24414   0.00000  Uiso   1.00
F304   F     0.60027   0.54453   0.32168   0.00000  Uiso   1.00
F305   F     0.40003   0.45678   0.17707   0.00000  Uiso   1.00
F306   F     0.64699   0.51509   0.48315   0.00000  Uiso   1.00
F307   F     0.45623   0.50864   0.09260   0.00000  Uiso   1.00
F308   F     0.37687   0.47343   0.40623   0.00000  Uiso   1.00
F309   F     0.41977   0.45204   0.06178   0.00000  Uiso   1.00
F310   F     0.35401   0.44763   0.00707   0.00000  Uiso   1.00
F311   F     0.58584   0.62609   0.24387   0.00000  Uiso   1.00
H312   H     0.61619   0.51389   0.08359   0.00000  Uiso   1.00
H313   H     0.35987   0.53841   0.31556   0.00000  Uiso   1.00
H314   H     0.64000   0.46111   0.18488   0.00000  Uiso   1.00
H315   H     0.61883   0.47865   0.41392   0.00000  Uiso   1.00
H316   H     0.36543   0.41423   0.35017   0.00000  Uiso   1.00
H317   H     0.41959   0.57872   0.15123   0.00000  Uiso   1.00
H318   H     0.51611   0.37510   0.35946   0.00000  Uiso   1.00
N319   N     0.38265   0.49999   0.24999   0.00000  Uiso   1.00
N320   N     0.61735   0.50002   0.25000   0.00000  Uiso   1.00
O321   O     0.46042   0.56011   0.25001   0.00000  Uiso   1.00
O322   O     0.36410   0.33714   0.31421   0.00000  Uiso   1.00
O323   O     0.39960   0.40553   0.33463   0.00000  Uiso   1.00
O324   O     0.37584   0.60576   0.24550   0.00000  Uiso   1.00
O325   O     0.39880   0.66066   0.18088   0.00000  Uiso   1.00
O326   O     0.44618   0.59250   0.16183   0.00000  Uiso   1.00
O327   O     0.59868   0.43506   0.32092   0.00000  Uiso   1.00
O328   O     0.58260   0.39492   0.40055   0.00000  Uiso   1.00
O329   O     0.51117   0.40511   0.35947   0.00000  Uiso   1.00
O330   O     0.53961   0.56012   0.25001   0.00000  Uiso   1.00
O331   O     0.44108   0.49998   0.32549   0.00000  Uiso   1.00
O332   O     0.52027   0.49999   0.32549   0.00000  Uiso   1.00
O333   O     0.46039   0.43988   0.25000   0.00000  Uiso   1.00
O334   O     0.53958   0.43989   0.25000   0.00000  Uiso   1.00
O335   O     0.47973   0.50001   0.17451   0.00000  Uiso   1.00
O336   O     0.55892   0.50002   0.17451   0.00000  Uiso   1.00
O337   O     0.37375   0.39257   0.25058   0.00000  Uiso   1.00
S338   S     0.39627   0.37207   0.28849   0.00000  Uiso   1.00
S339   S     0.41791   0.62635   0.20724   0.00000  Uiso   1.00
S340   S     0.56119   0.42555   0.37100   0.00000  Uiso   1.00
C341   C     0.83422   0.57924   0.24636   0.00000  Uiso   1.00
C342   C     0.79416   0.48240   0.40512   0.00000  Uiso   1.00
C343   C     0.87682   0.64552   0.24488   0.00000  Uiso   1.00
C344   C     0.80790   0.49466   0.34946   0.00000  Uiso   1.00
C345   C     0.87623   0.35445   0.24643   0.00000  Uiso   1.00
C346   C     0.83212   0.37573   0.25255   0.00000  Uiso   1.00
C347   C     0.78877   0.35343   0.25550   0.00000  Uiso   1.00
C348   C     0.79293   0.64588   0.23997   0.00000  Uiso   1.00
C349   C     0.83495   0.62395   0.24239   0.00000  Uiso   1.00
C350   C     0.96593   0.52190   0.28598   0.00000  Uiso   1.00
C351   C     0.68204   0.52127   0.28645   0.00000  Uiso   1.00
C352   C     0.81440   0.47961   0.48763   0.00000  Uiso   1.00
C353   C     0.70087   0.47874   0.21344   0.00000  Uiso   1.00
C354   C     0.98458   0.47856   0.21368   0.00000  Uiso   1.00
C355   C     0.83272   0.42060   0.25181   0.00000  Uiso   1.00
C356   C     0.85890   0.50189   0.15007   0.00000  Uiso   1.00
C357   C     0.93410   0.50580   0.01069   0.00000  Uiso   1.00
C358   C     0.87266   0.50317   0.09321   0.00000  Uiso   1.00
C359   C     0.74520   0.47375   0.43152   0.00000  Uiso   1.00
C360   C     0.73252   0.46260   0.48380   0.00000  Uiso   1.00
C361   C     0.76621   0.46651   0.01236   0.00000  Uiso   1.00
C362   C     0.82963   0.47858   0.43299   0.00000  Uiso   1.00
C363   C     0.84938   0.49031   0.01412   0.00000  Uiso   1.00
C364   C     0.89922   0.49408   0.48562   0.00000  Uiso   1.00
C365   C     0.91386   0.48281   0.43352   0.00000  Uiso   1.00
C366   C     0.87925   0.47007   0.40923   0.00000  Uiso   1.00
C367   C     0.83646   0.49947   0.06718   0.00000  Uiso   1.00
C368   C     0.92142   0.50789   0.06451   0.00000  Uiso   1.00
Cu369  Cu    0.78645   0.49999   0.25000   0.00000  Uiso   1.00
Cu370  Cu    0.88022   0.50001   0.25000   0.00000  Uiso   1.00
F371   F     0.91873   0.37410   0.24414   0.00000  Uiso   1.00
F372   F     0.93361   0.54453   0.32168   0.00000  Uiso   1.00
F373   F     0.73336   0.45678   0.17707   0.00000  Uiso   1.00
F374   F     0.98032   0.51509   0.48315   0.00000  Uiso   1.00
F375   F     0.78956   0.50864   0.09260   0.00000  Uiso   1.00
F376   F     0.71021   0.47343   0.40623   0.00000  Uiso   1.00
F377   F     0.75310   0.45204   0.06178   0.00000  Uiso   1.00
F378   F     0.68735   0.44763   0.00707   0.00000  Uiso   1.00
F379   F     0.91917   0.62609   0.24387   0.00000  Uiso   1.00
H380   H     0.94952   0.51389   0.08359   0.00000  Uiso   1.00
H381   H     0.69320   0.53841   0.31556   0.00000  Uiso   1.00
H382   H     0.97334   0.46111   0.18488   0.00000  Uiso   1.00
H383   H     0.95217   0.47865   0.41392   0.00000  Uiso   1.00
H384   H     0.69877   0.41423   0.35017   0.00000  Uiso   1.00
H385   H     0.75293   0.57872   0.15123   0.00000  Uiso   1.00
H386   H     0.84945   0.37510   0.35946   0.00000  Uiso   1.00
N387   N     0.71598   0.49999   0.24999   0.00000  Uiso   1.00
N388   N     0.95069   0.50002   0.25000   0.00000  Uiso   1.00
O389   O     0.79375   0.56011   0.25001   0.00000  Uiso   1.00
O390   O     0.69744   0.33714   0.31421   0.00000  Uiso   1.00
O391   O     0.73293   0.40553   0.33463   0.00000  Uiso   1.00
O392   O     0.70917   0.60576   0.24550   0.00000  Uiso   1.00
O393   O     0.73213   0.66066   0.18088   0.00000  Uiso   1.00
O394   O     0.77951   0.59250   0.16183   0.00000  Uiso   1.00
O395   O     0.93201   0.43506   0.32092   0.00000  Uiso   1.00
O396   O     0.91594   0.39492   0.40055   0.00000  Uiso   1.00
O397   O     0.84450   0.40511   0.35947   0.00000  Uiso   1.00
O398   O     0.87294   0.56012   0.25001   0.00000  Uiso   1.00
O399   O     0.77441   0.49998   0.32549   0.00000  Uiso   1.00
O400   O     0.85360   0.49999   0.32549   0.00000  Uiso   1.00
O401   O     0.79373   0.43988   0.25000   0.00000  Uiso   1.00
O402   O     0.87292   0.43989   0.25000   0.00000  Uiso   1.00
O403   O     0.81306   0.50001   0.17451   0.00000  Uiso   1.00
O404   O     0.89225   0.50002   0.17451   0.00000  Uiso   1.00
O405   O     0.70709   0.39257   0.25058   0.00000  Uiso   1.00
S406   S     0.72960   0.37207   0.28849   0.00000  Uiso   1.00
S407   S     0.75124   0.62635   0.20724   0.00000  Uiso   1.00
S408   S     0.89453   0.42555   0.37100   0.00000  Uiso   1.00
C409   C     0.16756   0.91257   0.24636   0.00000  Uiso   1.00
C410   C     0.12749   0.81573   0.40512   0.00000  Uiso   1.00
C411   C     0.21015   0.97885   0.24488   0.00000  Uiso   1.00
C412   C     0.14123   0.82799   0.34946   0.00000  Uiso   1.00
C413   C     0.20956   0.68779   0.24643   0.00000  Uiso   1.00
C414   C     0.16545   0.70906   0.25255   0.00000  Uiso   1.00
C415   C     0.12211   0.68677   0.25550   0.00000  Uiso   1.00
C416   C     0.12627   0.97921   0.23997   0.00000  Uiso   1.00
C417   C     0.16828   0.95728   0.24239   0.00000  Uiso   1.00
C418   C     0.29927   0.85523   0.28598   0.00000  Uiso   1.00
C419   C     0.01537   0.85461   0.28645   0.00000  Uiso   1.00
C420   C     0.14773   0.81294   0.48763   0.00000  Uiso   1.00
C421   C     0.03420   0.81207   0.21344   0.00000  Uiso   1.00
C422   C     0.31791   0.81189   0.21368   0.00000  Uiso   1.00
C423   C     0.16605   0.75393   0.25181   0.00000  Uiso   1.00
C424   C     0.19224   0.83522   0.15007   0.00000  Uiso   1.00
C425   C     0.26743   0.83914   0.01069   0.00000  Uiso   1.00
C426   C     0.20599   0.83651   0.09321   0.00000  Uiso   1.00
C427   C     0.07854   0.80709   0.43152   0.00000  Uiso   1.00
C428   C     0.06585   0.79593   0.48380   0.00000  Uiso   1.00
C429   C     0.09954   0.79984   0.01236   0.00000  Uiso   1.00
C430   C     0.16296   0.81191   0.43299   0.00000  Uiso   1.00
C431   C     0.18271   0.82364   0.01412   0.00000  Uiso   1.00
C432   C     0.23255   0.82741   0.48562   0.00000  Uiso   1.00
C433   C     0.24719   0.81614   0.43352   0.00000  Uiso   1.00
C434   C     0.21258   0.80340   0.40923   0.00000  Uiso   1.00
C435   C     0.16979   0.83280   0.06718   0.00000  Uiso   1.00
C436   C     0.25475   0.84122   0.06451   0.00000  Uiso   1.00
Cu437  Cu    0.11978   0.83333   0.25000   0.00000  Uiso   1.00
Cu438  Cu    0.21355   0.83334   0.25000   0.00000  Uiso   1.00
F439   F     0.25206   0.70744   0.24414   0.00000  Uiso   1.00
F440   F     0.26694   0.87787   0.32168   0.00000  Uiso   1.00
F441   F     0.06669   0.79012   0.17707   0.00000  Uiso   1.00
F442   F     0.31365   0.84843   0.48315   0.00000  Uiso   1.00
F443   F     0.12289   0.84197   0.09260   0.00000  Uiso   1.00
F444   F     0.04354   0.80677   0.40623   0.00000  Uiso   1.00
F445   F     0.08644   0.78537   0.06178   0.00000  Uiso   1.00
F446   F     0.02068   0.78096   0.00707   0.00000  Uiso   1.00
F447   F     0.25251   0.95943   0.24387   0.00000  Uiso   1.00
H448   H     0.28285   0.84722   0.08359   0.00000  Uiso   1.00
H449   H     0.02654   0.87174   0.31556   0.00000  Uiso   1.00
H450   H     0.30667   0.79444   0.18488   0.00000  Uiso   1.00
H451   H     0.28550   0.81199   0.41392   0.00000  Uiso   1.00
H452   H     0.03210   0.74756   0.35017   0.00000  Uiso   1.00
H453   H     0.08626   0.91205   0.15123   0.00000  Uiso   1.00
H454   H     0.18278   0.70843   0.35946   0.00000  Uiso   1.00
N455   N     0.04931   0.83332   0.24999   0.00000  Uiso   1.00
N456   N     0.28402   0.83335   0.25000   0.00000  Uiso   1.00
O457   O     0.12708   0.89345   0.25001   0.00000  Uiso   1.00
O458   O     0.03077   0.67047   0.31421   0.00000  Uiso   1.00
O459   O     0.06626   0.73886   0.33463   0.00000  Uiso   1.00
O460   O     0.04251   0.93909   0.24550   0.00000  Uiso   1.00
O461   O     0.06546   0.99399   0.18088   0.00000  Uiso   1.00
O462   O     0.11285   0.92583   0.16183   0.00000  Uiso   1.00
O463   O     0.26535   0.76840   0.32092   0.00000  Uiso   1.00
O464   O     0.24927   0.72825   0.40055   0.00000  Uiso   1.00
O465   O     0.17783   0.73844   0.35947   0.00000  Uiso   1.00
O466   O     0.20627   0.89346   0.25001   0.00000  Uiso   1.00
O467   O     0.10775   0.83332   0.32549   0.00000  Uiso   1.00
O468   O     0.18694   0.83333   0.32549   0.00000  Uiso   1.00
O469   O     0.12706   0.77321   0.25000   0.00000  Uiso   1.00
O470   O     0.20625   0.77322   0.25000   0.00000  Uiso   1.00
O471   O     0.14640   0.83334   0.17451   0.00000  Uiso   1.00
O472   O     0.22559   0.83335   0.17451   0.00000  Uiso   1.00
O473   O     0.04042   0.72591   0.25058   0.00000  Uiso   1.00
S474   S     0.06293   0.70540   0.28849   0.00000  Uiso   1.00
S475   S     0.08457   0.95968   0.20724   0.00000  Uiso   1.00
S476   S     0.22786   0.75889   0.37100   0.00000  Uiso   1.00
C477   C     0.50089   0.91257   0.24636   0.00000  Uiso   1.00
C478   C     0.46082   0.81573   0.40512   0.00000  Uiso   1.00
C479   C     0.54348   0.97885   0.24488   0.00000  Uiso   1.00
C480   C     0.47457   0.82799   0.34946   0.00000  Uiso   1.00
C481   C     0.54289   0.68779   0.24643   0.00000  Uiso   1.00
C482   C     0.49878   0.70906   0.25255   0.00000  Uiso   1.00
C483   C     0.45544   0.68677   0.25550   0.00000  Uiso   1.00
C484   C     0.45960   0.97921   0.23997   0.00000  Uiso   1.00
C485   C     0.50162   0.95728   0.24239   0.00000  Uiso   1.00
C486   C     0.63260   0.85523   0.28598   0.00000  Uiso   1.00
C487   C     0.34870   0.85461   0.28645   0.00000  Uiso   1.00
C488   C     0.48107   0.81294   0.48763   0.00000  Uiso   1.00
C489   C     0.36754   0.81207   0.21344   0.00000  Uiso   1.00
C490   C     0.65124   0.81189   0.21368   0.00000  Uiso   1.00
C491   C     0.49938   0.75393   0.25181   0.00000  Uiso   1.00
C492   C     0.52557   0.83522   0.15007   0.00000  Uiso   1.00
C493   C     0.60076   0.83914   0.01069   0.00000  Uiso   1.00
C494   C     0.53933   0.83651   0.09321   0.00000  Uiso   1.00
C495   C     0.41187   0.80709   0.43152   0.00000  Uiso   1.00
C496   C     0.39918   0.79593   0.48380   0.00000  Uiso   1.00
C497   C     0.43288   0.79984   0.01236   0.00000  Uiso   1.00
C498   C     0.49630   0.81191   0.43299   0.00000  Uiso   1.00
C499   C     0.51605   0.82364   0.01412   0.00000  Uiso   1.00
C500   C     0.56589   0.82741   0.48562   0.00000  Uiso   1.00
C501   C     0.58052   0.81614   0.43352   0.00000  Uiso   1.00
C502   C     0.54592   0.80340   0.40923   0.00000  Uiso   1.00
C503   C     0.50313   0.83280   0.06718   0.00000  Uiso   1.00
C504   C     0.58809   0.84122   0.06451   0.00000  Uiso   1.00
Cu505  Cu    0.45311   0.83333   0.25000   0.00000  Uiso   1.00
Cu506  Cu    0.54689   0.83334   0.25000   0.00000  Uiso   1.00
F507   F     0.58540   0.70744   0.24414   0.00000  Uiso   1.00
F508   F     0.60027   0.87787   0.32168   0.00000  Uiso   1.00
F509   F     0.40003   0.79012   0.17707   0.00000  Uiso   1.00
F510   F     0.64699   0.84843   0.48315   0.00000  Uiso   1.00
F511   F     0.45623   0.84197   0.09260   0.00000  Uiso   1.00
F512   F     0.37687   0.80677   0.40623   0.00000  Uiso   1.00
F513   F     0.41977   0.78537   0.06178   0.00000  Uiso   1.00
F514   F     0.35401   0.78096   0.00707   0.00000  Uiso   1.00
F515   F     0.58584   0.95943   0.24387   0.00000  Uiso   1.00
H516   H     0.61619   0.84722   0.08359   0.00000  Uiso   1.00
H517   H     0.35987   0.87174   0.31556   0.00000  Uiso   1.00
H518   H     0.64000   0.79444   0.18488   0.00000  Uiso   1.00
H519   H     0.61883   0.81199   0.41392   0.00000  Uiso   1.00
H520   H     0.36543   0.74756   0.35017   0.00000  Uiso   1.00
H521   H     0.41959   0.91205   0.15123   0.00000  Uiso   1.00
H522   H     0.51611   0.70843   0.35946   0.00000  Uiso   1.00
N523   N     0.38265   0.83332   0.24999   0.00000  Uiso   1.00
N524   N     0.61735   0.83335   0.25000   0.00000  Uiso   1.00
O525   O     0.46042   0.89345   0.25001   0.00000  Uiso   1.00
O526   O     0.36410   0.67047   0.31421   0.00000  Uiso   1.00
O527   O     0.39960   0.73886   0.33463   0.00000  Uiso   1.00
O528   O     0.37584   0.93909   0.24550   0.00000  Uiso   1.00
O529   O     0.39880   0.99399   0.18088   0.00000  Uiso   1.00
O530   O     0.44618   0.92583   0.16183   0.00000  Uiso   1.00
O531   O     0.59868   0.76840   0.32092   0.00000  Uiso   1.00
O532   O     0.58260   0.72825   0.40055   0.00000  Uiso   1.00
O533   O     0.51117   0.73844   0.35947   0.00000  Uiso   1.00
O534   O     0.53961   0.89346   0.25001   0.00000  Uiso   1.00
O535   O     0.44108   0.83332   0.32549   0.00000  Uiso   1.00
O536   O     0.52027   0.83333   0.32549   0.00000  Uiso   1.00
O537   O     0.46039   0.77321   0.25000   0.00000  Uiso   1.00
O538   O     0.53958   0.77322   0.25000   0.00000  Uiso   1.00
O539   O     0.47973   0.83334   0.17451   0.00000  Uiso   1.00
O540   O     0.55892   0.83335   0.17451   0.00000  Uiso   1.00
O541   O     0.37375   0.72591   0.25058   0.00000  Uiso   1.00
S542   S     0.39627   0.70540   0.28849   0.00000  Uiso   1.00
S543   S     0.41791   0.95968   0.20724   0.00000  Uiso   1.00
S544   S     0.56119   0.75889   0.37100   0.00000  Uiso   1.00
C545   C     0.83422   0.91257   0.24636   0.00000  Uiso   1.00
C546   C     0.79416   0.81573   0.40512   0.00000  Uiso   1.00
C547   C     0.87682   0.97885   0.24488   0.00000  Uiso   1.00
C548   C     0.80790   0.82799   0.34946   0.00000  Uiso   1.00
C549   C     0.87623   0.68779   0.24643   0.00000  Uiso   1.00
C550   C     0.83212   0.70906   0.25255   0.00000  Uiso   1.00
C551   C     0.78877   0.68677   0.25550   0.00000  Uiso   1.00
C552   C     0.79293   0.97921   0.23997   0.00000  Uiso   1.00
C553   C     0.83495   0.95728   0.24239   0.00000  Uiso   1.00
C554   C     0.96593   0.85523   0.28598   0.00000  Uiso   1.00
C555   C     0.68204   0.85461   0.28645   0.00000  Uiso   1.00
C556   C     0.81440   0.81294   0.48763   0.00000  Uiso   1.00
C557   C     0.70087   0.81207   0.21344   0.00000  Uiso   1.00
C558   C     0.98458   0.81189   0.21368   0.00000  Uiso   1.00
C559   C     0.83272   0.75393   0.25181   0.00000  Uiso   1.00
C560   C     0.85890   0.83522   0.15007   0.00000  Uiso   1.00
C561   C     0.93410   0.83914   0.01069   0.00000  Uiso   1.00
C562   C     0.87266   0.83651   0.09321   0.00000  Uiso   1.00
C563   C     0.74520   0.80709   0.43152   0.00000  Uiso   1.00
C564   C     0.73252   0.79593   0.48380   0.00000  Uiso   1.00
C565   C     0.76621   0.79984   0.01236   0.00000  Uiso   1.00
C566   C     0.82963   0.81191   0.43299   0.00000  Uiso   1.00
C567   C     0.84938   0.82364   0.01412   0.00000  Uiso   1.00
C568   C     0.89922   0.82741   0.48562   0.00000  Uiso   1.00
C569   C     0.91386   0.81614   0.43352   0.00000  Uiso   1.00
C570   C     0.87925   0.80340   0.40923   0.00000  Uiso   1.00
C571   C     0.83646   0.83280   0.06718   0.00000  Uiso   1.00
C572   C     0.92142   0.84122   0.06451   0.00000  Uiso   1.00
Cu573  Cu    0.78645   0.83333   0.25000   0.00000  Uiso   1.00
Cu574  Cu    0.88022   0.83334   0.25000   0.00000  Uiso   1.00
F575   F     0.91873   0.70744   0.24414   0.00000  Uiso   1.00
F576   F     0.93361   0.87787   0.32168   0.00000  Uiso   1.00
F577   F     0.73336   0.79012   0.17707   0.00000  Uiso   1.00
F578   F     0.98032   0.84843   0.48315   0.00000  Uiso   1.00
F579   F     0.78956   0.84197   0.09260   0.00000  Uiso   1.00
F580   F     0.71021   0.80677   0.40623   0.00000  Uiso   1.00
F581   F     0.75310   0.78537   0.06178   0.00000  Uiso   1.00
F582   F     0.68735   0.78096   0.00707   0.00000  Uiso   1.00
F583   F     0.91917   0.95943   0.24387   0.00000  Uiso   1.00
H584   H     0.94952   0.84722   0.08359   0.00000  Uiso   1.00
H585   H     0.69320   0.87174   0.31556   0.00000  Uiso   1.00
H586   H     0.97334   0.79444   0.18488   0.00000  Uiso   1.00
H587   H     0.95217   0.81199   0.41392   0.00000  Uiso   1.00
H588   H     0.69877   0.74756   0.35017   0.00000  Uiso   1.00
H589   H     0.75293   0.91205   0.15123   0.00000  Uiso   1.00
H590   H     0.84945   0.70843   0.35946   0.00000  Uiso   1.00
N591   N     0.71598   0.83332   0.24999   0.00000  Uiso   1.00
N592   N     0.95069   0.83335   0.25000   0.00000  Uiso   1.00
O593   O     0.79375   0.89345   0.25001   0.00000  Uiso   1.00
O594   O     0.69744   0.67047   0.31421   0.00000  Uiso   1.00
O595   O     0.73293   0.73886   0.33463   0.00000  Uiso   1.00
O596   O     0.70917   0.93909   0.24550   0.00000  Uiso   1.00
O597   O     0.73213   0.99399   0.18088   0.00000  Uiso   1.00
O598   O     0.77951   0.92583   0.16183   0.00000  Uiso   1.00
O599   O     0.93201   0.76840   0.32092   0.00000  Uiso   1.00
O600   O     0.91594   0.72825   0.40055   0.00000  Uiso   1.00
O601   O     0.84450   0.73844   0.35947   0.00000  Uiso   1.00
O602   O     0.87294   0.89346   0.25001   0.00000  Uiso   1.00
O603   O     0.77441   0.83332   0.32549   0.00000  Uiso   1.00
O604   O     0.85360   0.83333   0.32549   0.00000  Uiso   1.00
O605   O     0.79373   0.77321   0.25000   0.00000  Uiso   1.00
O606   O     0.87292   0.77322   0.25000   0.00000  Uiso   1.00
O607   O     0.81306   0.83334   0.17451   0.00000  Uiso   1.00
O608   O     0.89225   0.83335   0.17451   0.00000  Uiso   1.00
O609   O     0.70709   0.72591   0.25058   0.00000  Uiso   1.00
S610   S     0.72960   0.70540   0.28849   0.00000  Uiso   1.00
S611   S     0.75124   0.95968   0.20724   0.00000  Uiso   1.00
S612   S     0.89453   0.75889   0.37100   0.00000  Uiso   1.00
C613   C     0.16756   0.24590   0.74636   0.00000  Uiso   1.00
C614   C     0.12749   0.14906   0.90512   0.00000  Uiso   1.00
C615   C     0.21015   0.31219   0.74488   0.00000  Uiso   1.00
C616   C     0.14123   0.16132   0.84946   0.00000  Uiso   1.00
C617   C     0.20956   0.02112   0.74643   0.00000  Uiso   1.00
C618   C     0.16545   0.04240   0.75255   0.00000  Uiso   1.00
C619   C     0.12211   0.02010   0.75550   0.00000  Uiso   1.00
C620   C     0.12627   0.31255   0.73997   0.00000  Uiso   1.00
C621   C     0.16828   0.29061   0.74239   0.00000  Uiso   1.00
C622   C     0.29927   0.18856   0.78598   0.00000  Uiso   1.00
C623   C     0.01537   0.18794   0.78645   0.00000  Uiso   1.00
C624   C     0.14773   0.14627   0.98763   0.00000  Uiso   1.00
C625   C     0.03420   0.14540   0.71344   0.00000  Uiso   1.00
C626   C     0.31791   0.14522   0.71368   0.00000  Uiso   1.00
C627   C     0.16605   0.08726   0.75181   0.00000  Uiso   1.00
C628   C     0.19224   0.16856   0.65007   0.00000  Uiso   1.00
C629   C     0.26743   0.17247   0.51069   0.00000  Uiso   1.00
C630   C     0.20599   0.16984   0.59321   0.00000  Uiso   1.00
C631   C     0.07854   0.14042   0.93152   0.00000  Uiso   1.00
C632   C     0.06585   0.12926   0.98380   0.00000  Uiso   1.00
C633   C     0.09954   0.13318   0.51236   0.00000  Uiso   1.00
C634   C     0.16296   0.14524   0.93299   0.00000  Uiso   1.00
C635   C     0.18271   0.15698   0.51412   0.00000  Uiso   1.00
C636   C     0.23255   0.16074   0.98562   0.00000  Uiso   1.00
C637   C     0.24719   0.14948   0.93352   0.00000  Uiso   1.00
C638   C     0.21258   0.13674   0.90923   0.00000  Uiso   1.00
C639   C     0.16979   0.16614   0.56718   0.00000  Uiso   1.00
C640   C     0.25475   0.17456   0.56451   0.00000  Uiso   1.00
Cu641  Cu    0.11978   0.16666   0.75000   0.00000  Uiso   1.00
Cu642  Cu    0.21355   0.16667   0.75000   0.00000  Uiso   1.00
F643   F     0.25206   0.04077   0.74414   0.00000  Uiso   1.00
F644   F     0.26694   0.21120   0.82168   0.00000  Uiso   1.00
F645   F     0.06669   0.12345   0.67707   0.00000  Uiso   1.00
F646   F     0.31365   0.18176   0.98315   0.00000  Uiso   1.00
F647   F     0.12289   0.17531   0.59260   0.00000  Uiso   1.00
F648   F     0.04354   0.14010   0.90623   0.00000  Uiso   1.00
F649   F     0.08644   0.11870   0.56178   0.00000  Uiso   1.00
F650   F     0.02068   0.11429   0.50707   0.00000  Uiso   1.00
F651   F     0.25251   0.29276   0.74387   0.00000  Uiso   1.00
H652   H     0.28285   0.18055   0.58359   0.00000  Uiso   1.00
H653   H     0.02654   0.20507   0.81556   0.00000  Uiso   1.00
H654   H     0.30667   0.12777   0.68488   0.00000  Uiso   1.00
H655   H     0.28550   0.14532   0.91392   0.00000  Uiso   1.00
H656   H     0.03210   0.08089   0.85017   0.00000  Uiso   1.00
H657   H     0.08626   0.24538   0.65123   0.00000  Uiso   1.00
H658   H     0.18278   0.04177   0.85946   0.00000  Uiso   1.00
N659   N     0.04931   0.16666   0.74999   0.00000  Uiso   1.00
N660   N     0.28402   0.16669   0.75000   0.00000  Uiso   1.00
O661   O     0.12708   0.22678   0.75001   0.00000  Uiso   1.00
O662   O     0.03077   0.00381   0.81421   0.00000  Uiso   1.00
O663   O     0.06626   0.07219   0.83463   0.00000  Uiso   1.00
O664   O     0.04251   0.27243   0.74550   0.00000  Uiso   1.00
O665   O     0.06546   0.32732   0.68088   0.00000  Uiso   1.00
O666   O     0.11285   0.25917   0.66183   0.00000  Uiso   1.00
O667   O     0.26535   0.10173   0.82092   0.00000  Uiso   1.00
O668   O     0.24927   0.06158   0.90055   0.00000  Uiso   1.00
O669   O     0.17783   0.07178   0.85947   0.00000  Uiso   1.00
O670   O     0.20627   0.22679   0.75001   0.00000  Uiso   1.00
O671   O     0.10775   0.16665   0.82549   0.00000  Uiso   1.00
O672   O     0.18694   0.16666   0.82549   0.00000  Uiso   1.00
O673   O     0.12706   0.10654   0.75000   0.00000  Uiso   1.00
O674   O     0.20625   0.10655   0.75000   0.00000  Uiso   1.00
O675   O     0.14640   0.16667   0.67451   0.00000  Uiso   1.00
O676   O     0.22559   0.16668   0.67451   0.00000  Uiso   1.00
O677   O     0.04042   0.05924   0.75058   0.00000  Uiso   1.00
S678   S     0.06293   0.03873   0.78849   0.00000  Uiso   1.00
S679   S     0.08457   0.29301   0.70724   0.00000  Uiso   1.00
S680   S     0.22786   0.09222   0.87100   0.00000  Uiso   1.00
C681   C     0.50089   0.24590   0.74636   0.00000  Uiso   1.00
C682   C     0.46082   0.14906   0.90512   0.00000  Uiso   1.00
C683   C     0.54348   0.31219   0.74488   0.00000  Uiso   1.00
C684   C     0.47457   0.16132   0.84946   0.00000  Uiso   1.00
C685   C     0.54289   0.02112   0.74643   0.00000  Uiso   1.00
C686   C     0.49878   0.04240   0.75255   0.00000  Uiso   1.00
C687   C     0.45544   0.02010   0.75550   0.00000  Uiso   1.00
C688   C     0.45960   0.31255   0.73997   0.00000  Uiso   1.00
C689   C     0.50162   0.29061   0.74239   0.00000  Uiso   1.00
C690   C     0.63260   0.18856   0.78598   0.00000  Uiso   1.00
C691   C     0.34870   0.18794   0.78645   0.00000  Uiso   1.00
C692   C     0.48107   0.14627   0.98763   0.00000  Uiso   1.00
C693   C     0.36754   0.14540   0.71344   0.00000  Uiso   1.00
C694   C     0.65124   0.14522   0.71368   0.00000  Uiso   1.00
C695   C     0.49938   0.08726   0.75181   0.00000  Uiso   1.00
C696   C     0.52557   0.16856   0.65007   0.00000  Uiso   1.00
C697   C     0.60076   0.17247   0.51069   0.00000  Uiso   1.00
C698   C     0.53933   0.16984   0.59321   0.00000  Uiso   1.00
C699   C     0.41187   0.14042   0.93152   0.00000  Uiso   1.00
C700   C     0.39918   0.12926   0.98380   0.00000  Uiso   1.00
C701   C     0.43288   0.13318   0.51236   0.00000  Uiso   1.00
C702   C     0.49630   0.14524   0.93299   0.00000  Uiso   1.00
C703   C     0.51605   0.15698   0.51412   0.00000  Uiso   1.00
C704   C     0.56589   0.16074   0.98562   0.00000  Uiso   1.00
C705   C     0.58052   0.14948   0.93352   0.00000  Uiso   1.00
C706   C     0.54592   0.13674   0.90923   0.00000  Uiso   1.00
C707   C     0.50313   0.16614   0.56718   0.00000  Uiso   1.00
C708   C     0.58809   0.17456   0.56451   0.00000  Uiso   1.00
Cu709  Cu    0.45311   0.16666   0.75000   0.00000  Uiso   1.00
Cu710  Cu    0.54689   0.16667   0.75000   0.00000  Uiso   1.00
F711   F     0.58540   0.04077   0.74414   0.00000  Uiso   1.00
F712   F     0.60027   0.21120   0.82168   0.00000  Uiso   1.00
F713   F     0.40003   0.12345   0.67707   0.00000  Uiso   1.00
F714   F     0.64699   0.18176   0.98315   0.00000  Uiso   1.00
F715   F     0.45623   0.17531   0.59260   0.00000  Uiso   1.00
F716   F     0.37687   0.14010   0.90623   0.00000  Uiso   1.00
F717   F     0.41977   0.11870   0.56178   0.00000  Uiso   1.00
F718   F     0.35401   0.11429   0.50707   0.00000  Uiso   1.00
F719   F     0.58584   0.29276   0.74387   0.00000  Uiso   1.00
H720   H     0.61619   0.18055   0.58359   0.00000  Uiso   1.00
H721   H     0.35987   0.20507   0.81556   0.00000  Uiso   1.00
H722   H     0.64000   0.12777   0.68488   0.00000  Uiso   1.00
H723   H     0.61883   0.14532   0.91392   0.00000  Uiso   1.00
H724   H     0.36543   0.08089   0.85017   0.00000  Uiso   1.00
H725   H     0.41959   0.24538   0.65123   0.00000  Uiso   1.00
H726   H     0.51611   0.04177   0.85946   0.00000  Uiso   1.00
N727   N     0.38265   0.16666   0.74999   0.00000  Uiso   1.00
N728   N     0.61735   0.16669   0.75000   0.00000  Uiso   1.00
O729   O     0.46042   0.22678   0.75001   0.00000  Uiso   1.00
O730   O     0.36410   0.00381   0.81421   0.00000  Uiso   1.00
O731   O     0.39960   0.07219   0.83463   0.00000  Uiso   1.00
O732   O     0.37584   0.27243   0.74550   0.00000  Uiso   1.00
O733   O     0.39880   0.32732   0.68088   0.00000  Uiso   1.00
O734   O     0.44618   0.25917   0.66183   0.00000  Uiso   1.00
O735   O     0.59868   0.10173   0.82092   0.00000  Uiso   1.00
O736   O     0.58260   0.06158   0.90055   0.00000  Uiso   1.00
O737   O     0.51117   0.07178   0.85947   0.00000  Uiso   1.00
O738   O     0.53961   0.22679   0.75001   0.00000  Uiso   1.00
O739   O     0.44108   0.16665   0.82549   0.00000  Uiso   1.00
O740   O     0.52027   0.16666   0.82549   0.00000  Uiso   1.00
O741   O     0.46039   0.10654   0.75000   0.00000  Uiso   1.00
O742   O     0.53958   0.10655   0.75000   0.00000  Uiso   1.00
O743   O     0.47973   0.16667   0.67451   0.00000  Uiso   1.00
O744   O     0.55892   0.16668   0.67451   0.00000  Uiso   1.00
O745   O     0.37375   0.05924   0.75058   0.00000  Uiso   1.00
S746   S     0.39627   0.03873   0.78849   0.00000  Uiso   1.00
S747   S     0.41791   0.29301   0.70724   0.00000  Uiso   1.00
S748   S     0.56119   0.09222   0.87100   0.00000  Uiso   1.00
C749   C     0.83422   0.24590   0.74636   0.00000  Uiso   1.00
C750   C     0.79416   0.14906   0.90512   0.00000  Uiso   1.00
C751   C     0.87682   0.31219   0.74488   0.00000  Uiso   1.00
C752   C     0.80790   0.16132   0.84946   0.00000  Uiso   1.00
C753   C     0.87623   0.02112   0.74643   0.00000  Uiso   1.00
C754   C     0.83212   0.04240   0.75255   0.00000  Uiso   1.00
C755   C     0.78877   0.02010   0.75550   0.00000  Uiso   1.00
C756   C     0.79293   0.31255   0.73997   0.00000  Uiso   1.00
C757   C     0.83495   0.29061   0.74239   0.00000  Uiso   1.00
C758   C     0.96593   0.18856   0.78598   0.00000  Uiso   1.00
C759   C     0.68204   0.18794   0.78645   0.00000  Uiso   1.00
C760   C     0.81440   0.14627   0.98763   0.00000  Uiso   1.00
C761   C     0.70087   0.14540   0.71344   0.00000  Uiso   1.00
C762   C     0.98458   0.14522   0.71368   0.00000  Uiso   1.00
C763   C     0.83272   0.08726   0.75181   0.00000  Uiso   1.00
C764   C     0.85890   0.16856   0.65007   0.00000  Uiso   1.00
C765   C     0.93410   0.17247   0.51069   0.00000  Uiso   1.00
C766   C     0.87266   0.16984   0.59321   0.00000  Uiso   1.00
C767   C     0.74520   0.14042   0.93152   0.00000  Uiso   1.00
C768   C     0.73252   0.12926   0.98380   0.00000  Uiso   1.00
C769   C     0.76621   0.13318   0.51236   0.00000  Uiso   1.00
C770   C     0.82963   0.14524   0.93299   0.00000  Uiso   1.00
C771   C     0.84938   0.15698   0.51412   0.00000  Uiso   1.00
C772   C     0.89922   0.16074   0.98562   0.00000  Uiso   1.00
C773   C     0.91386   0.14948   0.93352   0.00000  Uiso   1.00
C774   C     0.87925   0.13674   0.90923   0.00000  Uiso   1.00
C775   C     0.83646   0.16614   0.56718   0.00000  Uiso   1.00
C776   C     0.92142   0.17456   0.56451   0.00000  Uiso   1.00
Cu777  Cu    0.78645   0.16666   0.75000   0.00000  Uiso   1.00
Cu778  Cu    0.88022   0.16667   0.75000   0.00000  Uiso   1.00
F779   F     0.91873   0.04077   0.74414   0.00000  Uiso   1.00
F780   F     0.93361   0.21120   0.82168   0.00000  Uiso   1.00
F781   F     0.73336   0.12345   0.67707   0.00000  Uiso   1.00
F782   F     0.98032   0.18176   0.98315   0.00000  Uiso   1.00
F783   F     0.78956   0.17531   0.59260   0.00000  Uiso   1.00
F784   F     0.71021   0.14010   0.90623   0.00000  Uiso   1.00
F785   F     0.75310   0.11870   0.56178   0.00000  Uiso   1.00
F786   F     0.68735   0.11429   0.50707   0.00000  Uiso   1.00
F787   F     0.91917   0.29276   0.74387   0.00000  Uiso   1.00
H788   H     0.94952   0.18055   0.58359   0.00000  Uiso   1.00
H789   H     0.69320   0.20507   0.81556   0.00000  Uiso   1.00
H790   H     0.97334   0.12777   0.68488   0.00000  Uiso   1.00
H791   H     0.95217   0.14532   0.91392   0.00000  Uiso   1.00
H792   H     0.69877   0.08089   0.85017   0.00000  Uiso   1.00
H793   H     0.75293   0.24538   0.65123   0.00000  Uiso   1.00
H794   H     0.84945   0.04177   0.85946   0.00000  Uiso   1.00
N795   N     0.71598   0.16666   0.74999   0.00000  Uiso   1.00
N796   N     0.95069   0.16669   0.75000   0.00000  Uiso   1.00
O797   O     0.79375   0.22678   0.75001   0.00000  Uiso   1.00
O798   O     0.69744   0.00381   0.81421   0.00000  Uiso   1.00
O799   O     0.73293   0.07219   0.83463   0.00000  Uiso   1.00
O800   O     0.70917   0.27243   0.74550   0.00000  Uiso   1.00
O801   O     0.73213   0.32732   0.68088   0.00000  Uiso   1.00
O802   O     0.77951   0.25917   0.66183   0.00000  Uiso   1.00
O803   O     0.93201   0.10173   0.82092   0.00000  Uiso   1.00
O804   O     0.91594   0.06158   0.90055   0.00000  Uiso   1.00
O805   O     0.84450   0.07178   0.85947   0.00000  Uiso   1.00
O806   O     0.87294   0.22679   0.75001   0.00000  Uiso   1.00
O807   O     0.77441   0.16665   0.82549   0.00000  Uiso   1.00
O808   O     0.85360   0.16666   0.82549   0.00000  Uiso   1.00
O809   O     0.79373   0.10654   0.75000   0.00000  Uiso   1.00
O810   O     0.87292   0.10655   0.75000   0.00000  Uiso   1.00
O811   O     0.81306   0.16667   0.67451   0.00000  Uiso   1.00
O812   O     0.89225   0.16668   0.67451   0.00000  Uiso   1.00
O813   O     0.70709   0.05924   0.75058   0.00000  Uiso   1.00
S814   S     0.72960   0.03873   0.78849   0.00000  Uiso   1.00
S815   S     0.75124   0.29301   0.70724   0.00000  Uiso   1.00
S816   S     0.89453   0.09222   0.87100   0.00000  Uiso   1.00
C817   C     0.16756   0.57924   0.74636   0.00000  Uiso   1.00
C818   C     0.12749   0.48240   0.90512   0.00000  Uiso   1.00
C819   C     0.21015   0.64552   0.74488   0.00000  Uiso   1.00
C820   C     0.14123   0.49466   0.84946   0.00000  Uiso   1.00
C821   C     0.20956   0.35445   0.74643   0.00000  Uiso   1.00
C822   C     0.16545   0.37573   0.75255   0.00000  Uiso   1.00
C823   C     0.12211   0.35343   0.75550   0.00000  Uiso   1.00
C824   C     0.12627   0.64588   0.73997   0.00000  Uiso   1.00
C825   C     0.16828   0.62395   0.74239   0.00000  Uiso   1.00
C826   C     0.29927   0.52190   0.78598   0.00000  Uiso   1.00
C827   C     0.01537   0.52127   0.78645   0.00000  Uiso   1.00
C828   C     0.14773   0.47961   0.98763   0.00000  Uiso   1.00
C829   C     0.03420   0.47874   0.71344   0.00000  Uiso   1.00
C830   C     0.31791   0.47856   0.71368   0.00000  Uiso   1.00
C831   C     0.16605   0.42060   0.75181   0.00000  Uiso   1.00
C832   C     0.19224   0.50189   0.65007   0.00000  Uiso   1.00
C833   C     0.26743   0.50580   0.51069   0.00000  Uiso   1.00
C834   C     0.20599   0.50317   0.59321   0.00000  Uiso   1.00
C835   C     0.07854   0.47375   0.93152   0.00000  Uiso   1.00
C836   C     0.06585   0.46260   0.98380   0.00000  Uiso   1.00
C837   C     0.09954   0.46651   0.51236   0.00000  Uiso   1.00
C838   C     0.16296   0.47858   0.93299   0.00000  Uiso   1.00
C839   C     0.18271   0.49031   0.51412   0.00000  Uiso   1.00
C840   C     0.23255   0.49408   0.98562   0.00000  Uiso   1.00
C841   C     0.24719   0.48281   0.93352   0.00000  Uiso   1.00
C842   C     0.21258   0.47007   0.90923   0.00000  Uiso   1.00
C843   C     0.16979   0.49947   0.56718   0.00000  Uiso   1.00
C844   C     0.25475   0.50789   0.56451   0.00000  Uiso   1.00
Cu845  Cu    0.11978   0.49999   0.75000   0.00000  Uiso   1.00
Cu846  Cu    0.21355   0.50001   0.75000   0.00000  Uiso   1.00
F847   F     0.25206   0.37410   0.74414   0.00000  Uiso   1.00
F848   F     0.26694   0.54453   0.82168   0.00000  Uiso   1.00
F849   F     0.06669   0.45678   0.67707   0.00000  Uiso   1.00
F850   F     0.31365   0.51509   0.98315   0.00000  Uiso   1.00
F851   F     0.12289   0.50864   0.59260   0.00000  Uiso   1.00
F852   F     0.04354   0.47343   0.90623   0.00000  Uiso   1.00
F853   F     0.08644   0.45204   0.56178   0.00000  Uiso   1.00
F854   F     0.02068   0.44763   0.50707   0.00000  Uiso   1.00
F855   F     0.25251   0.62609   0.74387   0.00000  Uiso   1.00
H856   H     0.28285   0.51389   0.58359   0.00000  Uiso   1.00
H857   H     0.02654   0.53841   0.81556   0.00000  Uiso   1.00
H858   H     0.30667   0.46111   0.68488   0.00000  Uiso   1.00
H859   H     0.28550   0.47865   0.91392   0.00000  Uiso   1.00
H860   H     0.03210   0.41423   0.85017   0.00000  Uiso   1.00
H861   H     0.08626   0.57872   0.65123   0.00000  Uiso   1.00
H862   H     0.18278   0.37510   0.85946   0.00000  Uiso   1.00
N863   N     0.04931   0.49999   0.74999   0.00000  Uiso   1.00
N864   N     0.28402   0.50002   0.75000   0.00000  Uiso   1.00
O865   O     0.12708   0.56011   0.75001   0.00000  Uiso   1.00
O866   O     0.03077   0.33714   0.81421   0.00000  Uiso   1.00
O867   O     0.06626   0.40553   0.83463   0.00000  Uiso   1.00
O868   O     0.04251   0.60576   0.74550   0.00000  Uiso   1.00
O869   O     0.06546   0.66066   0.68088   0.00000  Uiso   1.00
O870   O     0.11285   0.59250   0.66183   0.00000  Uiso   1.00
O871   O     0.26535   0.43506   0.82092   0.00000  Uiso   1.00
O872   O     0.24927   0.39492   0.90055   0.00000  Uiso   1.00
O873   O     0.17783   0.40511   0.85947   0.00000  Uiso   1.00
O874   O     0.20627   0.56012   0.75001   0.00000  Uiso   1.00
O875   O     0.10775   0.49998   0.82549   0.00000  Uiso   1.00
O876   O     0.18694   0.49999   0.82549   0.00000  Uiso   1.00
O877   O     0.12706   0.43988   0.75000   0.00000  Uiso   1.00
O878   O     0.20625   0.43989   0.75000   0.00000  Uiso   1.00
O879   O     0.14640   0.50001   0.67451   0.00000  Uiso   1.00
O880   O     0.22559   0.50002   0.67451   0.00000  Uiso   1.00
O881   O     0.04042   0.39257   0.75058   0.00000  Uiso   1.00
S882   S     0.06293   0.37207   0.78849   0.00000  Uiso   1.00
S883   S     0.08457   0.62635   0.70724   0.00000  Uiso   1.00
S884   S     0.22786   0.42555   0.87100   0.00000  Uiso   1.00
C885   C     0.50089   0.57924   0.74636   0.00000  Uiso   1.00
C886   C     0.46082   0.48240   0.90512   0.00000  Uiso   1.00
C887   C     0.54348   0.64552   0.74488   0.00000  Uiso   1.00
C888   C     0.47457   0.49466   0.84946   0.00000  Uiso   1.00
C889   C     0.54289   0.35445   0.74643   0.00000  Uiso   1.00
C890   C     0.49878   0.37573   0.75255   0.00000  Uiso   1.00
C891   C     0.45544   0.35343   0.75550   0.00000  Uiso   1.00
C892   C     0.45960   0.64588   0.73997   0.00000  Uiso   1.00
C893   C     0.50162   0.62395   0.74239   0.00000  Uiso   1.00
C894   C     0.63260   0.52190   0.78598   0.00000  Uiso   1.00
C895   C     0.34870   0.52127   0.78645   0.00000  Uiso   1.00
C896   C     0.48107   0.47961   0.98763   0.00000  Uiso   1.00
C897   C     0.36754   0.47874   0.71344   0.00000  Uiso   1.00
C898   C     0.65124   0.47856   0.71368   0.00000  Uiso   1.00
C899   C     0.49938   0.42060   0.75181   0.00000  Uiso   1.00
C900   C     0.52557   0.50189   0.65007   0.00000  Uiso   1.00
C901   C     0.60076   0.50580   0.51069   0.00000  Uiso   1.00
C902   C     0.53933   0.50317   0.59321   0.00000  Uiso   1.00
C903   C     0.41187   0.47375   0.93152   0.00000  Uiso   1.00
C904   C     0.39918   0.46260   0.98380   0.00000  Uiso   1.00
C905   C     0.43288   0.46651   0.51236   0.00000  Uiso   1.00
C906   C     0.49630   0.47858   0.93299   0.00000  Uiso   1.00
C907   C     0.51605   0.49031   0.51412   0.00000  Uiso   1.00
C908   C     0.56589   0.49408   0.98562   0.00000  Uiso   1.00
C909   C     0.58052   0.48281   0.93352   0.00000  Uiso   1.00
C910   C     0.54592   0.47007   0.90923   0.00000  Uiso   1.00
C911   C     0.50313   0.49947   0.56718   0.00000  Uiso   1.00
C912   C     0.58809   0.50789   0.56451   0.00000  Uiso   1.00
Cu913  Cu    0.45311   0.49999   0.75000   0.00000  Uiso   1.00
Cu914  Cu    0.54689   0.50001   0.75000   0.00000  Uiso   1.00
F915   F     0.58540   0.37410   0.74414   0.00000  Uiso   1.00
F916   F     0.60027   0.54453   0.82168   0.00000  Uiso   1.00
F917   F     0.40003   0.45678   0.67707   0.00000  Uiso   1.00
F918   F     0.64699   0.51509   0.98315   0.00000  Uiso   1.00
F919   F     0.45623   0.50864   0.59260   0.00000  Uiso   1.00
F920   F     0.37687   0.47343   0.90623   0.00000  Uiso   1.00
F921   F     0.41977   0.45204   0.56178   0.00000  Uiso   1.00
F922   F     0.35401   0.44763   0.50707   0.00000  Uiso   1.00
F923   F     0.58584   0.62609   0.74387   0.00000  Uiso   1.00
H924   H     0.61619   0.51389   0.58359   0.00000  Uiso   1.00
H925   H     0.35987   0.53841   0.81556   0.00000  Uiso   1.00
H926   H     0.64000   0.46111   0.68488   0.00000  Uiso   1.00
H927   H     0.61883   0.47865   0.91392   0.00000  Uiso   1.00
H928   H     0.36543   0.41423   0.85017   0.00000  Uiso   1.00
H929   H     0.41959   0.57872   0.65123   0.00000  Uiso   1.00
H930   H     0.51611   0.37510   0.85946   0.00000  Uiso   1.00
N931   N     0.38265   0.49999   0.74999   0.00000  Uiso   1.00
N932   N     0.61735   0.50002   0.75000   0.00000  Uiso   1.00
O933   O     0.46042   0.56011   0.75001   0.00000  Uiso   1.00
O934   O     0.36410   0.33714   0.81421   0.00000  Uiso   1.00
O935   O     0.39960   0.40553   0.83463   0.00000  Uiso   1.00
O936   O     0.37584   0.60576   0.74550   0.00000  Uiso   1.00
O937   O     0.39880   0.66066   0.68088   0.00000  Uiso   1.00
O938   O     0.44618   0.59250   0.66183   0.00000  Uiso   1.00
O939   O     0.59868   0.43506   0.82092   0.00000  Uiso   1.00
O940   O     0.58260   0.39492   0.90055   0.00000  Uiso   1.00
O941   O     0.51117   0.40511   0.85947   0.00000  Uiso   1.00
O942   O     0.53961   0.56012   0.75001   0.00000  Uiso   1.00
O943   O     0.44108   0.49998   0.82549   0.00000  Uiso   1.00
O944   O     0.52027   0.49999   0.82549   0.00000  Uiso   1.00
O945   O     0.46039   0.43988   0.75000   0.00000  Uiso   1.00
O946   O     0.53958   0.43989   0.75000   0.00000  Uiso   1.00
O947   O     0.47973   0.50001   0.67451   0.00000  Uiso   1.00
O948   O     0.55892   0.50002   0.67451   0.00000  Uiso   1.00
O949   O     0.37375   0.39257   0.75058   0.00000  Uiso   1.00
S950   S     0.39627   0.37207   0.78849   0.00000  Uiso   1.00
S951   S     0.41791   0.62635   0.70724   0.00000  Uiso   1.00
S952   S     0.56119   0.42555   0.87100   0.00000  Uiso   1.00
C953   C     0.83422   0.57924   0.74636   0.00000  Uiso   1.00
C954   C     0.79416   0.48240   0.90512   0.00000  Uiso   1.00
C955   C     0.87682   0.64552   0.74488   0.00000  Uiso   1.00
C956   C     0.80790   0.49466   0.84946   0.00000  Uiso   1.00
C957   C     0.87623   0.35445   0.74643   0.00000  Uiso   1.00
C958   C     0.83212   0.37573   0.75255   0.00000  Uiso   1.00
C959   C     0.78877   0.35343   0.75550   0.00000  Uiso   1.00
C960   C     0.79293   0.64588   0.73997   0.00000  Uiso   1.00
C961   C     0.83495   0.62395   0.74239   0.00000  Uiso   1.00
C962   C     0.96593   0.52190   0.78598   0.00000  Uiso   1.00
C963   C     0.68204   0.52127   0.78645   0.00000  Uiso   1.00
C964   C     0.81440   0.47961   0.98763   0.00000  Uiso   1.00
C965   C     0.70087   0.47874   0.71344   0.00000  Uiso   1.00
C966   C     0.98458   0.47856   0.71368   0.00000  Uiso   1.00
C967   C     0.83272   0.42060   0.75181   0.00000  Uiso   1.00
C968   C     0.85890   0.50189   0.65007   0.00000  Uiso   1.00
C969   C     0.93410   0.50580   0.51069   0.00000  Uiso   1.00
C970   C     0.87266   0.50317   0.59321   0.00000  Uiso   1.00
C971   C     0.74520   0.47375   0.93152   0.00000  Uiso   1.00
C972   C     0.73252   0.46260   0.98380   0.00000  Uiso   1.00
C973   C     0.76621   0.46651   0.51236   0.00000  Uiso   1.00
C974   C     0.82963   0.47858   0.93299   0.00000  Uiso   1.00
C975   C     0.84938   0.49031   0.51412   0.00000  Uiso   1.00
C976   C     0.89922   0.49408   0.98562   0.00000  Uiso   1.00
C977   C     0.91386   0.48281   0.93352   0.00000  Uiso   1.00
C978   C     0.87925   0.47007   0.90923   0.00000  Uiso   1.00
C979   C     0.83646   0.49947   0.56718   0.00000  Uiso   1.00
C980   C     0.92142   0.50789   0.56451   0.00000  Uiso   1.00
Cu981  Cu    0.78645   0.49999   0.75000   0.00000  Uiso   1.00
Cu982  Cu    0.88022   0.50001   0.75000   0.00000  Uiso   1.00
F983   F     0.91873   0.37410   0.74414   0.00000  Uiso   1.00
F984   F     0.93361   0.54453   0.82168   0.00000  Uiso   1.00
F985   F     0.73336   0.45678   0.67707   0.00000  Uiso   1.00
F986   F     0.98032   0.51509   0.98315   0.00000  Uiso   1.00
F987   F     0.78956   0.50864   0.59260   0.00000  Uiso   1.00
F988   F     0.71021   0.47343   0.90623   0.00000  Uiso   1.00
F989   F     0.75310   0.45204   0.56178   0.00000  Uiso   1.00
F990   F     0.68735   0.44763   0.50707   0.00000  Uiso   1.00
F991   F     0.91917   0.62609   0.74387   0.00000  Uiso   1.00
H992   H     0.94952   0.51389   0.58359   0.00000  Uiso   1.00
H993   H     0.69320   0.53841   0.81556   0.00000  Uiso   1.00
H994   H     0.97334   0.46111   0.68488   0.00000  Uiso   1.00
H995   H     0.95217   0.47865   0.91392   0.00000  Uiso   1.00
H996   H     0.69877   0.41423   0.85017   0.00000  Uiso   1.00
H997   H     0.75293   0.57872   0.65123   0.00000  Uiso   1.00
H998   H     0.84945   0.37510   0.85946   0.00000  Uiso   1.00
N999   N     0.71598   0.49999   0.74999   0.00000  Uiso   1.00
N1000  N     0.95069   0.50002   0.75000   0.00000  Uiso   1.00
O1001  O     0.79375   0.56011   0.75001   0.00000  Uiso   1.00
O1002  O     0.69744   0.33714   0.81421   0.00000  Uiso   1.00
O1003  O     0.73293   0.40553   0.83463   0.00000  Uiso   1.00
O1004  O     0.70917   0.60576   0.74550   0.00000  Uiso   1.00
O1005  O     0.73213   0.66066   0.68088   0.00000  Uiso   1.00
O1006  O     0.77951   0.59250   0.66183   0.00000  Uiso   1.00
O1007  O     0.93201   0.43506   0.82092   0.00000  Uiso   1.00
O1008  O     0.91594   0.39492   0.90055   0.00000  Uiso   1.00
O1009  O     0.84450   0.40511   0.85947   0.00000  Uiso   1.00
O1010  O     0.87294   0.56012   0.75001   0.00000  Uiso   1.00
O1011  O     0.77441   0.49998   0.82549   0.00000  Uiso   1.00
O1012  O     0.85360   0.49999   0.82549   0.00000  Uiso   1.00
O1013  O     0.79373   0.43988   0.75000   0.00000  Uiso   1.00
O1014  O     0.87292   0.43989   0.75000   0.00000  Uiso   1.00
O1015  O     0.81306   0.50001   0.67451   0.00000  Uiso   1.00
O1016  O     0.89225   0.50002   0.67451   0.00000  Uiso   1.00
O1017  O     0.70709   0.39257   0.75058   0.00000  Uiso   1.00
S1018  S     0.72960   0.37207   0.78849   0.00000  Uiso   1.00
S1019  S     0.75124   0.62635   0.70724   0.00000  Uiso   1.00
S1020  S     0.89453   0.42555   0.87100   0.00000  Uiso   1.00
C1021  C     0.16756   0.91257   0.74636   0.00000  Uiso   1.00
C1022  C     0.12749   0.81573   0.90512   0.00000  Uiso   1.00
C1023  C     0.21015   0.97885   0.74488   0.00000  Uiso   1.00
C1024  C     0.14123   0.82799   0.84946   0.00000  Uiso   1.00
C1025  C     0.20956   0.68779   0.74643   0.00000  Uiso   1.00
C1026  C     0.16545   0.70906   0.75255   0.00000  Uiso   1.00
C1027  C     0.12211   0.68677   0.75550   0.00000  Uiso   1.00
C1028  C     0.12627   0.97921   0.73997   0.00000  Uiso   1.00
C1029  C     0.16828   0.95728   0.74239   0.00000  Uiso   1.00
C1030  C     0.29927   0.85523   0.78598   0.00000  Uiso   1.00
C1031  C     0.01537   0.85461   0.78645   0.00000  Uiso   1.00
C1032  C     0.14773   0.81294   0.98763   0.00000  Uiso   1.00
C1033  C     0.03420   0.81207   0.71344   0.00000  Uiso   1.00
C1034  C     0.31791   0.81189   0.71368   0.00000  Uiso   1.00
C1035  C     0.16605   0.75393   0.75181   0.00000  Uiso   1.00
C1036  C     0.19224   0.83522   0.65007   0.00000  Uiso   1.00
C1037  C     0.26743   0.83914   0.51069   0.00000  Uiso   1.00
C1038  C     0.20599   0.83651   0.59321   0.00000  Uiso   1.00
C1039  C     0.07854   0.80709   0.93152   0.00000  Uiso   1.00
C1040  C     0.06585   0.79593   0.98380   0.00000  Uiso   1.00
C1041  C     0.09954   0.79984   0.51236   0.00000  Uiso   1.00
C1042  C     0.16296   0.81191   0.93299   0.00000  Uiso   1.00
C1043  C     0.18271   0.82364   0.51412   0.00000  Uiso   1.00
C1044  C     0.23255   0.82741   0.98562   0.00000  Uiso   1.00
C1045  C     0.24719   0.81614   0.93352   0.00000  Uiso   1.00
C1046  C     0.21258   0.80340   0.90923   0.00000  Uiso   1.00
C1047  C     0.16979   0.83280   0.56718   0.00000  Uiso   1.00
C1048  C     0.25475   0.84122   0.56451   0.00000  Uiso   1.00
Cu1049 Cu    0.11978   0.83333   0.75000   0.00000  Uiso   1.00
Cu1050 Cu    0.21355   0.83334   0.75000   0.00000  Uiso   1.00
F1051  F     0.25206   0.70744   0.74414   0.00000  Uiso   1.00
F1052  F     0.26694   0.87787   0.82168   0.00000  Uiso   1.00
F1053  F     0.06669   0.79012   0.67707   0.00000  Uiso   1.00
F1054  F     0.31365   0.84843   0.98315   0.00000  Uiso   1.00
F1055  F     0.12289   0.84197   0.59260   0.00000  Uiso   1.00
F1056  F     0.04354   0.80677   0.90623   0.00000  Uiso   1.00
F1057  F     0.08644   0.78537   0.56178   0.00000  Uiso   1.00
F1058  F     0.02068   0.78096   0.50707   0.00000  Uiso   1.00
F1059  F     0.25251   0.95943   0.74387   0.00000  Uiso   1.00
H1060  H     0.28285   0.84722   0.58359   0.00000  Uiso   1.00
H1061  H     0.02654   0.87174   0.81556   0.00000  Uiso   1.00
H1062  H     0.30667   0.79444   0.68488   0.00000  Uiso   1.00
H1063  H     0.28550   0.81199   0.91392   0.00000  Uiso   1.00
H1064  H     0.03210   0.74756   0.85017   0.00000  Uiso   1.00
H1065  H     0.08626   0.91205   0.65123   0.00000  Uiso   1.00
H1066  H     0.18278   0.70843   0.85946   0.00000  Uiso   1.00
N1067  N     0.04931   0.83332   0.74999   0.00000  Uiso   1.00
N1068  N     0.28402   0.83335   0.75000   0.00000  Uiso   1.00
O1069  O     0.12708   0.89345   0.75001   0.00000  Uiso   1.00
O1070  O     0.03077   0.67047   0.81421   0.00000  Uiso   1.00
O1071  O     0.06626   0.73886   0.83463   0.00000  Uiso   1.00
O1072  O     0.04251   0.93909   0.74550   0.00000  Uiso   1.00
O1073  O     0.06546   0.99399   0.68088   0.00000  Uiso   1.00
O1074  O     0.11285   0.92583   0.66183   0.00000  Uiso   1.00
O1075  O     0.26535   0.76840   0.82092   0.00000  Uiso   1.00
O1076  O     0.24927   0.72825   0.90055   0.00000  Uiso   1.00
O1077  O     0.17783   0.73844   0.85947   0.00000  Uiso   1.00
O1078  O     0.20627   0.89346   0.75001   0.00000  Uiso   1.00
O1079  O     0.10775   0.83332   0.82549   0.00000  Uiso   1.00
O1080  O     0.18694   0.83333   0.82549   0.00000  Uiso   1.00
O1081  O     0.12706   0.77321   0.75000   0.00000  Uiso   1.00
O1082  O     0.20625   0.77322   0.75000   0.00000  Uiso   1.00
O1083  O     0.14640   0.83334   0.67451   0.00000  Uiso   1.00
O1084  O     0.22559   0.83335   0.67451   0.00000  Uiso   1.00
O1085  O     0.04042   0.72591   0.75058   0.00000  Uiso   1.00
S1086  S     0.06293   0.70540   0.78849   0.00000  Uiso   1.00
S1087  S     0.08457   0.95968   0.70724   0.00000  Uiso   1.00
S1088  S     0.22786   0.75889   0.87100   0.00000  Uiso   1.00
C1089  C     0.50089   0.91257   0.74636   0.00000  Uiso   1.00
C1090  C     0.46082   0.81573   0.90512   0.00000  Uiso   1.00
C1091  C     0.54348   0.97885   0.74488   0.00000  Uiso   1.00
C1092  C     0.47457   0.82799   0.84946   0.00000  Uiso   1.00
C1093  C     0.54289   0.68779   0.74643   0.00000  Uiso   1.00
C1094  C     0.49878   0.70906   0.75255   0.00000  Uiso   1.00
C1095  C     0.45544   0.68677   0.75550   0.00000  Uiso   1.00
C1096  C     0.45960   0.97921   0.73997   0.00000  Uiso   1.00
C1097  C     0.50162   0.95728   0.74239   0.00000  Uiso   1.00
C1098  C     0.63260   0.85523   0.78598   0.00000  Uiso   1.00
C1099  C     0.34870   0.85461   0.78645   0.00000  Uiso   1.00
C1100  C     0.48107   0.81294   0.98763   0.00000  Uiso   1.00
C1101  C     0.36754   0.81207   0.71344   0.00000  Uiso   1.00
C1102  C     0.65124   0.81189   0.71368   0.00000  Uiso   1.00
C1103  C     0.49938   0.75393   0.75181   0.00000  Uiso   1.00
C1104  C     0.52557   0.83522   0.65007   0.00000  Uiso   1.00
C1105  C     0.60076   0.83914   0.51069   0.00000  Uiso   1.00
C1106  C     0.53933   0.83651   0.59321   0.00000  Uiso   1.00
C1107  C     0.41187   0.80709   0.93152   0.00000  Uiso   1.00
C1108  C     0.39918   0.79593   0.98380   0.00000  Uiso   1.00
C1109  C     0.43288   0.79984   0.51236   0.00000  Uiso   1.00
C1110  C     0.49630   0.81191   0.93299   0.00000  Uiso   1.00
C1111  C     0.51605   0.82364   0.51412   0.00000  Uiso   1.00
C1112  C     0.56589   0.82741   0.98562   0.00000  Uiso   1.00
C1113  C     0.58052   0.81614   0.93352   0.00000  Uiso   1.00
C1114  C     0.54592   0.80340   0.90923   0.00000  Uiso   1.00
C1115  C     0.50313   0.83280   0.56718   0.00000  Uiso   1.00
C1116  C     0.58809   0.84122   0.56451   0.00000  Uiso   1.00
Cu1117 Cu    0.45311   0.83333   0.75000   0.00000  Uiso   1.00
Cu1118 Cu    0.54689   0.83334   0.75000   0.00000  Uiso   1.00
F1119  F     0.58540   0.70744   0.74414   0.00000  Uiso   1.00
F1120  F     0.60027   0.87787   0.82168   0.00000  Uiso   1.00
F1121  F     0.40003   0.79012   0.67707   0.00000  Uiso   1.00
F1122  F     0.64699   0.84843   0.98315   0.00000  Uiso   1.00
F1123  F     0.45623   0.84197   0.59260   0.00000  Uiso   1.00
F1124  F     0.37687   0.80677   0.90623   0.00000  Uiso   1.00
F1125  F     0.41977   0.78537   0.56178   0.00000  Uiso   1.00
F1126  F     0.35401   0.78096   0.50707   0.00000  Uiso   1.00
F1127  F     0.58584   0.95943   0.74387   0.00000  Uiso   1.00
H1128  H     0.61619   0.84722   0.58359   0.00000  Uiso   1.00
H1129  H     0.35987   0.87174   0.81556   0.00000  Uiso   1.00
H1130  H     0.64000   0.79444   0.68488   0.00000  Uiso   1.00
H1131  H     0.61883   0.81199   0.91392   0.00000  Uiso   1.00
H1132  H     0.36543   0.74756   0.85017   0.00000  Uiso   1.00
H1133  H     0.41959   0.91205   0.65123   0.00000  Uiso   1.00
H1134  H     0.51611   0.70843   0.85946   0.00000  Uiso   1.00
N1135  N     0.38265   0.83332   0.74999   0.00000  Uiso   1.00
N1136  N     0.61735   0.83335   0.75000   0.00000  Uiso   1.00
O1137  O     0.46042   0.89345   0.75001   0.00000  Uiso   1.00
O1138  O     0.36410   0.67047   0.81421   0.00000  Uiso   1.00
O1139  O     0.39960   0.73886   0.83463   0.00000  Uiso   1.00
O1140  O     0.37584   0.93909   0.74550   0.00000  Uiso   1.00
O1141  O     0.39880   0.99399   0.68088   0.00000  Uiso   1.00
O1142  O     0.44618   0.92583   0.66183   0.00000  Uiso   1.00
O1143  O     0.59868   0.76840   0.82092   0.00000  Uiso   1.00
O1144  O     0.58260   0.72825   0.90055   0.00000  Uiso   1.00
O1145  O     0.51117   0.73844   0.85947   0.00000  Uiso   1.00
O1146  O     0.53961   0.89346   0.75001   0.00000  Uiso   1.00
O1147  O     0.44108   0.83332   0.82549   0.00000  Uiso   1.00
O1148  O     0.52027   0.83333   0.82549   0.00000  Uiso   1.00
O1149  O     0.46039   0.77321   0.75000   0.00000  Uiso   1.00
O1150  O     0.53958   0.77322   0.75000   0.00000  Uiso   1.00
O1151  O     0.47973   0.83334   0.67451   0.00000  Uiso   1.00
O1152  O     0.55892   0.83335   0.67451   0.00000  Uiso   1.00
O1153  O     0.37375   0.72591   0.75058   0.00000  Uiso   1.00
S1154  S     0.39627   0.70540   0.78849   0.00000  Uiso   1.00
S1155  S     0.41791   0.95968   0.70724   0.00000  Uiso   1.00
S1156  S     0.56119   0.75889   0.87100   0.00000  Uiso   1.00
C1157  C     0.83422   0.91257   0.74636   0.00000  Uiso   1.00
C1158  C     0.79416   0.81573   0.90512   0.00000  Uiso   1.00
C1159  C     0.87682   0.97885   0.74488   0.00000  Uiso   1.00
C1160  C     0.80790   0.82799   0.84946   0.00000  Uiso   1.00
C1161  C     0.87623   0.68779   0.74643   0.00000  Uiso   1.00
C1162  C     0.83212   0.70906   0.75255   0.00000  Uiso   1.00
C1163  C     0.78877   0.68677   0.75550   0.00000  Uiso   1.00
C1164  C     0.79293   0.97921   0.73997   0.00000  Uiso   1.00
C1165  C     0.83495   0.95728   0.74239   0.00000  Uiso   1.00
C1166  C     0.96593   0.85523   0.78598   0.00000  Uiso   1.00
C1167  C     0.68204   0.85461   0.78645   0.00000  Uiso   1.00
C1168  C     0.81440   0.81294   0.98763   0.00000  Uiso   1.00
C1169  C     0.70087   0.81207   0.71344   0.00000  Uiso   1.00
C1170  C     0.98458   0.81189   0.71368   0.00000  Uiso   1.00
C1171  C     0.83272   0.75393   0.75181   0.00000  Uiso   1.00
C1172  C     0.85890   0.83522   0.65007   0.00000  Uiso   1.00
C1173  C     0.93410   0.83914   0.51069   0.00000  Uiso   1.00
C1174  C     0.87266   0.83651   0.59321   0.00000  Uiso   1.00
C1175  C     0.74520   0.80709   0.93152   0.00000  Uiso   1.00
C1176  C     0.73252   0.79593   0.98380   0.00000  Uiso   1.00
C1177  C     0.76621   0.79984   0.51236   0.00000  Uiso   1.00
C1178  C     0.82963   0.81191   0.93299   0.00000  Uiso   1.00
C1179  C     0.84938   0.82364   0.51412   0.00000  Uiso   1.00
C1180  C     0.89922   0.82741   0.98562   0.00000  Uiso   1.00
C1181  C     0.91386   0.81614   0.93352   0.00000  Uiso   1.00
C1182  C     0.87925   0.80340   0.90923   0.00000  Uiso   1.00
C1183  C     0.83646   0.83280   0.56718   0.00000  Uiso   1.00
C1184  C     0.92142   0.84122   0.56451   0.00000  Uiso   1.00
Cu1185 Cu    0.78645   0.83333   0.75000   0.00000  Uiso   1.00
Cu1186 Cu    0.88022   0.83334   0.75000   0.00000  Uiso   1.00
F1187  F     0.91873   0.70744   0.74414   0.00000  Uiso   1.00
F1188  F     0.93361   0.87787   0.82168   0.00000  Uiso   1.00
F1189  F     0.73336   0.79012   0.67707   0.00000  Uiso   1.00
F1190  F     0.98032   0.84843   0.98315   0.00000  Uiso   1.00
F1191  F     0.78956   0.84197   0.59260   0.00000  Uiso   1.00
F1192  F     0.71021   0.80677   0.90623   0.00000  Uiso   1.00
F1193  F     0.75310   0.78537   0.56178   0.00000  Uiso   1.00
F1194  F     0.68735   0.78096   0.50707   0.00000  Uiso   1.00
F1195  F     0.91917   0.95943   0.74387   0.00000  Uiso   1.00
H1196  H     0.94952   0.84722   0.58359   0.00000  Uiso   1.00
H1197  H     0.69320   0.87174   0.81556   0.00000  Uiso   1.00
H1198  H     0.97334   0.79444   0.68488   0.00000  Uiso   1.00
H1199  H     0.95217   0.81199   0.91392   0.00000  Uiso   1.00
H1200  H     0.69877   0.74756   0.85017   0.00000  Uiso   1.00
H1201  H     0.75293   0.91205   0.65123   0.00000  Uiso   1.00
H1202  H     0.84945   0.70843   0.85946   0.00000  Uiso   1.00
N1203  N     0.71598   0.83332   0.74999   0.00000  Uiso   1.00
N1204  N     0.95069   0.83335   0.75000   0.00000  Uiso   1.00
O1205  O     0.79375   0.89345   0.75001   0.00000  Uiso   1.00
O1206  O     0.69744   0.67047   0.81421   0.00000  Uiso   1.00
O1207  O     0.73293   0.73886   0.83463   0.00000  Uiso   1.00
O1208  O     0.70917   0.93909   0.74550   0.00000  Uiso   1.00
O1209  O     0.73213   0.99399   0.68088   0.00000  Uiso   1.00
O1210  O     0.77951   0.92583   0.66183   0.00000  Uiso   1.00
O1211  O     0.93201   0.76840   0.82092   0.00000  Uiso   1.00
O1212  O     0.91594   0.72825   0.90055   0.00000  Uiso   1.00
O1213  O     0.84450   0.73844   0.85947   0.00000  Uiso   1.00
O1214  O     0.87294   0.89346   0.75001   0.00000  Uiso   1.00
O1215  O     0.77441   0.83332   0.82549   0.00000  Uiso   1.00
O1216  O     0.85360   0.83333   0.82549   0.00000  Uiso   1.00
O1217  O     0.79373   0.77321   0.75000   0.00000  Uiso   1.00
O1218  O     0.87292   0.77322   0.75000   0.00000  Uiso   1.00
O1219  O     0.81306   0.83334   0.67451   0.00000  Uiso   1.00
O1220  O     0.89225   0.83335   0.67451   0.00000  Uiso   1.00
O1221  O     0.70709   0.72591   0.75058   0.00000  Uiso   1.00
S1222  S     0.72960   0.70540   0.78849   0.00000  Uiso   1.00
S1223  S     0.75124   0.95968   0.70724   0.00000  Uiso   1.00
S1224  S     0.89453   0.75889   0.87100   0.00000  Uiso   1.00
loop_
_geom_bond_atom_site_label_1
_geom_bond_atom_site_label_2
_geom_bond_distance
_geom_bond_site_symmetry_2
_ccdc_geom_bond_type
C1     O58     1.296   .     A
C1     C9      1.463   .     S
C1     O49     1.292   .     A
C2     C22     1.421   .     A
C2     C4      1.488   .     S
C2     C19     1.408   .     A
C3     C9      1.405   .     A
C3     F39     1.359   .     S
C3     C209    1.381   .     S
C4     O60     1.295   .     A
C4     O59     1.303   .     A
C5     C6      1.407   .     A
C5     F31     1.358   .     S
C5     C411    1.381   1_545 S
C6     C7      1.418   .     A
C6     C15     1.466   .     S
C7     S66     1.784   .     S
C7     C416    1.397   1_545 S
C8     S67     1.784   .     S
C8     C9      1.413   .     A
C8     C211    1.397   .     S
C10    N48     1.370   .     A
C10    F32     1.355   .     S
C10    C79     1.415   .     S
C11    N47     1.365   .     A
C11    H41     1.082   .     S
C11    C146    1.415   1_455 S
C12    C22     1.410   .     A
C12    C633    1.416   .     S
C12    C635    1.422   .     S
C13    F33     1.354   .     S
C13    N47     1.369   .     A
C13    C150    1.414   1_455 S
C14    H42     1.082   .     S
C14    N48     1.365   .     A
C14    C81     1.414   .     S
C15    O61     1.291   .     A
C15    O62     1.298   .     A
C16    O63     1.292   .     A
C16    C18     1.467   .     S
C16    O64     1.299   .     A
C17    C28     1.391   .     A
C17    C636    1.402   1_554 S
C17    F646    1.354   1_554 S
C18    C28     1.399   .     A
C18    C27     1.405   .     A
C19    C20     1.395   .     A
C19    F36     1.355   .     S
C20    C633    1.393   .     S
C20    F650    1.356   .     S
C21    F37     1.357   .     S
C21    C632    1.393   1_554 S
C21    C624    1.416   1_554 S
C22    C26     1.411   .     A
C23    C27     1.403   .     A
C23    C624    1.422   1_554 S
C23    C636    1.421   1_554 S
C24    C25     1.396   .     A
C24    C635    1.421   .     S
C24    C629    1.402   .     S
C25    H43     1.083   .     S
C25    C26     1.391   .     A
C26    S68     1.769   .     S
C27    F35     1.357   .     S
C28    H40     1.083   .     S
Cu29   O63     1.957   .     S
Cu29   O49     1.975   .     S
Cu29   Cu30    2.676   .     S
Cu29   N47     2.011   .     S
Cu29   O61     1.975   .     S
Cu29   O59     1.960   .     S
Cu30   O64     1.960   .     S
Cu30   O58     1.975   .     S
Cu30   N48     2.011   .     S
Cu30   O62     1.975   .     S
Cu30   O60     1.957   .     S
F34    C629    1.354   .     S
F38    C632    1.356   1_554 S
H44    O51     0.990   .     S
H45    O54     0.991   .     S
H46    O57     0.990   .     S
O50    S66     1.503   .     D
O51    S66     1.680   .     S
O52    S67     1.501   .     D
O53    S67     1.503   .     D
O54    S67     1.683   .     S
O55    S68     1.498   .     D
O56    S68     1.504   .     D
O57    S68     1.682   .     S
O65    S66     1.501   .     D
C69    O126    1.296   .     A
C69    C77     1.463   .     S
C69    O117    1.292   .     A
C70    C90     1.421   .     A
C70    C72     1.488   .     S
C70    C87     1.408   .     A
C71    C77     1.405   .     A
C71    F107    1.359   .     S
C71    C277    1.381   .     S
C72    O128    1.295   .     A
C72    O127    1.303   .     A
C73    C74     1.407   .     A
C73    F99     1.358   .     S
C73    C479    1.381   1_545 S
C74    C75     1.418   .     A
C74    C83     1.466   .     S
C75    S134    1.784   .     S
C75    C484    1.397   1_545 S
C76    S135    1.784   .     S
C76    C77     1.413   .     A
C76    C279    1.397   .     S
C78    N116    1.370   .     A
C78    F100    1.355   .     S
C78    C147    1.415   .     S
C79    N115    1.365   .     A
C79    H109    1.082   .     S
C80    C90     1.410   .     A
C80    C701    1.416   .     S
C80    C703    1.422   .     S
C81    F101    1.354   .     S
C81    N115    1.369   .     A
C82    H110    1.082   .     S
C82    N116    1.365   .     A
C82    C149    1.414   .     S
C83    O129    1.291   .     A
C83    O130    1.298   .     A
C84    O131    1.292   .     A
C84    C86     1.467   .     S
C84    O132    1.299   .     A
C85    C96     1.391   .     A
C85    C704    1.402   1_554 S
C85    F714    1.354   1_554 S
C86    C96     1.399   .     A
C86    C95     1.405   .     A
C87    C88     1.395   .     A
C87    F104    1.355   .     S
C88    C701    1.393   .     S
C88    F718    1.356   .     S
C89    F105    1.357   .     S
C89    C700    1.393   1_554 S
C89    C692    1.416   1_554 S
C90    C94     1.411   .     A
C91    C95     1.403   .     A
C91    C692    1.422   1_554 S
C91    C704    1.421   1_554 S
C92    C93     1.396   .     A
C92    C703    1.421   .     S
C92    C697    1.402   .     S
C93    H111    1.083   .     S
C93    C94     1.391   .     A
C94    S136    1.769   .     S
C95    F103    1.357   .     S
C96    H108    1.083   .     S
Cu97   O131    1.957   .     S
Cu97   O117    1.975   .     S
Cu97   Cu98    2.676   .     S
Cu97   N115    2.011   .     S
Cu97   O129    1.975   .     S
Cu97   O127    1.960   .     S
Cu98   O132    1.960   .     S
Cu98   O126    1.975   .     S
Cu98   N116    2.011   .     S
Cu98   O130    1.975   .     S
Cu98   O128    1.957   .     S
F102   C697    1.354   .     S
F106   C700    1.356   1_554 S
H112   O119    0.990   .     S
H113   O122    0.991   .     S
H114   O125    0.990   .     S
O118   S134    1.503   .     D
O119   S134    1.680   .     S
O120   S135    1.501   .     D
O121   S135    1.503   .     D
O122   S135    1.683   .     S
O123   S136    1.498   .     D
O124   S136    1.504   .     D
O125   S136    1.682   .     S
O133   S134    1.501   .     D
C137   O194    1.296   .     A
C137   C145    1.463   .     S
C137   O185    1.292   .     A
C138   C158    1.421   .     A
C138   C140    1.488   .     S
C138   C155    1.408   .     A
C139   C145    1.405   .     A
C139   F175    1.359   .     S
C139   C345    1.381   .     S
C140   O196    1.295   .     A
C140   O195    1.303   .     A
C141   C142    1.407   .     A
C141   F167    1.358   .     S
C141   C547    1.381   1_545 S
C142   C143    1.418   .     A
C142   C151    1.466   .     S
C143   S202    1.784   .     S
C143   C552    1.397   1_545 S
C144   S203    1.784   .     S
C144   C145    1.413   .     A
C144   C347    1.397   .     S
C146   N184    1.370   .     A
C146   F168    1.355   .     S
C146   C11     1.415   1_655 S
C147   N183    1.365   .     A
C147   H177    1.082   .     S
C148   C158    1.410   .     A
C148   C769    1.416   .     S
C148   C771    1.422   .     S
C149   F169    1.354   .     S
C149   N183    1.369   .     A
C150   H178    1.082   .     S
C150   N184    1.365   .     A
C150   C13     1.414   1_655 S
C151   O197    1.291   .     A
C151   O198    1.298   .     A
C152   O199    1.292   .     A
C152   C154    1.467   .     S
C152   O200    1.299   .     A
C153   C164    1.391   .     A
C153   C772    1.402   1_554 S
C153   F782    1.354   1_554 S
C154   C164    1.399   .     A
C154   C163    1.405   .     A
C155   C156    1.395   .     A
C155   F172    1.355   .     S
C156   C769    1.393   .     S
C156   F786    1.356   .     S
C157   F173    1.357   .     S
C157   C768    1.393   1_554 S
C157   C760    1.416   1_554 S
C158   C162    1.411   .     A
C159   C163    1.403   .     A
C159   C760    1.422   1_554 S
C159   C772    1.421   1_554 S
C160   C161    1.396   .     A
C160   C771    1.421   .     S
C160   C765    1.402   .     S
C161   H179    1.083   .     S
C161   C162    1.391   .     A
C162   S204    1.769   .     S
C163   F171    1.357   .     S
C164   H176    1.083   .     S
Cu165  O199    1.957   .     S
Cu165  O185    1.975   .     S
Cu165  Cu166   2.676   .     S
Cu165  N183    2.011   .     S
Cu165  O197    1.975   .     S
Cu165  O195    1.960   .     S
Cu166  O200    1.960   .     S
Cu166  O194    1.975   .     S
Cu166  N184    2.011   .     S
Cu166  O198    1.975   .     S
Cu166  O196    1.957   .     S
F170   C765    1.354   .     S
F174   C768    1.356   1_554 S
H180   O187    0.990   .     S
H181   O190    0.991   .     S
H182   O193    0.990   .     S
O186   S202    1.503   .     D
O187   S202    1.680   .     S
O188   S203    1.501   .     D
O189   S203    1.503   .     D
O190   S203    1.683   .     S
O191   S204    1.498   .     D
O192   S204    1.504   .     D
O193   S204    1.682   .     S
O201   S202    1.501   .     D
C205   O262    1.296   .     A
C205   C213    1.463   .     S
C205   O253    1.292   .     A
C206   C226    1.421   .     A
C206   C208    1.488   .     S
C206   C223    1.408   .     A
C207   C213    1.405   .     A
C207   F243    1.359   .     S
C207   C413    1.381   .     S
C208   O264    1.295   .     A
C208   O263    1.303   .     A
C209   C210    1.407   .     A
C209   F235    1.358   .     S
C210   C211    1.418   .     A
C210   C219    1.466   .     S
C211   S270    1.784   .     S
C212   S271    1.784   .     S
C212   C213    1.413   .     A
C212   C415    1.397   .     S
C214   N252    1.370   .     A
C214   F236    1.355   .     S
C214   C283    1.415   .     S
C215   N251    1.365   .     A
C215   H245    1.082   .     S
C215   C350    1.415   1_455 S
C216   C226    1.410   .     A
C216   C837    1.416   .     S
C216   C839    1.422   .     S
C217   F237    1.354   .     S
C217   N251    1.369   .     A
C217   C354    1.414   1_455 S
C218   H246    1.082   .     S
C218   N252    1.365   .     A
C218   C285    1.414   .     S
C219   O265    1.291   .     A
C219   O266    1.298   .     A
C220   O267    1.292   .     A
C220   C222    1.467   .     S
C220   O268    1.299   .     A
C221   C232    1.391   .     A
C221   C840    1.402   1_554 S
C221   F850    1.354   1_554 S
C222   C232    1.399   .     A
C222   C231    1.405   .     A
C223   C224    1.395   .     A
C223   F240    1.355   .     S
C224   C837    1.393   .     S
C224   F854    1.356   .     S
C225   F241    1.357   .     S
C225   C836    1.393   1_554 S
C225   C828    1.416   1_554 S
C226   C230    1.411   .     A
C227   C231    1.403   .     A
C227   C828    1.422   1_554 S
C227   C840    1.421   1_554 S
C228   C229    1.396   .     A
C228   C839    1.421   .     S
C228   C833    1.402   .     S
C229   H247    1.083   .     S
C229   C230    1.391   .     A
C230   S272    1.769   .     S
C231   F239    1.357   .     S
C232   H244    1.083   .     S
Cu233  O267    1.957   .     S
Cu233  O253    1.975   .     S
Cu233  Cu234   2.676   .     S
Cu233  N251    2.011   .     S
Cu233  O265    1.975   .     S
Cu233  O263    1.960   .     S
Cu234  O268    1.960   .     S
Cu234  O262    1.975   .     S
Cu234  N252    2.011   .     S
Cu234  O266    1.975   .     S
Cu234  O264    1.957   .     S
F238   C833    1.354   .     S
F242   C836    1.356   1_554 S
H248   O255    0.990   .     S
H249   O258    0.991   .     S
H250   O261    0.990   .     S
O254   S270    1.503   .     D
O255   S270    1.680   .     S
O256   S271    1.501   .     D
O257   S271    1.503   .     D
O258   S271    1.683   .     S
O259   S272    1.498   .     D
O260   S272    1.504   .     D
O261   S272    1.682   .     S
O269   S270    1.501   .     D
C273   O330    1.296   .     A
C273   C281    1.463   .     S
C273   O321    1.292   .     A
C274   C294    1.421   .     A
C274   C276    1.488   .     S
C274   C291    1.408   .     A
C275   C281    1.405   .     A
C275   F311    1.359   .     S
C275   C481    1.381   .     S
C276   O332    1.295   .     A
C276   O331    1.303   .     A
C277   C278    1.407   .     A
C277   F303    1.358   .     S
C278   C279    1.418   .     A
C278   C287    1.466   .     S
C279   S338    1.784   .     S
C280   S339    1.784   .     S
C280   C281    1.413   .     A
C280   C483    1.397   .     S
C282   N320    1.370   .     A
C282   F304    1.355   .     S
C282   C351    1.415   .     S
C283   N319    1.365   .     A
C283   H313    1.082   .     S
C284   C294    1.410   .     A
C284   C905    1.416   .     S
C284   C907    1.422   .     S
C285   F305    1.354   .     S
C285   N319    1.369   .     A
C286   H314    1.082   .     S
C286   N320    1.365   .     A
C286   C353    1.414   .     S
C287   O333    1.291   .     A
C287   O334    1.298   .     A
C288   O335    1.292   .     A
C288   C290    1.467   .     S
C288   O336    1.299   .     A
C289   C300    1.391   .     A
C289   C908    1.402   1_554 S
C289   F918    1.354   1_554 S
C290   C300    1.399   .     A
C290   C299    1.405   .     A
C291   C292    1.395   .     A
C291   F308    1.355   .     S
C292   C905    1.393   .     S
C292   F922    1.356   .     S
C293   F309    1.357   .     S
C293   C904    1.393   1_554 S
C293   C896    1.416   1_554 S
C294   C298    1.411   .     A
C295   C299    1.403   .     A
C295   C896    1.422   1_554 S
C295   C908    1.421   1_554 S
C296   C297    1.396   .     A
C296   C907    1.421   .     S
C296   C901    1.402   .     S
C297   H315    1.083   .     S
C297   C298    1.391   .     A
C298   S340    1.769   .     S
C299   F307    1.357   .     S
C300   H312    1.083   .     S
Cu301  O335    1.957   .     S
Cu301  O321    1.975   .     S
Cu301  Cu302   2.676   .     S
Cu301  N319    2.011   .     S
Cu301  O333    1.975   .     S
Cu301  O331    1.960   .     S
Cu302  O336    1.960   .     S
Cu302  O330    1.975   .     S
Cu302  N320    2.011   .     S
Cu302  O334    1.975   .     S
Cu302  O332    1.957   .     S
F306   C901    1.354   .     S
F310   C904    1.356   1_554 S
H316   O323    0.990   .     S
H317   O326    0.991   .     S
H318   O329    0.990   .     S
O322   S338    1.503   .     D
O323   S338    1.680   .     S
O324   S339    1.501   .     D
O325   S339    1.503   .     D
O326   S339    1.683   .     S
O327   S340    1.498   .     D
O328   S340    1.504   .     D
O329   S340    1.682   .     S
O337   S338    1.501   .     D
C341   O398    1.296   .     A
C341   C349    1.463   .     S
C341   O389    1.292   .     A
C342   C362    1.421   .     A
C342   C344    1.488   .     S
C342   C359    1.408   .     A
C343   C349    1.405   .     A
C343   F379    1.359   .     S
C343   C549    1.381   .     S
C344   O400    1.295   .     A
C344   O399    1.303   .     A
C345   C346    1.407   .     A
C345   F371    1.358   .     S
C346   C347    1.418   .     A
C346   C355    1.466   .     S
C347   S406    1.784   .     S
C348   S407    1.784   .     S
C348   C349    1.413   .     A
C348   C551    1.397   .     S
C350   N388    1.370   .     A
C350   F372    1.355   .     S
C350   C215    1.415   1_655 S
C351   N387    1.365   .     A
C351   H381    1.082   .     S
C352   C362    1.410   .     A
C352   C973    1.416   .     S
C352   C975    1.422   .     S
C353   F373    1.354   .     S
C353   N387    1.369   .     A
C354   H382    1.082   .     S
C354   N388    1.365   .     A
C354   C217    1.414   1_655 S
C355   O401    1.291   .     A
C355   O402    1.298   .     A
C356   O403    1.292   .     A
C356   C358    1.467   .     S
C356   O404    1.299   .     A
C357   C368    1.391   .     A
C357   C976    1.402   1_554 S
C357   F986    1.354   1_554 S
C358   C368    1.399   .     A
C358   C367    1.405   .     A
C359   C360    1.395   .     A
C359   F376    1.355   .     S
C360   C973    1.393   .     S
C360   F990    1.356   .     S
C361   F377    1.357   .     S
C361   C972    1.393   1_554 S
C361   C964    1.416   1_554 S
C362   C366    1.411   .     A
C363   C367    1.403   .     A
C363   C964    1.422   1_554 S
C363   C976    1.421   1_554 S
C364   C365    1.396   .     A
C364   C975    1.421   .     S
C364   C969    1.402   .     S
C365   H383    1.083   .     S
C365   C366    1.391   .     A
C366   S408    1.769   .     S
C367   F375    1.357   .     S
C368   H380    1.083   .     S
Cu369  O403    1.957   .     S
Cu369  O389    1.975   .     S
Cu369  Cu370   2.676   .     S
Cu369  N387    2.011   .     S
Cu369  O401    1.975   .     S
Cu369  O399    1.960   .     S
Cu370  O404    1.960   .     S
Cu370  O398    1.975   .     S
Cu370  N388    2.011   .     S
Cu370  O402    1.975   .     S
Cu370  O400    1.957   .     S
F374   C969    1.354   .     S
F378   C972    1.356   1_554 S
H384   O391    0.990   .     S
H385   O394    0.991   .     S
H386   O397    0.990   .     S
O390   S406    1.503   .     D
O391   S406    1.680   .     S
O392   S407    1.501   .     D
O393   S407    1.503   .     D
O394   S407    1.683   .     S
O395   S408    1.498   .     D
O396   S408    1.504   .     D
O397   S408    1.682   .     S
O405   S406    1.501   .     D
C409   O466    1.296   .     A
C409   C417    1.463   .     S
C409   O457    1.292   .     A
C410   C430    1.421   .     A
C410   C412    1.488   .     S
C410   C427    1.408   .     A
C411   C417    1.405   .     A
C411   F447    1.359   .     S
C411   C5      1.381   1_565 S
C412   O468    1.295   .     A
C412   O467    1.303   .     A
C413   C414    1.407   .     A
C413   F439    1.358   .     S
C414   C415    1.418   .     A
C414   C423    1.466   .     S
C415   S474    1.784   .     S
C416   S475    1.784   .     S
C416   C417    1.413   .     A
C416   C7      1.397   1_565 S
C418   N456    1.370   .     A
C418   F440    1.355   .     S
C418   C487    1.415   .     S
C419   N455    1.365   .     A
C419   H449    1.082   .     S
C419   C554    1.415   1_455 S
C420   C430    1.410   .     A
C420   C1041   1.416   .     S
C420   C1043   1.422   .     S
C421   F441    1.354   .     S
C421   N455    1.369   .     A
C421   C558    1.414   1_455 S
C422   H450    1.082   .     S
C422   N456    1.365   .     A
C422   C489    1.414   .     S
C423   O469    1.291   .     A
C423   O470    1.298   .     A
C424   O471    1.292   .     A
C424   C426    1.467   .     S
C424   O472    1.299   .     A
C425   C436    1.391   .     A
C425   C1044   1.402   1_554 S
C425   F1054   1.354   1_554 S
C426   C436    1.399   .     A
C426   C435    1.405   .     A
C427   C428    1.395   .     A
C427   F444    1.355   .     S
C428   C1041   1.393   .     S
C428   F1058   1.356   .     S
C429   F445    1.357   .     S
C429   C1040   1.393   1_554 S
C429   C1032   1.416   1_554 S
C430   C434    1.411   .     A
C431   C435    1.403   .     A
C431   C1032   1.422   1_554 S
C431   C1044   1.421   1_554 S
C432   C433    1.396   .     A
C432   C1043   1.421   .     S
C432   C1037   1.402   .     S
C433   H451    1.083   .     S
C433   C434    1.391   .     A
C434   S476    1.769   .     S
C435   F443    1.357   .     S
C436   H448    1.083   .     S
Cu437  O471    1.957   .     S
Cu437  O457    1.975   .     S
Cu437  Cu438   2.676   .     S
Cu437  N455    2.011   .     S
Cu437  O469    1.975   .     S
Cu437  O467    1.960   .     S
Cu438  O472    1.960   .     S
Cu438  O466    1.975   .     S
Cu438  N456    2.011   .     S
Cu438  O470    1.975   .     S
Cu438  O468    1.957   .     S
F442   C1037   1.354   .     S
F446   C1040   1.356   1_554 S
H452   O459    0.990   .     S
H453   O462    0.991   .     S
H454   O465    0.990   .     S
O458   S474    1.503   .     D
O459   S474    1.680   .     S
O460   S475    1.501   .     D
O461   S475    1.503   .     D
O462   S475    1.683   .     S
O463   S476    1.498   .     D
O464   S476    1.504   .     D
O465   S476    1.682   .     S
O473   S474    1.501   .     D
C477   O534    1.296   .     A
C477   C485    1.463   .     S
C477   O525    1.292   .     A
C478   C498    1.421   .     A
C478   C480    1.488   .     S
C478   C495    1.408   .     A
C479   C485    1.405   .     A
C479   F515    1.359   .     S
C479   C73     1.381   1_565 S
C480   O536    1.295   .     A
C480   O535    1.303   .     A
C481   C482    1.407   .     A
C481   F507    1.358   .     S
C482   C483    1.418   .     A
C482   C491    1.466   .     S
C483   S542    1.784   .     S
C484   S543    1.784   .     S
C484   C485    1.413   .     A
C484   C75     1.397   1_565 S
C486   N524    1.370   .     A
C486   F508    1.355   .     S
C486   C555    1.415   .     S
C487   N523    1.365   .     A
C487   H517    1.082   .     S
C488   C498    1.410   .     A
C488   C1109   1.416   .     S
C488   C1111   1.422   .     S
C489   F509    1.354   .     S
C489   N523    1.369   .     A
C490   H518    1.082   .     S
C490   N524    1.365   .     A
C490   C557    1.414   .     S
C491   O537    1.291   .     A
C491   O538    1.298   .     A
C492   O539    1.292   .     A
C492   C494    1.467   .     S
C492   O540    1.299   .     A
C493   C504    1.391   .     A
C493   C1112   1.402   1_554 S
C493   F1122   1.354   1_554 S
C494   C504    1.399   .     A
C494   C503    1.405   .     A
C495   C496    1.395   .     A
C495   F512    1.355   .     S
C496   C1109   1.393   .     S
C496   F1126   1.356   .     S
C497   F513    1.357   .     S
C497   C1108   1.393   1_554 S
C497   C1100   1.416   1_554 S
C498   C502    1.411   .     A
C499   C503    1.403   .     A
C499   C1100   1.422   1_554 S
C499   C1112   1.421   1_554 S
C500   C501    1.396   .     A
C500   C1111   1.421   .     S
C500   C1105   1.402   .     S
C501   H519    1.083   .     S
C501   C502    1.391   .     A
C502   S544    1.769   .     S
C503   F511    1.357   .     S
C504   H516    1.083   .     S
Cu505  O539    1.957   .     S
Cu505  O525    1.975   .     S
Cu505  Cu506   2.676   .     S
Cu505  N523    2.011   .     S
Cu505  O537    1.975   .     S
Cu505  O535    1.960   .     S
Cu506  O540    1.960   .     S
Cu506  O534    1.975   .     S
Cu506  N524    2.011   .     S
Cu506  O538    1.975   .     S
Cu506  O536    1.957   .     S
F510   C1105   1.354   .     S
F514   C1108   1.356   1_554 S
H520   O527    0.990   .     S
H521   O530    0.991   .     S
H522   O533    0.990   .     S
O526   S542    1.503   .     D
O527   S542    1.680   .     S
O528   S543    1.501   .     D
O529   S543    1.503   .     D
O530   S543    1.683   .     S
O531   S544    1.498   .     D
O532   S544    1.504   .     D
O533   S544    1.682   .     S
O541   S542    1.501   .     D
C545   O602    1.296   .     A
C545   C553    1.463   .     S
C545   O593    1.292   .     A
C546   C566    1.421   .     A
C546   C548    1.488   .     S
C546   C563    1.408   .     A
C547   C553    1.405   .     A
C547   F583    1.359   .     S
C547   C141    1.381   1_565 S
C548   O604    1.295   .     A
C548   O603    1.303   .     A
C549   C550    1.407   .     A
C549   F575    1.358   .     S
C550   C551    1.418   .     A
C550   C559    1.466   .     S
C551   S610    1.784   .     S
C552   S611    1.784   .     S
C552   C553    1.413   .     A
C552   C143    1.397   1_565 S
C554   N592    1.370   .     A
C554   F576    1.355   .     S
C554   C419    1.415   1_655 S
C555   N591    1.365   .     A
C555   H585    1.082   .     S
C556   C566    1.410   .     A
C556   C1177   1.416   .     S
C556   C1179   1.422   .     S
C557   F577    1.354   .     S
C557   N591    1.369   .     A
C558   H586    1.082   .     S
C558   N592    1.365   .     A
C558   C421    1.414   1_655 S
C559   O605    1.291   .     A
C559   O606    1.298   .     A
C560   O607    1.292   .     A
C560   C562    1.467   .     S
C560   O608    1.299   .     A
C561   C572    1.391   .     A
C561   C1180   1.402   1_554 S
C561   F1190   1.354   1_554 S
C562   C572    1.399   .     A
C562   C571    1.405   .     A
C563   C564    1.395   .     A
C563   F580    1.355   .     S
C564   C1177   1.393   .     S
C564   F1194   1.356   .     S
C565   F581    1.357   .     S
C565   C1176   1.393   1_554 S
C565   C1168   1.416   1_554 S
C566   C570    1.411   .     A
C567   C571    1.403   .     A
C567   C1168   1.422   1_554 S
C567   C1180   1.421   1_554 S
C568   C569    1.396   .     A
C568   C1179   1.421   .     S
C568   C1173   1.402   .     S
C569   H587    1.083   .     S
C569   C570    1.391   .     A
C570   S612    1.769   .     S
C571   F579    1.357   .     S
C572   H584    1.083   .     S
Cu573  O607    1.957   .     S
Cu573  O593    1.975   .     S
Cu573  Cu574   2.676   .     S
Cu573  N591    2.011   .     S
Cu573  O605    1.975   .     S
Cu573  O603    1.960   .     S
Cu574  O608    1.960   .     S
Cu574  O602    1.975   .     S
Cu574  N592    2.011   .     S
Cu574  O606    1.975   .     S
Cu574  O604    1.957   .     S
F578   C1173   1.354   .     S
F582   C1176   1.356   1_554 S
H588   O595    0.990   .     S
H589   O598    0.991   .     S
H590   O601    0.990   .     S
O594   S610    1.503   .     D
O595   S610    1.680   .     S
O596   S611    1.501   .     D
O597   S611    1.503   .     D
O598   S611    1.683   .     S
O599   S612    1.498   .     D
O600   S612    1.504   .     D
O601   S612    1.682   .     S
O609   S610    1.501   .     D
C613   O670    1.296   .     A
C613   C621    1.463   .     S
C613   O661    1.292   .     A
C614   C634    1.421   .     A
C614   C616    1.488   .     S
C614   C631    1.408   .     A
C615   C621    1.405   .     A
C615   F651    1.359   .     S
C615   C821    1.381   .     S
C616   O672    1.295   .     A
C616   O671    1.303   .     A
C617   C618    1.407   .     A
C617   F643    1.358   .     S
C617   C1023   1.381   1_545 S
C618   C619    1.418   .     A
C618   C627    1.466   .     S
C619   S678    1.784   .     S
C619   C1028   1.397   1_545 S
C620   S679    1.784   .     S
C620   C621    1.413   .     A
C620   C823    1.397   .     S
C622   N660    1.370   .     A
C622   F644    1.355   .     S
C622   C691    1.415   .     S
C623   N659    1.365   .     A
C623   H653    1.082   .     S
C623   C758    1.415   1_455 S
C624   C634    1.410   .     A
C624   C21     1.416   1_556 S
C624   C23     1.422   1_556 S
C625   F645    1.354   .     S
C625   N659    1.369   .     A
C625   C762    1.414   1_455 S
C626   H654    1.082   .     S
C626   N660    1.365   .     A
C626   C693    1.414   .     S
C627   O673    1.291   .     A
C627   O674    1.298   .     A
C628   O675    1.292   .     A
C628   C630    1.467   .     S
C628   O676    1.299   .     A
C629   C640    1.391   .     A
C630   C640    1.399   .     A
C630   C639    1.405   .     A
C631   C632    1.395   .     A
C631   F648    1.355   .     S
C632   C21     1.393   1_556 S
C632   F38     1.356   1_556 S
C633   F649    1.357   .     S
C634   C638    1.411   .     A
C635   C639    1.403   .     A
C636   C637    1.396   .     A
C636   C23     1.421   1_556 S
C636   C17     1.402   1_556 S
C637   H655    1.083   .     S
C637   C638    1.391   .     A
C638   S680    1.769   .     S
C639   F647    1.357   .     S
C640   H652    1.083   .     S
Cu641  O675    1.957   .     S
Cu641  O661    1.975   .     S
Cu641  Cu642   2.676   .     S
Cu641  N659    2.011   .     S
Cu641  O673    1.975   .     S
Cu641  O671    1.960   .     S
Cu642  O676    1.960   .     S
Cu642  O670    1.975   .     S
Cu642  N660    2.011   .     S
Cu642  O674    1.975   .     S
Cu642  O672    1.957   .     S
F646   C17     1.354   1_556 S
H656   O663    0.990   .     S
H657   O666    0.991   .     S
H658   O669    0.990   .     S
O662   S678    1.503   .     D
O663   S678    1.680   .     S
O664   S679    1.501   .     D
O665   S679    1.503   .     D
O666   S679    1.683   .     S
O667   S680    1.498   .     D
O668   S680    1.504   .     D
O669   S680    1.682   .     S
O677   S678    1.501   .     D
C681   O738    1.296   .     A
C681   C689    1.463   .     S
C681   O729    1.292   .     A
C682   C702    1.421   .     A
C682   C684    1.488   .     S
C682   C699    1.408   .     A
C683   C689    1.405   .     A
C683   F719    1.359   .     S
C683   C889    1.381   .     S
C684   O740    1.295   .     A
C684   O739    1.303   .     A
C685   C686    1.407   .     A
C685   F711    1.358   .     S
C685   C1091   1.381   1_545 S
C686   C687    1.418   .     A
C686   C695    1.466   .     S
C687   S746    1.784   .     S
C687   C1096   1.397   1_545 S
C688   S747    1.784   .     S
C688   C689    1.413   .     A
C688   C891    1.397   .     S
C690   N728    1.370   .     A
C690   F712    1.355   .     S
C690   C759    1.415   .     S
C691   N727    1.365   .     A
C691   H721    1.082   .     S
C692   C702    1.410   .     A
C692   C89     1.416   1_556 S
C692   C91     1.422   1_556 S
C693   F713    1.354   .     S
C693   N727    1.369   .     A
C694   H722    1.082   .     S
C694   N728    1.365   .     A
C694   C761    1.414   .     S
C695   O741    1.291   .     A
C695   O742    1.298   .     A
C696   O743    1.292   .     A
C696   C698    1.467   .     S
C696   O744    1.299   .     A
C697   C708    1.391   .     A
C698   C708    1.399   .     A
C698   C707    1.405   .     A
C699   C700    1.395   .     A
C699   F716    1.355   .     S
C700   C89     1.393   1_556 S
C700   F106    1.356   1_556 S
C701   F717    1.357   .     S
C702   C706    1.411   .     A
C703   C707    1.403   .     A
C704   C705    1.396   .     A
C704   C91     1.421   1_556 S
C704   C85     1.402   1_556 S
C705   H723    1.083   .     S
C705   C706    1.391   .     A
C706   S748    1.769   .     S
C707   F715    1.357   .     S
C708   H720    1.083   .     S
Cu709  O743    1.957   .     S
Cu709  O729    1.975   .     S
Cu709  Cu710   2.676   .     S
Cu709  N727    2.011   .     S
Cu709  O741    1.975   .     S
Cu709  O739    1.960   .     S
Cu710  O744    1.960   .     S
Cu710  O738    1.975   .     S
Cu710  N728    2.011   .     S
Cu710  O742    1.975   .     S
Cu710  O740    1.957   .     S
F714   C85     1.354   1_556 S
H724   O731    0.990   .     S
H725   O734    0.991   .     S
H726   O737    0.990   .     S
O730   S746    1.503   .     D
O731   S746    1.680   .     S
O732   S747    1.501   .     D
O733   S747    1.503   .     D
O734   S747    1.683   .     S
O735   S748    1.498   .     D
O736   S748    1.504   .     D
O737   S748    1.682   .     S
O745   S746    1.501   .     D
C749   O806    1.296   .     A
C749   C757    1.463   .     S
C749   O797    1.292   .     A
C750   C770    1.421   .     A
C750   C752    1.488   .     S
C750   C767    1.408   .     A
C751   C757    1.405   .     A
C751   F787    1.359   .     S
C751   C957    1.381   .     S
C752   O808    1.295   .     A
C752   O807    1.303   .     A
C753   C754    1.407   .     A
C753   F779    1.358   .     S
C753   C1159   1.381   1_545 S
C754   C755    1.418   .     A
C754   C763    1.466   .     S
C755   S814    1.784   .     S
C755   C1164   1.397   1_545 S
C756   S815    1.784   .     S
C756   C757    1.413   .     A
C756   C959    1.397   .     S
C758   N796    1.370   .     A
C758   F780    1.355   .     S
C758   C623    1.415   1_655 S
C759   N795    1.365   .     A
C759   H789    1.082   .     S
C760   C770    1.410   .     A
C760   C157    1.416   1_556 S
C760   C159    1.422   1_556 S
C761   F781    1.354   .     S
C761   N795    1.369   .     A
C762   H790    1.082   .     S
C762   N796    1.365   .     A
C762   C625    1.414   1_655 S
C763   O809    1.291   .     A
C763   O810    1.298   .     A
C764   O811    1.292   .     A
C764   C766    1.467   .     S
C764   O812    1.299   .     A
C765   C776    1.391   .     A
C766   C776    1.399   .     A
C766   C775    1.405   .     A
C767   C768    1.395   .     A
C767   F784    1.355   .     S
C768   C157    1.393   1_556 S
C768   F174    1.356   1_556 S
C769   F785    1.357   .     S
C770   C774    1.411   .     A
C771   C775    1.403   .     A
C772   C773    1.396   .     A
C772   C159    1.421   1_556 S
C772   C153    1.402   1_556 S
C773   H791    1.083   .     S
C773   C774    1.391   .     A
C774   S816    1.769   .     S
C775   F783    1.357   .     S
C776   H788    1.083   .     S
Cu777  O811    1.957   .     S
Cu777  O797    1.975   .     S
Cu777  Cu778   2.676   .     S
Cu777  N795    2.011   .     S
Cu777  O809    1.975   .     S
Cu777  O807    1.960   .     S
Cu778  O812    1.960   .     S
Cu778  O806    1.975   .     S
Cu778  N796    2.011   .     S
Cu778  O810    1.975   .     S
Cu778  O808    1.957   .     S
F782   C153    1.354   1_556 S
H792   O799    0.990   .     S
H793   O802    0.991   .     S
H794   O805    0.990   .     S
O798   S814    1.503   .     D
O799   S814    1.680   .     S
O800   S815    1.501   .     D
O801   S815    1.503   .     D
O802   S815    1.683   .     S
O803   S816    1.498   .     D
O804   S816    1.504   .     D
O805   S816    1.682   .     S
O813   S814    1.501   .     D
C817   O874    1.296   .     A
C817   C825    1.463   .     S
C817   O865    1.292   .     A
C818   C838    1.421   .     A
C818   C820    1.488   .     S
C818   C835    1.408   .     A
C819   C825    1.405   .     A
C819   F855    1.359   .     S
C819   C1025   1.381   .     S
C820   O876    1.295   .     A
C820   O875    1.303   .     A
C821   C822    1.407   .     A
C821   F847    1.358   .     S
C822   C823    1.418   .     A
C822   C831    1.466   .     S
C823   S882    1.784   .     S
C824   S883    1.784   .     S
C824   C825    1.413   .     A
C824   C1027   1.397   .     S
C826   N864    1.370   .     A
C826   F848    1.355   .     S
C826   C895    1.415   .     S
C827   N863    1.365   .     A
C827   H857    1.082   .     S
C827   C962    1.415   1_455 S
C828   C838    1.410   .     A
C828   C225    1.416   1_556 S
C828   C227    1.422   1_556 S
C829   F849    1.354   .     S
C829   N863    1.369   .     A
C829   C966    1.414   1_455 S
C830   H858    1.082   .     S
C830   N864    1.365   .     A
C830   C897    1.414   .     S
C831   O877    1.291   .     A
C831   O878    1.298   .     A
C832   O879    1.292   .     A
C832   C834    1.467   .     S
C832   O880    1.299   .     A
C833   C844    1.391   .     A
C834   C844    1.399   .     A
C834   C843    1.405   .     A
C835   C836    1.395   .     A
C835   F852    1.355   .     S
C836   C225    1.393   1_556 S
C836   F242    1.356   1_556 S
C837   F853    1.357   .     S
C838   C842    1.411   .     A
C839   C843    1.403   .     A
C840   C841    1.396   .     A
C840   C227    1.421   1_556 S
C840   C221    1.402   1_556 S
C841   H859    1.083   .     S
C841   C842    1.391   .     A
C842   S884    1.769   .     S
C843   F851    1.357   .     S
C844   H856    1.083   .     S
Cu845  O879    1.957   .     S
Cu845  O865    1.975   .     S
Cu845  Cu846   2.676   .     S
Cu845  N863    2.011   .     S
Cu845  O877    1.975   .     S
Cu845  O875    1.960   .     S
Cu846  O880    1.960   .     S
Cu846  O874    1.975   .     S
Cu846  N864    2.011   .     S
Cu846  O878    1.975   .     S
Cu846  O876    1.957   .     S
F850   C221    1.354   1_556 S
H860   O867    0.990   .     S
H861   O870    0.991   .     S
H862   O873    0.990   .     S
O866   S882    1.503   .     D
O867   S882    1.680   .     S
O868   S883    1.501   .     D
O869   S883    1.503   .     D
O870   S883    1.683   .     S
O871   S884    1.498   .     D
O872   S884    1.504   .     D
O873   S884    1.682   .     S
O881   S882    1.501   .     D
C885   O942    1.296   .     A
C885   C893    1.463   .     S
C885   O933    1.292   .     A
C886   C906    1.421   .     A
C886   C888    1.488   .     S
C886   C903    1.408   .     A
C887   C893    1.405   .     A
C887   F923    1.359   .     S
C887   C1093   1.381   .     S
C888   O944    1.295   .     A
C888   O943    1.303   .     A
C889   C890    1.407   .     A
C889   F915    1.358   .     S
C890   C891    1.418   .     A
C890   C899    1.466   .     S
C891   S950    1.784   .     S
C892   S951    1.784   .     S
C892   C893    1.413   .     A
C892   C1095   1.397   .     S
C894   N932    1.370   .     A
C894   F916    1.355   .     S
C894   C963    1.415   .     S
C895   N931    1.365   .     A
C895   H925    1.082   .     S
C896   C906    1.410   .     A
C896   C293    1.416   1_556 S
C896   C295    1.422   1_556 S
C897   F917    1.354   .     S
C897   N931    1.369   .     A
C898   H926    1.082   .     S
C898   N932    1.365   .     A
C898   C965    1.414   .     S
C899   O945    1.291   .     A
C899   O946    1.298   .     A
C900   O947    1.292   .     A
C900   C902    1.467   .     S
C900   O948    1.299   .     A
C901   C912    1.391   .     A
C902   C912    1.399   .     A
C902   C911    1.405   .     A
C903   C904    1.395   .     A
C903   F920    1.355   .     S
C904   C293    1.393   1_556 S
C904   F310    1.356   1_556 S
C905   F921    1.357   .     S
C906   C910    1.411   .     A
C907   C911    1.403   .     A
C908   C909    1.396   .     A
C908   C295    1.421   1_556 S
C908   C289    1.402   1_556 S
C909   H927    1.083   .     S
C909   C910    1.391   .     A
C910   S952    1.769   .     S
C911   F919    1.357   .     S
C912   H924    1.083   .     S
Cu913  O947    1.957   .     S
Cu913  O933    1.975   .     S
Cu913  Cu914   2.676   .     S
Cu913  N931    2.011   .     S
Cu913  O945    1.975   .     S
Cu913  O943    1.960   .     S
Cu914  O948    1.960   .     S
Cu914  O942    1.975   .     S
Cu914  N932    2.011   .     S
Cu914  O946    1.975   .     S
Cu914  O944    1.957   .     S
F918   C289    1.354   1_556 S
H928   O935    0.990   .     S
H929   O938    0.991   .     S
H930   O941    0.990   .     S
O934   S950    1.503   .     D
O935   S950    1.680   .     S
O936   S951    1.501   .     D
O937   S951    1.503   .     D
O938   S951    1.683   .     S
O939   S952    1.498   .     D
O940   S952    1.504   .     D
O941   S952    1.682   .     S
O949   S950    1.501   .     D
C953   O1010   1.296   .     A
C953   C961    1.463   .     S
C953   O1001   1.292   .     A
C954   C974    1.421   .     A
C954   C956    1.488   .     S
C954   C971    1.408   .     A
C955   C961    1.405   .     A
C955   F991    1.359   .     S
C955   C1161   1.381   .     S
C956   O1012   1.295   .     A
C956   O1011   1.303   .     A
C957   C958    1.407   .     A
C957   F983    1.358   .     S
C958   C959    1.418   .     A
C958   C967    1.466   .     S
C959   S1018   1.784   .     S
C960   S1019   1.784   .     S
C960   C961    1.413   .     A
C960   C1163   1.397   .     S
C962   N1000   1.370   .     A
C962   F984    1.355   .     S
C962   C827    1.415   1_655 S
C963   N999    1.365   .     A
C963   H993    1.082   .     S
C964   C974    1.410   .     A
C964   C361    1.416   1_556 S
C964   C363    1.422   1_556 S
C965   F985    1.354   .     S
C965   N999    1.369   .     A
C966   H994    1.082   .     S
C966   N1000   1.365   .     A
C966   C829    1.414   1_655 S
C967   O1013   1.291   .     A
C967   O1014   1.298   .     A
C968   O1015   1.292   .     A
C968   C970    1.467   .     S
C968   O1016   1.299   .     A
C969   C980    1.391   .     A
C970   C980    1.399   .     A
C970   C979    1.405   .     A
C971   C972    1.395   .     A
C971   F988    1.355   .     S
C972   C361    1.393   1_556 S
C972   F378    1.356   1_556 S
C973   F989    1.357   .     S
C974   C978    1.411   .     A
C975   C979    1.403   .     A
C976   C977    1.396   .     A
C976   C363    1.421   1_556 S
C976   C357    1.402   1_556 S
C977   H995    1.083   .     S
C977   C978    1.391   .     A
C978   S1020   1.769   .     S
C979   F987    1.357   .     S
C980   H992    1.083   .     S
Cu981  O1015   1.957   .     S
Cu981  O1001   1.975   .     S
Cu981  Cu982   2.676   .     S
Cu981  N999    2.011   .     S
Cu981  O1013   1.975   .     S
Cu981  O1011   1.960   .     S
Cu982  O1016   1.960   .     S
Cu982  O1010   1.975   .     S
Cu982  N1000   2.011   .     S
Cu982  O1014   1.975   .     S
Cu982  O1012   1.957   .     S
F986   C357    1.354   1_556 S
H996   O1003   0.990   .     S
H997   O1006   0.991   .     S
H998   O1009   0.990   .     S
O1002  S1018   1.503   .     D
O1003  S1018   1.680   .     S
O1004  S1019   1.501   .     D
O1005  S1019   1.503   .     D
O1006  S1019   1.683   .     S
O1007  S1020   1.498   .     D
O1008  S1020   1.504   .     D
O1009  S1020   1.682   .     S
O1017  S1018   1.501   .     D
C1021  O1078   1.296   .     A
C1021  C1029   1.463   .     S
C1021  O1069   1.292   .     A
C1022  C1042   1.421   .     A
C1022  C1024   1.488   .     S
C1022  C1039   1.408   .     A
C1023  C1029   1.405   .     A
C1023  F1059   1.359   .     S
C1023  C617    1.381   1_565 S
C1024  O1080   1.295   .     A
C1024  O1079   1.303   .     A
C1025  C1026   1.407   .     A
C1025  F1051   1.358   .     S
C1026  C1027   1.418   .     A
C1026  C1035   1.466   .     S
C1027  S1086   1.784   .     S
C1028  S1087   1.784   .     S
C1028  C1029   1.413   .     A
C1028  C619    1.397   1_565 S
C1030  N1068   1.370   .     A
C1030  F1052   1.355   .     S
C1030  C1099   1.415   .     S
C1031  N1067   1.365   .     A
C1031  H1061   1.082   .     S
C1031  C1166   1.415   1_455 S
C1032  C1042   1.410   .     A
C1032  C429    1.416   1_556 S
C1032  C431    1.422   1_556 S
C1033  F1053   1.354   .     S
C1033  N1067   1.369   .     A
C1033  C1170   1.414   1_455 S
C1034  H1062   1.082   .     S
C1034  N1068   1.365   .     A
C1034  C1101   1.414   .     S
C1035  O1081   1.291   .     A
C1035  O1082   1.298   .     A
C1036  O1083   1.292   .     A
C1036  C1038   1.467   .     S
C1036  O1084   1.299   .     A
C1037  C1048   1.391   .     A
C1038  C1048   1.399   .     A
C1038  C1047   1.405   .     A
C1039  C1040   1.395   .     A
C1039  F1056   1.355   .     S
C1040  C429    1.393   1_556 S
C1040  F446    1.356   1_556 S
C1041  F1057   1.357   .     S
C1042  C1046   1.411   .     A
C1043  C1047   1.403   .     A
C1044  C1045   1.396   .     A
C1044  C431    1.421   1_556 S
C1044  C425    1.402   1_556 S
C1045  H1063   1.083   .     S
C1045  C1046   1.391   .     A
C1046  S1088   1.769   .     S
C1047  F1055   1.357   .     S
C1048  H1060   1.083   .     S
Cu1049 O1083   1.957   .     S
Cu1049 O1069   1.975   .     S
Cu1049 Cu1050  2.676   .     S
Cu1049 N1067   2.011   .     S
Cu1049 O1081   1.975   .     S
Cu1049 O1079   1.960   .     S
Cu1050 O1084   1.960   .     S
Cu1050 O1078   1.975   .     S
Cu1050 N1068   2.011   .     S
Cu1050 O1082   1.975   .     S
Cu1050 O1080   1.957   .     S
F1054  C425    1.354   1_556 S
H1064  O1071   0.990   .     S
H1065  O1074   0.991   .     S
H1066  O1077   0.990   .     S
O1070  S1086   1.503   .     D
O1071  S1086   1.680   .     S
O1072  S1087   1.501   .     D
O1073  S1087   1.503   .     D
O1074  S1087   1.683   .     S
O1075  S1088   1.498   .     D
O1076  S1088   1.504   .     D
O1077  S1088   1.682   .     S
O1085  S1086   1.501   .     D
C1089  O1146   1.296   .     A
C1089  C1097   1.463   .     S
C1089  O1137   1.292   .     A
C1090  C1110   1.421   .     A
C1090  C1092   1.488   .     S
C1090  C1107   1.408   .     A
C1091  C1097   1.405   .     A
C1091  F1127   1.359   .     S
C1091  C685    1.381   1_565 S
C1092  O1148   1.295   .     A
C1092  O1147   1.303   .     A
C1093  C1094   1.407   .     A
C1093  F1119   1.358   .     S
C1094  C1095   1.418   .     A
C1094  C1103   1.466   .     S
C1095  S1154   1.784   .     S
C1096  S1155   1.784   .     S
C1096  C1097   1.413   .     A
C1096  C687    1.397   1_565 S
C1098  N1136   1.370   .     A
C1098  F1120   1.355   .     S
C1098  C1167   1.415   .     S
C1099  N1135   1.365   .     A
C1099  H1129   1.082   .     S
C1100  C1110   1.410   .     A
C1100  C497    1.416   1_556 S
C1100  C499    1.422   1_556 S
C1101  F1121   1.354   .     S
C1101  N1135   1.369   .     A
C1102  H1130   1.082   .     S
C1102  N1136   1.365   .     A
C1102  C1169   1.414   .     S
C1103  O1149   1.291   .     A
C1103  O1150   1.298   .     A
C1104  O1151   1.292   .     A
C1104  C1106   1.467   .     S
C1104  O1152   1.299   .     A
C1105  C1116   1.391   .     A
C1106  C1116   1.399   .     A
C1106  C1115   1.405   .     A
C1107  C1108   1.395   .     A
C1107  F1124   1.355   .     S
C1108  C497    1.393   1_556 S
C1108  F514    1.356   1_556 S
C1109  F1125   1.357   .     S
C1110  C1114   1.411   .     A
C1111  C1115   1.403   .     A
C1112  C1113   1.396   .     A
C1112  C499    1.421   1_556 S
C1112  C493    1.402   1_556 S
C1113  H1131   1.083   .     S
C1113  C1114   1.391   .     A
C1114  S1156   1.769   .     S
C1115  F1123   1.357   .     S
C1116  H1128   1.083   .     S
Cu1117 O1151   1.957   .     S
Cu1117 O1137   1.975   .     S
Cu1117 Cu1118  2.676   .     S
Cu1117 N1135   2.011   .     S
Cu1117 O1149   1.975   .     S
Cu1117 O1147   1.960   .     S
Cu1118 O1152   1.960   .     S
Cu1118 O1146   1.975   .     S
Cu1118 N1136   2.011   .     S
Cu1118 O1150   1.975   .     S
Cu1118 O1148   1.957   .     S
F1122  C493    1.354   1_556 S
H1132  O1139   0.990   .     S
H1133  O1142   0.991   .     S
H1134  O1145   0.990   .     S
O1138  S1154   1.503   .     D
O1139  S1154   1.680   .     S
O1140  S1155   1.501   .     D
O1141  S1155   1.503   .     D
O1142  S1155   1.683   .     S
O1143  S1156   1.498   .     D
O1144  S1156   1.504   .     D
O1145  S1156   1.682   .     S
O1153  S1154   1.501   .     D
C1157  O1214   1.296   .     A
C1157  C1165   1.463   .     S
C1157  O1205   1.292   .     A
C1158  C1178   1.421   .     A
C1158  C1160   1.488   .     S
C1158  C1175   1.408   .     A
C1159  C1165   1.405   .     A
C1159  F1195   1.359   .     S
C1159  C753    1.381   1_565 S
C1160  O1216   1.295   .     A
C1160  O1215   1.303   .     A
C1161  C1162   1.407   .     A
C1161  F1187   1.358   .     S
C1162  C1163   1.418   .     A
C1162  C1171   1.466   .     S
C1163  S1222   1.784   .     S
C1164  S1223   1.784   .     S
C1164  C1165   1.413   .     A
C1164  C755    1.397   1_565 S
C1166  N1204   1.370   .     A
C1166  F1188   1.355   .     S
C1166  C1031   1.415   1_655 S
C1167  N1203   1.365   .     A
C1167  H1197   1.082   .     S
C1168  C1178   1.410   .     A
C1168  C565    1.416   1_556 S
C1168  C567    1.422   1_556 S
C1169  F1189   1.354   .     S
C1169  N1203   1.369   .     A
C1170  H1198   1.082   .     S
C1170  N1204   1.365   .     A
C1170  C1033   1.414   1_655 S
C1171  O1217   1.291   .     A
C1171  O1218   1.298   .     A
C1172  O1219   1.292   .     A
C1172  C1174   1.467   .     S
C1172  O1220   1.299   .     A
C1173  C1184   1.391   .     A
C1174  C1184   1.399   .     A
C1174  C1183   1.405   .     A
C1175  C1176   1.395   .     A
C1175  F1192   1.355   .     S
C1176  C565    1.393   1_556 S
C1176  F582    1.356   1_556 S
C1177  F1193   1.357   .     S
C1178  C1182   1.411   .     A
C1179  C1183   1.403   .     A
C1180  C1181   1.396   .     A
C1180  C567    1.421   1_556 S
C1180  C561    1.402   1_556 S
C1181  H1199   1.083   .     S
C1181  C1182   1.391   .     A
C1182  S1224   1.769   .     S
C1183  F1191   1.357   .     S
C1184  H1196   1.083   .     S
Cu1185 O1219   1.957   .     S
Cu1185 O1205   1.975   .     S
Cu1185 Cu1186  2.676   .     S
Cu1185 N1203   2.011   .     S
Cu1185 O1217   1.975   .     S
Cu1185 O1215   1.960   .     S
Cu1186 O1220   1.960   .     S
Cu1186 O1214   1.975   .     S
Cu1186 N1204   2.011   .     S
Cu1186 O1218   1.975   .     S
Cu1186 O1216   1.957   .     S
F1190  C561    1.354   1_556 S
H1200  O1207   0.990   .     S
H1201  O1210   0.991   .     S
H1202  O1213   0.990   .     S
O1206  S1222   1.503   .     D
O1207  S1222   1.680   .     S
O1208  S1223   1.501   .     D
O1209  S1223   1.503   .     D
O1210  S1223   1.683   .     S
O1211  S1224   1.498   .     D
O1212  S1224   1.504   .     D
O1213  S1224   1.682   .     S
O1221  S1222   1.501   .     D
