data_str_m2_o1_o1_pcu_sym.27
_audit_creation_date              2020-01-03
_audit_creation_method            'Materials Studio'
_symmetry_space_group_name_H-M    'P1'
_symmetry_Int_Tables_number       1
_symmetry_cell_setting            triclinic
loop_
_symmetry_equiv_pos_as_xyz
  x,y,z
_cell_length_a                    30.6410
_cell_length_b                    30.5447
_cell_length_c                    28.5896
_cell_angle_alpha                 89.9026
_cell_angle_beta                  90.2976
_cell_angle_gamma                 90.2639
loop_
_atom_site_label
_atom_site_type_symbol
_atom_site_fract_x
_atom_site_fract_y
_atom_site_fract_z
_atom_site_U_iso_or_equiv
_atom_site_adp_type
_atom_site_occupancy
C1     C     0.05919   0.19043   0.16681   0.00000  Uiso   1.00
C2     C     0.49996   0.28844   0.30847   0.00000  Uiso   1.00
C3     C     0.49998   0.28844   0.02473   0.00000  Uiso   1.00
C4     C     0.00005   0.21156   0.30861   0.00000  Uiso   1.00
C5     C     0.25004   0.46156   0.02486   0.00000  Uiso   1.00
C6     C     0.24996   0.03844   0.30847   0.00000  Uiso   1.00
C7     C     0.24995   0.03844   0.02473   0.00000  Uiso   1.00
C8     C     0.25002   0.46156   0.30861   0.00000  Uiso   1.00
C9     C     0.41907   0.11271   0.16105   0.00000  Uiso   1.00
C10    C     0.08429   0.38346   0.14514   0.00000  Uiso   1.00
C11    C     0.13355   0.33436   0.18859   0.00000  Uiso   1.00
C12    C     0.44009   0.30893   0.16654   0.00000  Uiso   1.00
C13    C     0.36301   0.16948   0.16943   0.00000  Uiso   1.00
C14    C     0.08780   0.11910   0.19506   0.00000  Uiso   1.00
C15    C     0.40709   0.37446   0.13127   0.00000  Uiso   1.00
C16    C     0.37353   0.34172   0.20112   0.00000  Uiso   1.00
C17    C     0.13028   0.16302   0.13909   0.00000  Uiso   1.00
C18    C     0.16571   0.36654   0.18819   0.00000  Uiso   1.00
C19    C     0.33093   0.13729   0.17228   0.00000  Uiso   1.00
C20    C     0.38699   0.08052   0.16391   0.00000  Uiso   1.00
C21    C     0.11645   0.41563   0.14475   0.00000  Uiso   1.00
C22    C     0.34291   0.37554   0.20207   0.00000  Uiso   1.00
C23    C     0.44076   0.19053   0.16645   0.00000  Uiso   1.00
C24    C     0.16220   0.13090   0.13827   0.00000  Uiso   1.00
C25    C     0.11972   0.08698   0.19424   0.00000  Uiso   1.00
C26    C     0.37648   0.40828   0.13221   0.00000  Uiso   1.00
C27    C     0.09281   0.34275   0.16691   0.00000  Uiso   1.00
C28    C     0.40721   0.15719   0.16532   0.00000  Uiso   1.00
C29    C     0.40598   0.34183   0.16609   0.00000  Uiso   1.00
C30    C     0.09280   0.15716   0.16716   0.00000  Uiso   1.00
C31    C     0.34279   0.09281   0.16801   0.00000  Uiso   1.00
C32    C     0.15719   0.40725   0.16642   0.00000  Uiso   1.00
C33    C     0.15720   0.09284   0.16617   0.00000  Uiso   1.00
C34    C     0.05945   0.30924   0.16673   0.00000  Uiso   1.00
C35    C     0.34402   0.40817   0.16724   0.00000  Uiso   1.00
C36    C     0.30991   0.44107   0.16680   0.00000  Uiso   1.00
C37    C     0.19082   0.05957   0.16652   0.00000  Uiso   1.00
C38    C     0.19055   0.44076   0.16660   0.00000  Uiso   1.00
C39    C     0.30924   0.05947   0.16688   0.00000  Uiso   1.00
C40    C     0.00004   0.21156   0.02486   0.00000  Uiso   1.00
Cu41   Cu    0.00000   0.25000   0.21355   0.00000  Uiso   1.00
Cu42   Cu    0.00000   0.25000   0.11978   0.00000  Uiso   1.00
Cu43   Cu    0.25000  -0.00000   0.21355   0.00000  Uiso   1.00
Cu44   Cu    0.25000  -0.00000   0.11978   0.00000  Uiso   1.00
H45    H     0.00006   0.18076   0.04358   0.00000  Uiso   1.00
H46    H     0.02144   0.37414   0.13684   0.00000  Uiso   1.00
H47    H     0.12300   0.27180   0.20022   0.00000  Uiso   1.00
H48    H     0.37255   0.23177   0.15766   0.00000  Uiso   1.00
H49    H     0.02681   0.12901   0.21236   0.00000  Uiso   1.00
H50    H     0.43625   0.39735   0.07502   0.00000  Uiso   1.00
H51    H     0.37985   0.28100   0.22052   0.00000  Uiso   1.00
H52    H     0.12264   0.22551   0.12719   0.00000  Uiso   1.00
H53    H     0.22856   0.37586   0.19650   0.00000  Uiso   1.00
H54    H     0.26981   0.12613   0.18832   0.00000  Uiso   1.00
H55    H     0.37745   0.01823   0.17567   0.00000  Uiso   1.00
H56    H     0.49994   0.31924   0.28976   0.00000  Uiso   1.00
H57    H     0.12701   0.47820   0.13311   0.00000  Uiso   1.00
H58    H     0.31377   0.35267   0.25833   0.00000  Uiso   1.00
H59    H     0.22319   0.12099   0.12098   0.00000  Uiso   1.00
H60    H     0.12736   0.02449   0.20614   0.00000  Uiso   1.00
H61    H     0.37015   0.46900   0.11281   0.00000  Uiso   1.00
H62    H     0.00002   0.31924   0.04333   0.00000  Uiso   1.00
H63    H     0.00010   0.18076   0.29000   0.00000  Uiso   1.00
H64    H     0.25006   0.43076   0.04357   0.00000  Uiso   1.00
H65    H     0.24994   0.06924   0.28975   0.00000  Uiso   1.00
H66    H     0.24990   0.06924   0.04333   0.00000  Uiso   1.00
H67    H     0.24998   0.43076   0.29000   0.00000  Uiso   1.00
H68    H     0.48019   0.12387   0.14502   0.00000  Uiso   1.00
N69    N     0.00000   0.25000   0.28402   0.00000  Uiso   1.00
N70    N     0.00000   0.25000   0.04931   0.00000  Uiso   1.00
N71    N     0.25000  -0.00000   0.28402   0.00000  Uiso   1.00
N72    N     0.25000  -0.00000   0.04931   0.00000  Uiso   1.00
O73    O     0.04509   0.20491   0.20625   0.00000  Uiso   1.00
O74    O     0.20492   0.04509   0.12709   0.00000  Uiso   1.00
O75    O     0.20492   0.04509   0.20625   0.00000  Uiso   1.00
O76    O     0.29509   0.45491   0.12709   0.00000  Uiso   1.00
O77    O     0.20492   0.45491   0.12709   0.00000  Uiso   1.00
O78    O     0.29509   0.04509   0.20625   0.00000  Uiso   1.00
O79    O     0.29509   0.04509   0.12709   0.00000  Uiso   1.00
O80    O     0.20492   0.45491   0.20625   0.00000  Uiso   1.00
O81    O     0.46165   0.09901   0.15493   0.00000  Uiso   1.00
O82    O     0.04451   0.39387   0.12491   0.00000  Uiso   1.00
O83    O     0.14414   0.29478   0.20936   0.00000  Uiso   1.00
O84    O     0.45492   0.29509   0.12709   0.00000  Uiso   1.00
O85    O     0.34961   0.21263   0.17092   0.00000  Uiso   1.00
O86    O     0.05163   0.11086   0.22260   0.00000  Uiso   1.00
O87    O     0.43995   0.37350   0.09813   0.00000  Uiso   1.00
O88    O     0.37036   0.30896   0.23438   0.00000  Uiso   1.00
O89    O     0.13790   0.20043   0.11296   0.00000  Uiso   1.00
O90    O     0.20549   0.35613   0.20842   0.00000  Uiso   1.00
O91    O     0.28835   0.15099   0.17840   0.00000  Uiso   1.00
O92    O     0.40039   0.03737   0.16241   0.00000  Uiso   1.00
O93    O     0.10586   0.45522   0.12397   0.00000  Uiso   1.00
O94    O     0.31006   0.37650   0.23521   0.00000  Uiso   1.00
O95    O     0.45492   0.29509   0.20625   0.00000  Uiso   1.00
O96    O     0.19837   0.13914   0.11074   0.00000  Uiso   1.00
O97    O     0.11210   0.04957   0.22037   0.00000  Uiso   1.00
O98    O     0.37963   0.44103   0.09895   0.00000  Uiso   1.00
O99    O     0.04509   0.20491   0.12709   0.00000  Uiso   1.00
O100   O     0.45492   0.20491   0.12709   0.00000  Uiso   1.00
O101   O     0.04509   0.29509   0.20625   0.00000  Uiso   1.00
O102   O     0.04509   0.29509   0.12709   0.00000  Uiso   1.00
O103   O     0.45492   0.20491   0.20625   0.00000  Uiso   1.00
O104   O     0.29509   0.45491   0.20625   0.00000  Uiso   1.00
C105   C     0.55919   0.19043   0.16681   0.00000  Uiso   1.00
C106   C     0.99996   0.28844   0.30847   0.00000  Uiso   1.00
C107   C     0.99998   0.28844   0.02473   0.00000  Uiso   1.00
C108   C     0.50005   0.21156   0.30861   0.00000  Uiso   1.00
C109   C     0.75004   0.46156   0.02486   0.00000  Uiso   1.00
C110   C     0.74996   0.03844   0.30847   0.00000  Uiso   1.00
C111   C     0.74995   0.03844   0.02473   0.00000  Uiso   1.00
C112   C     0.75002   0.46156   0.30861   0.00000  Uiso   1.00
C113   C     0.91907   0.11271   0.16105   0.00000  Uiso   1.00
C114   C     0.58429   0.38346   0.14514   0.00000  Uiso   1.00
C115   C     0.63355   0.33436   0.18859   0.00000  Uiso   1.00
C116   C     0.94009   0.30893   0.16654   0.00000  Uiso   1.00
C117   C     0.86301   0.16948   0.16943   0.00000  Uiso   1.00
C118   C     0.58780   0.11910   0.19506   0.00000  Uiso   1.00
C119   C     0.90709   0.37446   0.13127   0.00000  Uiso   1.00
C120   C     0.87353   0.34172   0.20112   0.00000  Uiso   1.00
C121   C     0.63028   0.16302   0.13909   0.00000  Uiso   1.00
C122   C     0.66571   0.36654   0.18819   0.00000  Uiso   1.00
C123   C     0.83093   0.13729   0.17228   0.00000  Uiso   1.00
C124   C     0.88699   0.08052   0.16391   0.00000  Uiso   1.00
C125   C     0.61645   0.41563   0.14475   0.00000  Uiso   1.00
C126   C     0.84291   0.37554   0.20207   0.00000  Uiso   1.00
C127   C     0.94076   0.19053   0.16645   0.00000  Uiso   1.00
C128   C     0.66220   0.13090   0.13827   0.00000  Uiso   1.00
C129   C     0.61972   0.08698   0.19424   0.00000  Uiso   1.00
C130   C     0.87648   0.40828   0.13221   0.00000  Uiso   1.00
C131   C     0.59281   0.34275   0.16691   0.00000  Uiso   1.00
C132   C     0.90721   0.15719   0.16532   0.00000  Uiso   1.00
C133   C     0.90598   0.34183   0.16609   0.00000  Uiso   1.00
C134   C     0.59280   0.15716   0.16716   0.00000  Uiso   1.00
C135   C     0.84279   0.09281   0.16801   0.00000  Uiso   1.00
C136   C     0.65719   0.40725   0.16642   0.00000  Uiso   1.00
C137   C     0.65720   0.09284   0.16617   0.00000  Uiso   1.00
C138   C     0.55945   0.30924   0.16673   0.00000  Uiso   1.00
C139   C     0.84402   0.40817   0.16724   0.00000  Uiso   1.00
C140   C     0.80991   0.44107   0.16680   0.00000  Uiso   1.00
C141   C     0.69082   0.05957   0.16652   0.00000  Uiso   1.00
C142   C     0.69055   0.44076   0.16660   0.00000  Uiso   1.00
C143   C     0.80924   0.05947   0.16688   0.00000  Uiso   1.00
C144   C     0.50004   0.21156   0.02486   0.00000  Uiso   1.00
Cu145  Cu    0.50000   0.25000   0.21355   0.00000  Uiso   1.00
Cu146  Cu    0.50000   0.25000   0.11978   0.00000  Uiso   1.00
Cu147  Cu    0.75000  -0.00000   0.21355   0.00000  Uiso   1.00
Cu148  Cu    0.75000  -0.00000   0.11978   0.00000  Uiso   1.00
H149   H     0.50006   0.18076   0.04358   0.00000  Uiso   1.00
H150   H     0.52144   0.37414   0.13684   0.00000  Uiso   1.00
H151   H     0.62300   0.27180   0.20022   0.00000  Uiso   1.00
H152   H     0.87255   0.23177   0.15766   0.00000  Uiso   1.00
H153   H     0.52681   0.12901   0.21236   0.00000  Uiso   1.00
H154   H     0.93625   0.39735   0.07502   0.00000  Uiso   1.00
H155   H     0.87985   0.28100   0.22052   0.00000  Uiso   1.00
H156   H     0.62264   0.22551   0.12719   0.00000  Uiso   1.00
H157   H     0.72856   0.37586   0.19650   0.00000  Uiso   1.00
H158   H     0.76981   0.12613   0.18832   0.00000  Uiso   1.00
H159   H     0.87745   0.01823   0.17567   0.00000  Uiso   1.00
H160   H     0.99994   0.31924   0.28976   0.00000  Uiso   1.00
H161   H     0.62701   0.47820   0.13311   0.00000  Uiso   1.00
H162   H     0.81377   0.35267   0.25833   0.00000  Uiso   1.00
H163   H     0.72319   0.12099   0.12098   0.00000  Uiso   1.00
H164   H     0.62736   0.02449   0.20614   0.00000  Uiso   1.00
H165   H     0.87015   0.46900   0.11281   0.00000  Uiso   1.00
H166   H     0.50002   0.31924   0.04333   0.00000  Uiso   1.00
H167   H     0.50010   0.18076   0.29000   0.00000  Uiso   1.00
H168   H     0.75006   0.43076   0.04357   0.00000  Uiso   1.00
H169   H     0.74994   0.06924   0.28975   0.00000  Uiso   1.00
H170   H     0.74990   0.06924   0.04333   0.00000  Uiso   1.00
H171   H     0.74998   0.43076   0.29000   0.00000  Uiso   1.00
H172   H     0.98019   0.12387   0.14502   0.00000  Uiso   1.00
N173   N     0.50000   0.25000   0.28402   0.00000  Uiso   1.00
N174   N     0.50000   0.25000   0.04931   0.00000  Uiso   1.00
N175   N     0.75000  -0.00000   0.28402   0.00000  Uiso   1.00
N176   N     0.75000  -0.00000   0.04931   0.00000  Uiso   1.00
O177   O     0.54509   0.20491   0.20625   0.00000  Uiso   1.00
O178   O     0.70492   0.04509   0.12709   0.00000  Uiso   1.00
O179   O     0.70492   0.04509   0.20625   0.00000  Uiso   1.00
O180   O     0.79509   0.45491   0.12709   0.00000  Uiso   1.00
O181   O     0.70492   0.45491   0.12709   0.00000  Uiso   1.00
O182   O     0.79509   0.04509   0.20625   0.00000  Uiso   1.00
O183   O     0.79509   0.04509   0.12709   0.00000  Uiso   1.00
O184   O     0.70492   0.45491   0.20625   0.00000  Uiso   1.00
O185   O     0.96165   0.09901   0.15493   0.00000  Uiso   1.00
O186   O     0.54451   0.39387   0.12491   0.00000  Uiso   1.00
O187   O     0.64414   0.29478   0.20936   0.00000  Uiso   1.00
O188   O     0.95492   0.29509   0.12709   0.00000  Uiso   1.00
O189   O     0.84961   0.21263   0.17092   0.00000  Uiso   1.00
O190   O     0.55163   0.11086   0.22260   0.00000  Uiso   1.00
O191   O     0.93995   0.37350   0.09813   0.00000  Uiso   1.00
O192   O     0.87036   0.30896   0.23438   0.00000  Uiso   1.00
O193   O     0.63790   0.20043   0.11296   0.00000  Uiso   1.00
O194   O     0.70549   0.35613   0.20842   0.00000  Uiso   1.00
O195   O     0.78835   0.15099   0.17840   0.00000  Uiso   1.00
O196   O     0.90039   0.03737   0.16241   0.00000  Uiso   1.00
O197   O     0.60586   0.45522   0.12397   0.00000  Uiso   1.00
O198   O     0.81006   0.37650   0.23521   0.00000  Uiso   1.00
O199   O     0.95492   0.29509   0.20625   0.00000  Uiso   1.00
O200   O     0.69837   0.13914   0.11074   0.00000  Uiso   1.00
O201   O     0.61210   0.04957   0.22037   0.00000  Uiso   1.00
O202   O     0.87963   0.44103   0.09895   0.00000  Uiso   1.00
O203   O     0.54509   0.20491   0.12709   0.00000  Uiso   1.00
O204   O     0.95492   0.20491   0.12709   0.00000  Uiso   1.00
O205   O     0.54509   0.29509   0.20625   0.00000  Uiso   1.00
O206   O     0.54509   0.29509   0.12709   0.00000  Uiso   1.00
O207   O     0.95492   0.20491   0.20625   0.00000  Uiso   1.00
O208   O     0.79509   0.45491   0.20625   0.00000  Uiso   1.00
C209   C     0.05919   0.69043   0.16681   0.00000  Uiso   1.00
C210   C     0.49996   0.78844   0.30847   0.00000  Uiso   1.00
C211   C     0.49998   0.78844   0.02473   0.00000  Uiso   1.00
C212   C     0.00005   0.71156   0.30861   0.00000  Uiso   1.00
C213   C     0.25004   0.96156   0.02486   0.00000  Uiso   1.00
C214   C     0.24996   0.53844   0.30847   0.00000  Uiso   1.00
C215   C     0.24995   0.53844   0.02473   0.00000  Uiso   1.00
C216   C     0.25002   0.96156   0.30861   0.00000  Uiso   1.00
C217   C     0.41907   0.61271   0.16105   0.00000  Uiso   1.00
C218   C     0.08429   0.88346   0.14514   0.00000  Uiso   1.00
C219   C     0.13355   0.83436   0.18859   0.00000  Uiso   1.00
C220   C     0.44009   0.80893   0.16654   0.00000  Uiso   1.00
C221   C     0.36301   0.66948   0.16943   0.00000  Uiso   1.00
C222   C     0.08780   0.61910   0.19506   0.00000  Uiso   1.00
C223   C     0.40709   0.87446   0.13127   0.00000  Uiso   1.00
C224   C     0.37353   0.84172   0.20112   0.00000  Uiso   1.00
C225   C     0.13028   0.66302   0.13909   0.00000  Uiso   1.00
C226   C     0.16571   0.86654   0.18819   0.00000  Uiso   1.00
C227   C     0.33093   0.63729   0.17228   0.00000  Uiso   1.00
C228   C     0.38699   0.58052   0.16391   0.00000  Uiso   1.00
C229   C     0.11645   0.91563   0.14475   0.00000  Uiso   1.00
C230   C     0.34291   0.87554   0.20207   0.00000  Uiso   1.00
C231   C     0.44076   0.69053   0.16645   0.00000  Uiso   1.00
C232   C     0.16220   0.63090   0.13827   0.00000  Uiso   1.00
C233   C     0.11972   0.58698   0.19424   0.00000  Uiso   1.00
C234   C     0.37648   0.90828   0.13221   0.00000  Uiso   1.00
C235   C     0.09281   0.84275   0.16691   0.00000  Uiso   1.00
C236   C     0.40721   0.65719   0.16532   0.00000  Uiso   1.00
C237   C     0.40598   0.84183   0.16609   0.00000  Uiso   1.00
C238   C     0.09280   0.65716   0.16716   0.00000  Uiso   1.00
C239   C     0.34279   0.59281   0.16801   0.00000  Uiso   1.00
C240   C     0.15719   0.90725   0.16642   0.00000  Uiso   1.00
C241   C     0.15720   0.59284   0.16617   0.00000  Uiso   1.00
C242   C     0.05945   0.80924   0.16673   0.00000  Uiso   1.00
C243   C     0.34402   0.90817   0.16724   0.00000  Uiso   1.00
C244   C     0.30991   0.94107   0.16680   0.00000  Uiso   1.00
C245   C     0.19082   0.55957   0.16652   0.00000  Uiso   1.00
C246   C     0.19055   0.94076   0.16660   0.00000  Uiso   1.00
C247   C     0.30924   0.55947   0.16688   0.00000  Uiso   1.00
C248   C     0.00004   0.71156   0.02486   0.00000  Uiso   1.00
Cu249  Cu    0.00000   0.75000   0.21355   0.00000  Uiso   1.00
Cu250  Cu    0.00000   0.75000   0.11978   0.00000  Uiso   1.00
Cu251  Cu    0.25000   0.50000   0.21355   0.00000  Uiso   1.00
Cu252  Cu    0.25000   0.50000   0.11978   0.00000  Uiso   1.00
H253   H     0.00006   0.68076   0.04358   0.00000  Uiso   1.00
H254   H     0.02144   0.87414   0.13684   0.00000  Uiso   1.00
H255   H     0.12300   0.77180   0.20022   0.00000  Uiso   1.00
H256   H     0.37255   0.73177   0.15766   0.00000  Uiso   1.00
H257   H     0.02681   0.62901   0.21236   0.00000  Uiso   1.00
H258   H     0.43625   0.89735   0.07502   0.00000  Uiso   1.00
H259   H     0.37985   0.78100   0.22052   0.00000  Uiso   1.00
H260   H     0.12264   0.72551   0.12719   0.00000  Uiso   1.00
H261   H     0.22856   0.87586   0.19650   0.00000  Uiso   1.00
H262   H     0.26981   0.62613   0.18832   0.00000  Uiso   1.00
H263   H     0.37745   0.51823   0.17567   0.00000  Uiso   1.00
H264   H     0.49994   0.81924   0.28976   0.00000  Uiso   1.00
H265   H     0.12701   0.97820   0.13311   0.00000  Uiso   1.00
H266   H     0.31377   0.85267   0.25833   0.00000  Uiso   1.00
H267   H     0.22319   0.62099   0.12098   0.00000  Uiso   1.00
H268   H     0.12736   0.52449   0.20614   0.00000  Uiso   1.00
H269   H     0.37015   0.96900   0.11281   0.00000  Uiso   1.00
H270   H     0.00002   0.81924   0.04333   0.00000  Uiso   1.00
H271   H     0.00010   0.68076   0.29000   0.00000  Uiso   1.00
H272   H     0.25006   0.93076   0.04357   0.00000  Uiso   1.00
H273   H     0.24994   0.56924   0.28975   0.00000  Uiso   1.00
H274   H     0.24990   0.56924   0.04333   0.00000  Uiso   1.00
H275   H     0.24998   0.93076   0.29000   0.00000  Uiso   1.00
H276   H     0.48019   0.62387   0.14502   0.00000  Uiso   1.00
N277   N     0.00000   0.75000   0.28402   0.00000  Uiso   1.00
N278   N     0.00000   0.75000   0.04931   0.00000  Uiso   1.00
N279   N     0.25000   0.50000   0.28402   0.00000  Uiso   1.00
N280   N     0.25000   0.50000   0.04931   0.00000  Uiso   1.00
O281   O     0.04509   0.70491   0.20625   0.00000  Uiso   1.00
O282   O     0.20492   0.54509   0.12709   0.00000  Uiso   1.00
O283   O     0.20492   0.54509   0.20625   0.00000  Uiso   1.00
O284   O     0.29509   0.95491   0.12709   0.00000  Uiso   1.00
O285   O     0.20492   0.95491   0.12709   0.00000  Uiso   1.00
O286   O     0.29509   0.54509   0.20625   0.00000  Uiso   1.00
O287   O     0.29509   0.54509   0.12709   0.00000  Uiso   1.00
O288   O     0.20492   0.95491   0.20625   0.00000  Uiso   1.00
O289   O     0.46165   0.59901   0.15493   0.00000  Uiso   1.00
O290   O     0.04451   0.89387   0.12491   0.00000  Uiso   1.00
O291   O     0.14414   0.79478   0.20936   0.00000  Uiso   1.00
O292   O     0.45492   0.79509   0.12709   0.00000  Uiso   1.00
O293   O     0.34961   0.71263   0.17092   0.00000  Uiso   1.00
O294   O     0.05163   0.61086   0.22260   0.00000  Uiso   1.00
O295   O     0.43995   0.87350   0.09813   0.00000  Uiso   1.00
O296   O     0.37036   0.80896   0.23438   0.00000  Uiso   1.00
O297   O     0.13790   0.70043   0.11296   0.00000  Uiso   1.00
O298   O     0.20549   0.85613   0.20842   0.00000  Uiso   1.00
O299   O     0.28835   0.65099   0.17840   0.00000  Uiso   1.00
O300   O     0.40039   0.53737   0.16241   0.00000  Uiso   1.00
O301   O     0.10586   0.95522   0.12397   0.00000  Uiso   1.00
O302   O     0.31006   0.87650   0.23521   0.00000  Uiso   1.00
O303   O     0.45492   0.79509   0.20625   0.00000  Uiso   1.00
O304   O     0.19837   0.63914   0.11074   0.00000  Uiso   1.00
O305   O     0.11210   0.54957   0.22037   0.00000  Uiso   1.00
O306   O     0.37963   0.94103   0.09895   0.00000  Uiso   1.00
O307   O     0.04509   0.70491   0.12709   0.00000  Uiso   1.00
O308   O     0.45492   0.70491   0.12709   0.00000  Uiso   1.00
O309   O     0.04509   0.79509   0.20625   0.00000  Uiso   1.00
O310   O     0.04509   0.79509   0.12709   0.00000  Uiso   1.00
O311   O     0.45492   0.70491   0.20625   0.00000  Uiso   1.00
O312   O     0.29509   0.95491   0.20625   0.00000  Uiso   1.00
C313   C     0.55919   0.69043   0.16681   0.00000  Uiso   1.00
C314   C     0.99996   0.78844   0.30847   0.00000  Uiso   1.00
C315   C     0.99998   0.78844   0.02473   0.00000  Uiso   1.00
C316   C     0.50005   0.71156   0.30861   0.00000  Uiso   1.00
C317   C     0.75004   0.96156   0.02486   0.00000  Uiso   1.00
C318   C     0.74996   0.53844   0.30847   0.00000  Uiso   1.00
C319   C     0.74995   0.53844   0.02473   0.00000  Uiso   1.00
C320   C     0.75002   0.96156   0.30861   0.00000  Uiso   1.00
C321   C     0.91907   0.61271   0.16105   0.00000  Uiso   1.00
C322   C     0.58429   0.88346   0.14514   0.00000  Uiso   1.00
C323   C     0.63355   0.83436   0.18859   0.00000  Uiso   1.00
C324   C     0.94009   0.80893   0.16654   0.00000  Uiso   1.00
C325   C     0.86301   0.66948   0.16943   0.00000  Uiso   1.00
C326   C     0.58780   0.61910   0.19506   0.00000  Uiso   1.00
C327   C     0.90709   0.87446   0.13127   0.00000  Uiso   1.00
C328   C     0.87353   0.84172   0.20112   0.00000  Uiso   1.00
C329   C     0.63028   0.66302   0.13909   0.00000  Uiso   1.00
C330   C     0.66571   0.86654   0.18819   0.00000  Uiso   1.00
C331   C     0.83093   0.63729   0.17228   0.00000  Uiso   1.00
C332   C     0.88699   0.58052   0.16391   0.00000  Uiso   1.00
C333   C     0.61645   0.91563   0.14475   0.00000  Uiso   1.00
C334   C     0.84291   0.87554   0.20207   0.00000  Uiso   1.00
C335   C     0.94076   0.69053   0.16645   0.00000  Uiso   1.00
C336   C     0.66220   0.63090   0.13827   0.00000  Uiso   1.00
C337   C     0.61972   0.58698   0.19424   0.00000  Uiso   1.00
C338   C     0.87648   0.90828   0.13221   0.00000  Uiso   1.00
C339   C     0.59281   0.84275   0.16691   0.00000  Uiso   1.00
C340   C     0.90721   0.65719   0.16532   0.00000  Uiso   1.00
C341   C     0.90598   0.84183   0.16609   0.00000  Uiso   1.00
C342   C     0.59280   0.65716   0.16716   0.00000  Uiso   1.00
C343   C     0.84279   0.59281   0.16801   0.00000  Uiso   1.00
C344   C     0.65719   0.90725   0.16642   0.00000  Uiso   1.00
C345   C     0.65720   0.59284   0.16617   0.00000  Uiso   1.00
C346   C     0.55945   0.80924   0.16673   0.00000  Uiso   1.00
C347   C     0.84402   0.90817   0.16724   0.00000  Uiso   1.00
C348   C     0.80991   0.94107   0.16680   0.00000  Uiso   1.00
C349   C     0.69082   0.55957   0.16652   0.00000  Uiso   1.00
C350   C     0.69055   0.94076   0.16660   0.00000  Uiso   1.00
C351   C     0.80924   0.55947   0.16688   0.00000  Uiso   1.00
C352   C     0.50004   0.71156   0.02486   0.00000  Uiso   1.00
Cu353  Cu    0.50000   0.75000   0.21355   0.00000  Uiso   1.00
Cu354  Cu    0.50000   0.75000   0.11978   0.00000  Uiso   1.00
Cu355  Cu    0.75000   0.50000   0.21355   0.00000  Uiso   1.00
Cu356  Cu    0.75000   0.50000   0.11978   0.00000  Uiso   1.00
H357   H     0.50006   0.68076   0.04358   0.00000  Uiso   1.00
H358   H     0.52144   0.87414   0.13684   0.00000  Uiso   1.00
H359   H     0.62300   0.77180   0.20022   0.00000  Uiso   1.00
H360   H     0.87255   0.73177   0.15766   0.00000  Uiso   1.00
H361   H     0.52681   0.62901   0.21236   0.00000  Uiso   1.00
H362   H     0.93625   0.89735   0.07502   0.00000  Uiso   1.00
H363   H     0.87985   0.78100   0.22052   0.00000  Uiso   1.00
H364   H     0.62264   0.72551   0.12719   0.00000  Uiso   1.00
H365   H     0.72856   0.87586   0.19650   0.00000  Uiso   1.00
H366   H     0.76981   0.62613   0.18832   0.00000  Uiso   1.00
H367   H     0.87745   0.51823   0.17567   0.00000  Uiso   1.00
H368   H     0.99994   0.81924   0.28976   0.00000  Uiso   1.00
H369   H     0.62701   0.97820   0.13311   0.00000  Uiso   1.00
H370   H     0.81377   0.85267   0.25833   0.00000  Uiso   1.00
H371   H     0.72319   0.62099   0.12098   0.00000  Uiso   1.00
H372   H     0.62736   0.52449   0.20614   0.00000  Uiso   1.00
H373   H     0.87015   0.96900   0.11281   0.00000  Uiso   1.00
H374   H     0.50002   0.81924   0.04333   0.00000  Uiso   1.00
H375   H     0.50010   0.68076   0.29000   0.00000  Uiso   1.00
H376   H     0.75006   0.93076   0.04357   0.00000  Uiso   1.00
H377   H     0.74994   0.56924   0.28975   0.00000  Uiso   1.00
H378   H     0.74990   0.56924   0.04333   0.00000  Uiso   1.00
H379   H     0.74998   0.93076   0.29000   0.00000  Uiso   1.00
H380   H     0.98019   0.62387   0.14502   0.00000  Uiso   1.00
N381   N     0.50000   0.75000   0.28402   0.00000  Uiso   1.00
N382   N     0.50000   0.75000   0.04931   0.00000  Uiso   1.00
N383   N     0.75000   0.50000   0.28402   0.00000  Uiso   1.00
N384   N     0.75000   0.50000   0.04931   0.00000  Uiso   1.00
O385   O     0.54509   0.70491   0.20625   0.00000  Uiso   1.00
O386   O     0.70492   0.54509   0.12709   0.00000  Uiso   1.00
O387   O     0.70492   0.54509   0.20625   0.00000  Uiso   1.00
O388   O     0.79509   0.95491   0.12709   0.00000  Uiso   1.00
O389   O     0.70492   0.95491   0.12709   0.00000  Uiso   1.00
O390   O     0.79509   0.54509   0.20625   0.00000  Uiso   1.00
O391   O     0.79509   0.54509   0.12709   0.00000  Uiso   1.00
O392   O     0.70492   0.95491   0.20625   0.00000  Uiso   1.00
O393   O     0.96165   0.59901   0.15493   0.00000  Uiso   1.00
O394   O     0.54451   0.89387   0.12491   0.00000  Uiso   1.00
O395   O     0.64414   0.79478   0.20936   0.00000  Uiso   1.00
O396   O     0.95492   0.79509   0.12709   0.00000  Uiso   1.00
O397   O     0.84961   0.71263   0.17092   0.00000  Uiso   1.00
O398   O     0.55163   0.61086   0.22260   0.00000  Uiso   1.00
O399   O     0.93995   0.87350   0.09813   0.00000  Uiso   1.00
O400   O     0.87036   0.80896   0.23438   0.00000  Uiso   1.00
O401   O     0.63790   0.70043   0.11296   0.00000  Uiso   1.00
O402   O     0.70549   0.85613   0.20842   0.00000  Uiso   1.00
O403   O     0.78835   0.65099   0.17840   0.00000  Uiso   1.00
O404   O     0.90039   0.53737   0.16241   0.00000  Uiso   1.00
O405   O     0.60586   0.95522   0.12397   0.00000  Uiso   1.00
O406   O     0.81006   0.87650   0.23521   0.00000  Uiso   1.00
O407   O     0.95492   0.79509   0.20625   0.00000  Uiso   1.00
O408   O     0.69837   0.63914   0.11074   0.00000  Uiso   1.00
O409   O     0.61210   0.54957   0.22037   0.00000  Uiso   1.00
O410   O     0.87963   0.94103   0.09895   0.00000  Uiso   1.00
O411   O     0.54509   0.70491   0.12709   0.00000  Uiso   1.00
O412   O     0.95492   0.70491   0.12709   0.00000  Uiso   1.00
O413   O     0.54509   0.79509   0.20625   0.00000  Uiso   1.00
O414   O     0.54509   0.79509   0.12709   0.00000  Uiso   1.00
O415   O     0.95492   0.70491   0.20625   0.00000  Uiso   1.00
O416   O     0.79509   0.95491   0.20625   0.00000  Uiso   1.00
C417   C     0.05919   0.19043   0.50015   0.00000  Uiso   1.00
C418   C     0.49996   0.28844   0.64181   0.00000  Uiso   1.00
C419   C     0.49998   0.28844   0.35806   0.00000  Uiso   1.00
C420   C     0.00005   0.21156   0.64194   0.00000  Uiso   1.00
C421   C     0.25004   0.46156   0.35819   0.00000  Uiso   1.00
C422   C     0.24996   0.03844   0.64181   0.00000  Uiso   1.00
C423   C     0.24995   0.03844   0.35806   0.00000  Uiso   1.00
C424   C     0.25002   0.46156   0.64194   0.00000  Uiso   1.00
C425   C     0.41907   0.11271   0.49438   0.00000  Uiso   1.00
C426   C     0.08429   0.38346   0.47848   0.00000  Uiso   1.00
C427   C     0.13355   0.33436   0.52192   0.00000  Uiso   1.00
C428   C     0.44009   0.30893   0.49987   0.00000  Uiso   1.00
C429   C     0.36301   0.16948   0.50276   0.00000  Uiso   1.00
C430   C     0.08780   0.11910   0.52840   0.00000  Uiso   1.00
C431   C     0.40709   0.37446   0.46460   0.00000  Uiso   1.00
C432   C     0.37353   0.34172   0.53446   0.00000  Uiso   1.00
C433   C     0.13028   0.16302   0.47243   0.00000  Uiso   1.00
C434   C     0.16571   0.36654   0.52152   0.00000  Uiso   1.00
C435   C     0.33093   0.13729   0.50561   0.00000  Uiso   1.00
C436   C     0.38699   0.08052   0.49724   0.00000  Uiso   1.00
C437   C     0.11645   0.41563   0.47808   0.00000  Uiso   1.00
C438   C     0.34291   0.37554   0.53540   0.00000  Uiso   1.00
C439   C     0.44076   0.19053   0.49979   0.00000  Uiso   1.00
C440   C     0.16220   0.13090   0.47160   0.00000  Uiso   1.00
C441   C     0.11972   0.08698   0.52757   0.00000  Uiso   1.00
C442   C     0.37648   0.40828   0.46554   0.00000  Uiso   1.00
C443   C     0.09281   0.34275   0.50025   0.00000  Uiso   1.00
C444   C     0.40721   0.15719   0.49865   0.00000  Uiso   1.00
C445   C     0.40598   0.34183   0.49943   0.00000  Uiso   1.00
C446   C     0.09280   0.15716   0.50050   0.00000  Uiso   1.00
C447   C     0.34279   0.09281   0.50135   0.00000  Uiso   1.00
C448   C     0.15719   0.40725   0.49975   0.00000  Uiso   1.00
C449   C     0.15720   0.09284   0.49950   0.00000  Uiso   1.00
C450   C     0.05945   0.30924   0.50007   0.00000  Uiso   1.00
C451   C     0.34402   0.40817   0.50057   0.00000  Uiso   1.00
C452   C     0.30991   0.44107   0.50013   0.00000  Uiso   1.00
C453   C     0.19082   0.05957   0.49985   0.00000  Uiso   1.00
C454   C     0.19055   0.44076   0.49993   0.00000  Uiso   1.00
C455   C     0.30924   0.05947   0.50021   0.00000  Uiso   1.00
C456   C     0.00004   0.21156   0.35819   0.00000  Uiso   1.00
Cu457  Cu    0.00000   0.25000   0.54689   0.00000  Uiso   1.00
Cu458  Cu    0.00000   0.25000   0.45311   0.00000  Uiso   1.00
Cu459  Cu    0.25000  -0.00000   0.54689   0.00000  Uiso   1.00
Cu460  Cu    0.25000  -0.00000   0.45311   0.00000  Uiso   1.00
H461   H     0.00006   0.18076   0.37691   0.00000  Uiso   1.00
H462   H     0.02144   0.37414   0.47017   0.00000  Uiso   1.00
H463   H     0.12300   0.27180   0.53356   0.00000  Uiso   1.00
H464   H     0.37255   0.23177   0.49099   0.00000  Uiso   1.00
H465   H     0.02681   0.12901   0.54569   0.00000  Uiso   1.00
H466   H     0.43625   0.39735   0.40836   0.00000  Uiso   1.00
H467   H     0.37985   0.28100   0.55385   0.00000  Uiso   1.00
H468   H     0.12264   0.22551   0.46053   0.00000  Uiso   1.00
H469   H     0.22856   0.37586   0.52983   0.00000  Uiso   1.00
H470   H     0.26981   0.12613   0.52165   0.00000  Uiso   1.00
H471   H     0.37745   0.01823   0.50900   0.00000  Uiso   1.00
H472   H     0.49994   0.31924   0.62309   0.00000  Uiso   1.00
H473   H     0.12701   0.47820   0.46644   0.00000  Uiso   1.00
H474   H     0.31377   0.35267   0.59166   0.00000  Uiso   1.00
H475   H     0.22319   0.12099   0.45431   0.00000  Uiso   1.00
H476   H     0.12736   0.02449   0.53947   0.00000  Uiso   1.00
H477   H     0.37015   0.46900   0.44614   0.00000  Uiso   1.00
H478   H     0.00002   0.31924   0.37667   0.00000  Uiso   1.00
H479   H     0.00010   0.18076   0.62333   0.00000  Uiso   1.00
H480   H     0.25006   0.43076   0.37691   0.00000  Uiso   1.00
H481   H     0.24994   0.06924   0.62308   0.00000  Uiso   1.00
H482   H     0.24990   0.06924   0.37667   0.00000  Uiso   1.00
H483   H     0.24998   0.43076   0.62333   0.00000  Uiso   1.00
H484   H     0.48019   0.12387   0.47835   0.00000  Uiso   1.00
N485   N     0.00000   0.25000   0.61736   0.00000  Uiso   1.00
N486   N     0.00000   0.25000   0.38264   0.00000  Uiso   1.00
N487   N     0.25000  -0.00000   0.61736   0.00000  Uiso   1.00
N488   N     0.25000  -0.00000   0.38264   0.00000  Uiso   1.00
O489   O     0.04509   0.20491   0.53958   0.00000  Uiso   1.00
O490   O     0.20492   0.04509   0.46042   0.00000  Uiso   1.00
O491   O     0.20492   0.04509   0.53958   0.00000  Uiso   1.00
O492   O     0.29509   0.45491   0.46042   0.00000  Uiso   1.00
O493   O     0.20492   0.45491   0.46042   0.00000  Uiso   1.00
O494   O     0.29509   0.04509   0.53958   0.00000  Uiso   1.00
O495   O     0.29509   0.04509   0.46042   0.00000  Uiso   1.00
O496   O     0.20492   0.45491   0.53958   0.00000  Uiso   1.00
O497   O     0.46165   0.09901   0.48827   0.00000  Uiso   1.00
O498   O     0.04451   0.39387   0.45825   0.00000  Uiso   1.00
O499   O     0.14414   0.29478   0.54269   0.00000  Uiso   1.00
O500   O     0.45492   0.29509   0.46042   0.00000  Uiso   1.00
O501   O     0.34961   0.21263   0.50425   0.00000  Uiso   1.00
O502   O     0.05163   0.11086   0.55593   0.00000  Uiso   1.00
O503   O     0.43995   0.37350   0.43146   0.00000  Uiso   1.00
O504   O     0.37036   0.30896   0.56772   0.00000  Uiso   1.00
O505   O     0.13790   0.20043   0.44629   0.00000  Uiso   1.00
O506   O     0.20549   0.35613   0.54175   0.00000  Uiso   1.00
O507   O     0.28835   0.15099   0.51173   0.00000  Uiso   1.00
O508   O     0.40039   0.03737   0.49575   0.00000  Uiso   1.00
O509   O     0.10586   0.45522   0.45731   0.00000  Uiso   1.00
O510   O     0.31006   0.37650   0.56854   0.00000  Uiso   1.00
O511   O     0.45492   0.29509   0.53958   0.00000  Uiso   1.00
O512   O     0.19837   0.13914   0.44407   0.00000  Uiso   1.00
O513   O     0.11210   0.04957   0.55371   0.00000  Uiso   1.00
O514   O     0.37963   0.44103   0.43228   0.00000  Uiso   1.00
O515   O     0.04509   0.20491   0.46042   0.00000  Uiso   1.00
O516   O     0.45492   0.20491   0.46042   0.00000  Uiso   1.00
O517   O     0.04509   0.29509   0.53958   0.00000  Uiso   1.00
O518   O     0.04509   0.29509   0.46042   0.00000  Uiso   1.00
O519   O     0.45492   0.20491   0.53958   0.00000  Uiso   1.00
O520   O     0.29509   0.45491   0.53958   0.00000  Uiso   1.00
C521   C     0.55919   0.19043   0.50015   0.00000  Uiso   1.00
C522   C     0.99996   0.28844   0.64181   0.00000  Uiso   1.00
C523   C     0.99998   0.28844   0.35806   0.00000  Uiso   1.00
C524   C     0.50005   0.21156   0.64194   0.00000  Uiso   1.00
C525   C     0.75004   0.46156   0.35819   0.00000  Uiso   1.00
C526   C     0.74996   0.03844   0.64181   0.00000  Uiso   1.00
C527   C     0.74995   0.03844   0.35806   0.00000  Uiso   1.00
C528   C     0.75002   0.46156   0.64194   0.00000  Uiso   1.00
C529   C     0.91907   0.11271   0.49438   0.00000  Uiso   1.00
C530   C     0.58429   0.38346   0.47848   0.00000  Uiso   1.00
C531   C     0.63355   0.33436   0.52192   0.00000  Uiso   1.00
C532   C     0.94009   0.30893   0.49987   0.00000  Uiso   1.00
C533   C     0.86301   0.16948   0.50276   0.00000  Uiso   1.00
C534   C     0.58780   0.11910   0.52840   0.00000  Uiso   1.00
C535   C     0.90709   0.37446   0.46460   0.00000  Uiso   1.00
C536   C     0.87353   0.34172   0.53446   0.00000  Uiso   1.00
C537   C     0.63028   0.16302   0.47243   0.00000  Uiso   1.00
C538   C     0.66571   0.36654   0.52152   0.00000  Uiso   1.00
C539   C     0.83093   0.13729   0.50561   0.00000  Uiso   1.00
C540   C     0.88699   0.08052   0.49724   0.00000  Uiso   1.00
C541   C     0.61645   0.41563   0.47808   0.00000  Uiso   1.00
C542   C     0.84291   0.37554   0.53540   0.00000  Uiso   1.00
C543   C     0.94076   0.19053   0.49979   0.00000  Uiso   1.00
C544   C     0.66220   0.13090   0.47160   0.00000  Uiso   1.00
C545   C     0.61972   0.08698   0.52757   0.00000  Uiso   1.00
C546   C     0.87648   0.40828   0.46554   0.00000  Uiso   1.00
C547   C     0.59281   0.34275   0.50025   0.00000  Uiso   1.00
C548   C     0.90721   0.15719   0.49865   0.00000  Uiso   1.00
C549   C     0.90598   0.34183   0.49943   0.00000  Uiso   1.00
C550   C     0.59280   0.15716   0.50050   0.00000  Uiso   1.00
C551   C     0.84279   0.09281   0.50135   0.00000  Uiso   1.00
C552   C     0.65719   0.40725   0.49975   0.00000  Uiso   1.00
C553   C     0.65720   0.09284   0.49950   0.00000  Uiso   1.00
C554   C     0.55945   0.30924   0.50007   0.00000  Uiso   1.00
C555   C     0.84402   0.40817   0.50057   0.00000  Uiso   1.00
C556   C     0.80991   0.44107   0.50013   0.00000  Uiso   1.00
C557   C     0.69082   0.05957   0.49985   0.00000  Uiso   1.00
C558   C     0.69055   0.44076   0.49993   0.00000  Uiso   1.00
C559   C     0.80924   0.05947   0.50021   0.00000  Uiso   1.00
C560   C     0.50004   0.21156   0.35819   0.00000  Uiso   1.00
Cu561  Cu    0.50000   0.25000   0.54689   0.00000  Uiso   1.00
Cu562  Cu    0.50000   0.25000   0.45311   0.00000  Uiso   1.00
Cu563  Cu    0.75000  -0.00000   0.54689   0.00000  Uiso   1.00
Cu564  Cu    0.75000  -0.00000   0.45311   0.00000  Uiso   1.00
H565   H     0.50006   0.18076   0.37691   0.00000  Uiso   1.00
H566   H     0.52144   0.37414   0.47017   0.00000  Uiso   1.00
H567   H     0.62300   0.27180   0.53356   0.00000  Uiso   1.00
H568   H     0.87255   0.23177   0.49099   0.00000  Uiso   1.00
H569   H     0.52681   0.12901   0.54569   0.00000  Uiso   1.00
H570   H     0.93625   0.39735   0.40836   0.00000  Uiso   1.00
H571   H     0.87985   0.28100   0.55385   0.00000  Uiso   1.00
H572   H     0.62264   0.22551   0.46053   0.00000  Uiso   1.00
H573   H     0.72856   0.37586   0.52983   0.00000  Uiso   1.00
H574   H     0.76981   0.12613   0.52165   0.00000  Uiso   1.00
H575   H     0.87745   0.01823   0.50900   0.00000  Uiso   1.00
H576   H     0.99994   0.31924   0.62309   0.00000  Uiso   1.00
H577   H     0.62701   0.47820   0.46644   0.00000  Uiso   1.00
H578   H     0.81377   0.35267   0.59166   0.00000  Uiso   1.00
H579   H     0.72319   0.12099   0.45431   0.00000  Uiso   1.00
H580   H     0.62736   0.02449   0.53947   0.00000  Uiso   1.00
H581   H     0.87015   0.46900   0.44614   0.00000  Uiso   1.00
H582   H     0.50002   0.31924   0.37667   0.00000  Uiso   1.00
H583   H     0.50010   0.18076   0.62333   0.00000  Uiso   1.00
H584   H     0.75006   0.43076   0.37691   0.00000  Uiso   1.00
H585   H     0.74994   0.06924   0.62308   0.00000  Uiso   1.00
H586   H     0.74990   0.06924   0.37667   0.00000  Uiso   1.00
H587   H     0.74998   0.43076   0.62333   0.00000  Uiso   1.00
H588   H     0.98019   0.12387   0.47835   0.00000  Uiso   1.00
N589   N     0.50000   0.25000   0.61736   0.00000  Uiso   1.00
N590   N     0.50000   0.25000   0.38264   0.00000  Uiso   1.00
N591   N     0.75000  -0.00000   0.61736   0.00000  Uiso   1.00
N592   N     0.75000  -0.00000   0.38264   0.00000  Uiso   1.00
O593   O     0.54509   0.20491   0.53958   0.00000  Uiso   1.00
O594   O     0.70492   0.04509   0.46042   0.00000  Uiso   1.00
O595   O     0.70492   0.04509   0.53958   0.00000  Uiso   1.00
O596   O     0.79509   0.45491   0.46042   0.00000  Uiso   1.00
O597   O     0.70492   0.45491   0.46042   0.00000  Uiso   1.00
O598   O     0.79509   0.04509   0.53958   0.00000  Uiso   1.00
O599   O     0.79509   0.04509   0.46042   0.00000  Uiso   1.00
O600   O     0.70492   0.45491   0.53958   0.00000  Uiso   1.00
O601   O     0.96165   0.09901   0.48827   0.00000  Uiso   1.00
O602   O     0.54451   0.39387   0.45825   0.00000  Uiso   1.00
O603   O     0.64414   0.29478   0.54269   0.00000  Uiso   1.00
O604   O     0.95492   0.29509   0.46042   0.00000  Uiso   1.00
O605   O     0.84961   0.21263   0.50425   0.00000  Uiso   1.00
O606   O     0.55163   0.11086   0.55593   0.00000  Uiso   1.00
O607   O     0.93995   0.37350   0.43146   0.00000  Uiso   1.00
O608   O     0.87036   0.30896   0.56772   0.00000  Uiso   1.00
O609   O     0.63790   0.20043   0.44629   0.00000  Uiso   1.00
O610   O     0.70549   0.35613   0.54175   0.00000  Uiso   1.00
O611   O     0.78835   0.15099   0.51173   0.00000  Uiso   1.00
O612   O     0.90039   0.03737   0.49575   0.00000  Uiso   1.00
O613   O     0.60586   0.45522   0.45731   0.00000  Uiso   1.00
O614   O     0.81006   0.37650   0.56854   0.00000  Uiso   1.00
O615   O     0.95492   0.29509   0.53958   0.00000  Uiso   1.00
O616   O     0.69837   0.13914   0.44407   0.00000  Uiso   1.00
O617   O     0.61210   0.04957   0.55371   0.00000  Uiso   1.00
O618   O     0.87963   0.44103   0.43228   0.00000  Uiso   1.00
O619   O     0.54509   0.20491   0.46042   0.00000  Uiso   1.00
O620   O     0.95492   0.20491   0.46042   0.00000  Uiso   1.00
O621   O     0.54509   0.29509   0.53958   0.00000  Uiso   1.00
O622   O     0.54509   0.29509   0.46042   0.00000  Uiso   1.00
O623   O     0.95492   0.20491   0.53958   0.00000  Uiso   1.00
O624   O     0.79509   0.45491   0.53958   0.00000  Uiso   1.00
C625   C     0.05919   0.69043   0.50015   0.00000  Uiso   1.00
C626   C     0.49996   0.78844   0.64181   0.00000  Uiso   1.00
C627   C     0.49998   0.78844   0.35806   0.00000  Uiso   1.00
C628   C     0.00005   0.71156   0.64194   0.00000  Uiso   1.00
C629   C     0.25004   0.96156   0.35819   0.00000  Uiso   1.00
C630   C     0.24996   0.53844   0.64181   0.00000  Uiso   1.00
C631   C     0.24995   0.53844   0.35806   0.00000  Uiso   1.00
C632   C     0.25002   0.96156   0.64194   0.00000  Uiso   1.00
C633   C     0.41907   0.61271   0.49438   0.00000  Uiso   1.00
C634   C     0.08429   0.88346   0.47848   0.00000  Uiso   1.00
C635   C     0.13355   0.83436   0.52192   0.00000  Uiso   1.00
C636   C     0.44009   0.80893   0.49987   0.00000  Uiso   1.00
C637   C     0.36301   0.66948   0.50276   0.00000  Uiso   1.00
C638   C     0.08780   0.61910   0.52840   0.00000  Uiso   1.00
C639   C     0.40709   0.87446   0.46460   0.00000  Uiso   1.00
C640   C     0.37353   0.84172   0.53446   0.00000  Uiso   1.00
C641   C     0.13028   0.66302   0.47243   0.00000  Uiso   1.00
C642   C     0.16571   0.86654   0.52152   0.00000  Uiso   1.00
C643   C     0.33093   0.63729   0.50561   0.00000  Uiso   1.00
C644   C     0.38699   0.58052   0.49724   0.00000  Uiso   1.00
C645   C     0.11645   0.91563   0.47808   0.00000  Uiso   1.00
C646   C     0.34291   0.87554   0.53540   0.00000  Uiso   1.00
C647   C     0.44076   0.69053   0.49979   0.00000  Uiso   1.00
C648   C     0.16220   0.63090   0.47160   0.00000  Uiso   1.00
C649   C     0.11972   0.58698   0.52757   0.00000  Uiso   1.00
C650   C     0.37648   0.90828   0.46554   0.00000  Uiso   1.00
C651   C     0.09281   0.84275   0.50025   0.00000  Uiso   1.00
C652   C     0.40721   0.65719   0.49865   0.00000  Uiso   1.00
C653   C     0.40598   0.84183   0.49943   0.00000  Uiso   1.00
C654   C     0.09280   0.65716   0.50050   0.00000  Uiso   1.00
C655   C     0.34279   0.59281   0.50135   0.00000  Uiso   1.00
C656   C     0.15719   0.90725   0.49975   0.00000  Uiso   1.00
C657   C     0.15720   0.59284   0.49950   0.00000  Uiso   1.00
C658   C     0.05945   0.80924   0.50007   0.00000  Uiso   1.00
C659   C     0.34402   0.90817   0.50057   0.00000  Uiso   1.00
C660   C     0.30991   0.94107   0.50013   0.00000  Uiso   1.00
C661   C     0.19082   0.55957   0.49985   0.00000  Uiso   1.00
C662   C     0.19055   0.94076   0.49993   0.00000  Uiso   1.00
C663   C     0.30924   0.55947   0.50021   0.00000  Uiso   1.00
C664   C     0.00004   0.71156   0.35819   0.00000  Uiso   1.00
Cu665  Cu    0.00000   0.75000   0.54689   0.00000  Uiso   1.00
Cu666  Cu    0.00000   0.75000   0.45311   0.00000  Uiso   1.00
Cu667  Cu    0.25000   0.50000   0.54689   0.00000  Uiso   1.00
Cu668  Cu    0.25000   0.50000   0.45311   0.00000  Uiso   1.00
H669   H     0.00006   0.68076   0.37691   0.00000  Uiso   1.00
H670   H     0.02144   0.87414   0.47017   0.00000  Uiso   1.00
H671   H     0.12300   0.77180   0.53356   0.00000  Uiso   1.00
H672   H     0.37255   0.73177   0.49099   0.00000  Uiso   1.00
H673   H     0.02681   0.62901   0.54569   0.00000  Uiso   1.00
H674   H     0.43625   0.89735   0.40836   0.00000  Uiso   1.00
H675   H     0.37985   0.78100   0.55385   0.00000  Uiso   1.00
H676   H     0.12264   0.72551   0.46053   0.00000  Uiso   1.00
H677   H     0.22856   0.87586   0.52983   0.00000  Uiso   1.00
H678   H     0.26981   0.62613   0.52165   0.00000  Uiso   1.00
H679   H     0.37745   0.51823   0.50900   0.00000  Uiso   1.00
H680   H     0.49994   0.81924   0.62309   0.00000  Uiso   1.00
H681   H     0.12701   0.97820   0.46644   0.00000  Uiso   1.00
H682   H     0.31377   0.85267   0.59166   0.00000  Uiso   1.00
H683   H     0.22319   0.62099   0.45431   0.00000  Uiso   1.00
H684   H     0.12736   0.52449   0.53947   0.00000  Uiso   1.00
H685   H     0.37015   0.96900   0.44614   0.00000  Uiso   1.00
H686   H     0.00002   0.81924   0.37667   0.00000  Uiso   1.00
H687   H     0.00010   0.68076   0.62333   0.00000  Uiso   1.00
H688   H     0.25006   0.93076   0.37691   0.00000  Uiso   1.00
H689   H     0.24994   0.56924   0.62308   0.00000  Uiso   1.00
H690   H     0.24990   0.56924   0.37667   0.00000  Uiso   1.00
H691   H     0.24998   0.93076   0.62333   0.00000  Uiso   1.00
H692   H     0.48019   0.62387   0.47835   0.00000  Uiso   1.00
N693   N     0.00000   0.75000   0.61736   0.00000  Uiso   1.00
N694   N     0.00000   0.75000   0.38264   0.00000  Uiso   1.00
N695   N     0.25000   0.50000   0.61736   0.00000  Uiso   1.00
N696   N     0.25000   0.50000   0.38264   0.00000  Uiso   1.00
O697   O     0.04509   0.70491   0.53958   0.00000  Uiso   1.00
O698   O     0.20492   0.54509   0.46042   0.00000  Uiso   1.00
O699   O     0.20492   0.54509   0.53958   0.00000  Uiso   1.00
O700   O     0.29509   0.95491   0.46042   0.00000  Uiso   1.00
O701   O     0.20492   0.95491   0.46042   0.00000  Uiso   1.00
O702   O     0.29509   0.54509   0.53958   0.00000  Uiso   1.00
O703   O     0.29509   0.54509   0.46042   0.00000  Uiso   1.00
O704   O     0.20492   0.95491   0.53958   0.00000  Uiso   1.00
O705   O     0.46165   0.59901   0.48827   0.00000  Uiso   1.00
O706   O     0.04451   0.89387   0.45825   0.00000  Uiso   1.00
O707   O     0.14414   0.79478   0.54269   0.00000  Uiso   1.00
O708   O     0.45492   0.79509   0.46042   0.00000  Uiso   1.00
O709   O     0.34961   0.71263   0.50425   0.00000  Uiso   1.00
O710   O     0.05163   0.61086   0.55593   0.00000  Uiso   1.00
O711   O     0.43995   0.87350   0.43146   0.00000  Uiso   1.00
O712   O     0.37036   0.80896   0.56772   0.00000  Uiso   1.00
O713   O     0.13790   0.70043   0.44629   0.00000  Uiso   1.00
O714   O     0.20549   0.85613   0.54175   0.00000  Uiso   1.00
O715   O     0.28835   0.65099   0.51173   0.00000  Uiso   1.00
O716   O     0.40039   0.53737   0.49575   0.00000  Uiso   1.00
O717   O     0.10586   0.95522   0.45731   0.00000  Uiso   1.00
O718   O     0.31006   0.87650   0.56854   0.00000  Uiso   1.00
O719   O     0.45492   0.79509   0.53958   0.00000  Uiso   1.00
O720   O     0.19837   0.63914   0.44407   0.00000  Uiso   1.00
O721   O     0.11210   0.54957   0.55371   0.00000  Uiso   1.00
O722   O     0.37963   0.94103   0.43228   0.00000  Uiso   1.00
O723   O     0.04509   0.70491   0.46042   0.00000  Uiso   1.00
O724   O     0.45492   0.70491   0.46042   0.00000  Uiso   1.00
O725   O     0.04509   0.79509   0.53958   0.00000  Uiso   1.00
O726   O     0.04509   0.79509   0.46042   0.00000  Uiso   1.00
O727   O     0.45492   0.70491   0.53958   0.00000  Uiso   1.00
O728   O     0.29509   0.95491   0.53958   0.00000  Uiso   1.00
C729   C     0.55919   0.69043   0.50015   0.00000  Uiso   1.00
C730   C     0.99996   0.78844   0.64181   0.00000  Uiso   1.00
C731   C     0.99998   0.78844   0.35806   0.00000  Uiso   1.00
C732   C     0.50005   0.71156   0.64194   0.00000  Uiso   1.00
C733   C     0.75004   0.96156   0.35819   0.00000  Uiso   1.00
C734   C     0.74996   0.53844   0.64181   0.00000  Uiso   1.00
C735   C     0.74995   0.53844   0.35806   0.00000  Uiso   1.00
C736   C     0.75002   0.96156   0.64194   0.00000  Uiso   1.00
C737   C     0.91907   0.61271   0.49438   0.00000  Uiso   1.00
C738   C     0.58429   0.88346   0.47848   0.00000  Uiso   1.00
C739   C     0.63355   0.83436   0.52192   0.00000  Uiso   1.00
C740   C     0.94009   0.80893   0.49987   0.00000  Uiso   1.00
C741   C     0.86301   0.66948   0.50276   0.00000  Uiso   1.00
C742   C     0.58780   0.61910   0.52840   0.00000  Uiso   1.00
C743   C     0.90709   0.87446   0.46460   0.00000  Uiso   1.00
C744   C     0.87353   0.84172   0.53446   0.00000  Uiso   1.00
C745   C     0.63028   0.66302   0.47243   0.00000  Uiso   1.00
C746   C     0.66571   0.86654   0.52152   0.00000  Uiso   1.00
C747   C     0.83093   0.63729   0.50561   0.00000  Uiso   1.00
C748   C     0.88699   0.58052   0.49724   0.00000  Uiso   1.00
C749   C     0.61645   0.91563   0.47808   0.00000  Uiso   1.00
C750   C     0.84291   0.87554   0.53540   0.00000  Uiso   1.00
C751   C     0.94076   0.69053   0.49979   0.00000  Uiso   1.00
C752   C     0.66220   0.63090   0.47160   0.00000  Uiso   1.00
C753   C     0.61972   0.58698   0.52757   0.00000  Uiso   1.00
C754   C     0.87648   0.90828   0.46554   0.00000  Uiso   1.00
C755   C     0.59281   0.84275   0.50025   0.00000  Uiso   1.00
C756   C     0.90721   0.65719   0.49865   0.00000  Uiso   1.00
C757   C     0.90598   0.84183   0.49943   0.00000  Uiso   1.00
C758   C     0.59280   0.65716   0.50050   0.00000  Uiso   1.00
C759   C     0.84279   0.59281   0.50135   0.00000  Uiso   1.00
C760   C     0.65719   0.90725   0.49975   0.00000  Uiso   1.00
C761   C     0.65720   0.59284   0.49950   0.00000  Uiso   1.00
C762   C     0.55945   0.80924   0.50007   0.00000  Uiso   1.00
C763   C     0.84402   0.90817   0.50057   0.00000  Uiso   1.00
C764   C     0.80991   0.94107   0.50013   0.00000  Uiso   1.00
C765   C     0.69082   0.55957   0.49985   0.00000  Uiso   1.00
C766   C     0.69055   0.94076   0.49993   0.00000  Uiso   1.00
C767   C     0.80924   0.55947   0.50021   0.00000  Uiso   1.00
C768   C     0.50004   0.71156   0.35819   0.00000  Uiso   1.00
Cu769  Cu    0.50000   0.75000   0.54689   0.00000  Uiso   1.00
Cu770  Cu    0.50000   0.75000   0.45311   0.00000  Uiso   1.00
Cu771  Cu    0.75000   0.50000   0.54689   0.00000  Uiso   1.00
Cu772  Cu    0.75000   0.50000   0.45311   0.00000  Uiso   1.00
H773   H     0.50006   0.68076   0.37691   0.00000  Uiso   1.00
H774   H     0.52144   0.87414   0.47017   0.00000  Uiso   1.00
H775   H     0.62300   0.77180   0.53356   0.00000  Uiso   1.00
H776   H     0.87255   0.73177   0.49099   0.00000  Uiso   1.00
H777   H     0.52681   0.62901   0.54569   0.00000  Uiso   1.00
H778   H     0.93625   0.89735   0.40836   0.00000  Uiso   1.00
H779   H     0.87985   0.78100   0.55385   0.00000  Uiso   1.00
H780   H     0.62264   0.72551   0.46053   0.00000  Uiso   1.00
H781   H     0.72856   0.87586   0.52983   0.00000  Uiso   1.00
H782   H     0.76981   0.62613   0.52165   0.00000  Uiso   1.00
H783   H     0.87745   0.51823   0.50900   0.00000  Uiso   1.00
H784   H     0.99994   0.81924   0.62309   0.00000  Uiso   1.00
H785   H     0.62701   0.97820   0.46644   0.00000  Uiso   1.00
H786   H     0.81377   0.85267   0.59166   0.00000  Uiso   1.00
H787   H     0.72319   0.62099   0.45431   0.00000  Uiso   1.00
H788   H     0.62736   0.52449   0.53947   0.00000  Uiso   1.00
H789   H     0.87015   0.96900   0.44614   0.00000  Uiso   1.00
H790   H     0.50002   0.81924   0.37667   0.00000  Uiso   1.00
H791   H     0.50010   0.68076   0.62333   0.00000  Uiso   1.00
H792   H     0.75006   0.93076   0.37691   0.00000  Uiso   1.00
H793   H     0.74994   0.56924   0.62308   0.00000  Uiso   1.00
H794   H     0.74990   0.56924   0.37667   0.00000  Uiso   1.00
H795   H     0.74998   0.93076   0.62333   0.00000  Uiso   1.00
H796   H     0.98019   0.62387   0.47835   0.00000  Uiso   1.00
N797   N     0.50000   0.75000   0.61736   0.00000  Uiso   1.00
N798   N     0.50000   0.75000   0.38264   0.00000  Uiso   1.00
N799   N     0.75000   0.50000   0.61736   0.00000  Uiso   1.00
N800   N     0.75000   0.50000   0.38264   0.00000  Uiso   1.00
O801   O     0.54509   0.70491   0.53958   0.00000  Uiso   1.00
O802   O     0.70492   0.54509   0.46042   0.00000  Uiso   1.00
O803   O     0.70492   0.54509   0.53958   0.00000  Uiso   1.00
O804   O     0.79509   0.95491   0.46042   0.00000  Uiso   1.00
O805   O     0.70492   0.95491   0.46042   0.00000  Uiso   1.00
O806   O     0.79509   0.54509   0.53958   0.00000  Uiso   1.00
O807   O     0.79509   0.54509   0.46042   0.00000  Uiso   1.00
O808   O     0.70492   0.95491   0.53958   0.00000  Uiso   1.00
O809   O     0.96165   0.59901   0.48827   0.00000  Uiso   1.00
O810   O     0.54451   0.89387   0.45825   0.00000  Uiso   1.00
O811   O     0.64414   0.79478   0.54269   0.00000  Uiso   1.00
O812   O     0.95492   0.79509   0.46042   0.00000  Uiso   1.00
O813   O     0.84961   0.71263   0.50425   0.00000  Uiso   1.00
O814   O     0.55163   0.61086   0.55593   0.00000  Uiso   1.00
O815   O     0.93995   0.87350   0.43146   0.00000  Uiso   1.00
O816   O     0.87036   0.80896   0.56772   0.00000  Uiso   1.00
O817   O     0.63790   0.70043   0.44629   0.00000  Uiso   1.00
O818   O     0.70549   0.85613   0.54175   0.00000  Uiso   1.00
O819   O     0.78835   0.65099   0.51173   0.00000  Uiso   1.00
O820   O     0.90039   0.53737   0.49575   0.00000  Uiso   1.00
O821   O     0.60586   0.95522   0.45731   0.00000  Uiso   1.00
O822   O     0.81006   0.87650   0.56854   0.00000  Uiso   1.00
O823   O     0.95492   0.79509   0.53958   0.00000  Uiso   1.00
O824   O     0.69837   0.63914   0.44407   0.00000  Uiso   1.00
O825   O     0.61210   0.54957   0.55371   0.00000  Uiso   1.00
O826   O     0.87963   0.94103   0.43228   0.00000  Uiso   1.00
O827   O     0.54509   0.70491   0.46042   0.00000  Uiso   1.00
O828   O     0.95492   0.70491   0.46042   0.00000  Uiso   1.00
O829   O     0.54509   0.79509   0.53958   0.00000  Uiso   1.00
O830   O     0.54509   0.79509   0.46042   0.00000  Uiso   1.00
O831   O     0.95492   0.70491   0.53958   0.00000  Uiso   1.00
O832   O     0.79509   0.95491   0.53958   0.00000  Uiso   1.00
C833   C     0.05919   0.19043   0.83348   0.00000  Uiso   1.00
C834   C     0.49996   0.28844   0.97514   0.00000  Uiso   1.00
C835   C     0.49998   0.28844   0.69139   0.00000  Uiso   1.00
C836   C     0.00005   0.21156   0.97527   0.00000  Uiso   1.00
C837   C     0.25004   0.46156   0.69153   0.00000  Uiso   1.00
C838   C     0.24996   0.03844   0.97514   0.00000  Uiso   1.00
C839   C     0.24995   0.03844   0.69139   0.00000  Uiso   1.00
C840   C     0.25002   0.46156   0.97527   0.00000  Uiso   1.00
C841   C     0.41907   0.11271   0.82772   0.00000  Uiso   1.00
C842   C     0.08429   0.38346   0.81181   0.00000  Uiso   1.00
C843   C     0.13355   0.33436   0.85525   0.00000  Uiso   1.00
C844   C     0.44009   0.30893   0.83320   0.00000  Uiso   1.00
C845   C     0.36301   0.16948   0.83609   0.00000  Uiso   1.00
C846   C     0.08780   0.11910   0.86173   0.00000  Uiso   1.00
C847   C     0.40709   0.37446   0.79793   0.00000  Uiso   1.00
C848   C     0.37353   0.34172   0.86779   0.00000  Uiso   1.00
C849   C     0.13028   0.16302   0.80576   0.00000  Uiso   1.00
C850   C     0.16571   0.36654   0.85486   0.00000  Uiso   1.00
C851   C     0.33093   0.13729   0.83895   0.00000  Uiso   1.00
C852   C     0.38699   0.08052   0.83057   0.00000  Uiso   1.00
C853   C     0.11645   0.41563   0.81141   0.00000  Uiso   1.00
C854   C     0.34291   0.37554   0.86873   0.00000  Uiso   1.00
C855   C     0.44076   0.19053   0.83312   0.00000  Uiso   1.00
C856   C     0.16220   0.13090   0.80494   0.00000  Uiso   1.00
C857   C     0.11972   0.08698   0.86091   0.00000  Uiso   1.00
C858   C     0.37648   0.40828   0.79888   0.00000  Uiso   1.00
C859   C     0.09281   0.34275   0.83358   0.00000  Uiso   1.00
C860   C     0.40721   0.15719   0.83199   0.00000  Uiso   1.00
C861   C     0.40598   0.34183   0.83276   0.00000  Uiso   1.00
C862   C     0.09280   0.15716   0.83383   0.00000  Uiso   1.00
C863   C     0.34279   0.09281   0.83468   0.00000  Uiso   1.00
C864   C     0.15719   0.40725   0.83309   0.00000  Uiso   1.00
C865   C     0.15720   0.09284   0.83284   0.00000  Uiso   1.00
C866   C     0.05945   0.30924   0.83340   0.00000  Uiso   1.00
C867   C     0.34402   0.40817   0.83391   0.00000  Uiso   1.00
C868   C     0.30991   0.44107   0.83346   0.00000  Uiso   1.00
C869   C     0.19082   0.05957   0.83319   0.00000  Uiso   1.00
C870   C     0.19055   0.44076   0.83327   0.00000  Uiso   1.00
C871   C     0.30924   0.05947   0.83355   0.00000  Uiso   1.00
C872   C     0.00004   0.21156   0.69153   0.00000  Uiso   1.00
Cu873  Cu    0.00000   0.25000   0.88022   0.00000  Uiso   1.00
Cu874  Cu    0.00000   0.25000   0.78645   0.00000  Uiso   1.00
Cu875  Cu    0.25000  -0.00000   0.88022   0.00000  Uiso   1.00
Cu876  Cu    0.25000  -0.00000   0.78645   0.00000  Uiso   1.00
H877   H     0.00006   0.18076   0.71025   0.00000  Uiso   1.00
H878   H     0.02144   0.37414   0.80350   0.00000  Uiso   1.00
H879   H     0.12300   0.27180   0.86689   0.00000  Uiso   1.00
H880   H     0.37255   0.23177   0.82433   0.00000  Uiso   1.00
H881   H     0.02681   0.12901   0.87902   0.00000  Uiso   1.00
H882   H     0.43625   0.39735   0.74169   0.00000  Uiso   1.00
H883   H     0.37985   0.28100   0.88719   0.00000  Uiso   1.00
H884   H     0.12264   0.22551   0.79386   0.00000  Uiso   1.00
H885   H     0.22856   0.37586   0.86316   0.00000  Uiso   1.00
H886   H     0.26981   0.12613   0.85498   0.00000  Uiso   1.00
H887   H     0.37745   0.01823   0.84234   0.00000  Uiso   1.00
H888   H     0.49994   0.31924   0.95643   0.00000  Uiso   1.00
H889   H     0.12701   0.47820   0.79978   0.00000  Uiso   1.00
H890   H     0.31377   0.35267   0.92500   0.00000  Uiso   1.00
H891   H     0.22319   0.12099   0.78764   0.00000  Uiso   1.00
H892   H     0.12736   0.02449   0.87281   0.00000  Uiso   1.00
H893   H     0.37015   0.46900   0.77948   0.00000  Uiso   1.00
H894   H     0.00002   0.31924   0.71000   0.00000  Uiso   1.00
H895   H     0.00010   0.18076   0.95666   0.00000  Uiso   1.00
H896   H     0.25006   0.43076   0.71024   0.00000  Uiso   1.00
H897   H     0.24994   0.06924   0.95642   0.00000  Uiso   1.00
H898   H     0.24990   0.06924   0.71000   0.00000  Uiso   1.00
H899   H     0.24998   0.43076   0.95667   0.00000  Uiso   1.00
H900   H     0.48019   0.12387   0.81168   0.00000  Uiso   1.00
N901   N     0.00000   0.25000   0.95069   0.00000  Uiso   1.00
N902   N     0.00000   0.25000   0.71598   0.00000  Uiso   1.00
N903   N     0.25000  -0.00000   0.95069   0.00000  Uiso   1.00
N904   N     0.25000  -0.00000   0.71598   0.00000  Uiso   1.00
O905   O     0.04509   0.20491   0.87291   0.00000  Uiso   1.00
O906   O     0.20492   0.04509   0.79375   0.00000  Uiso   1.00
O907   O     0.20492   0.04509   0.87291   0.00000  Uiso   1.00
O908   O     0.29509   0.45491   0.79375   0.00000  Uiso   1.00
O909   O     0.20492   0.45491   0.79375   0.00000  Uiso   1.00
O910   O     0.29509   0.04509   0.87291   0.00000  Uiso   1.00
O911   O     0.29509   0.04509   0.79375   0.00000  Uiso   1.00
O912   O     0.20492   0.45491   0.87291   0.00000  Uiso   1.00
O913   O     0.46165   0.09901   0.82160   0.00000  Uiso   1.00
O914   O     0.04451   0.39387   0.79158   0.00000  Uiso   1.00
O915   O     0.14414   0.29478   0.87603   0.00000  Uiso   1.00
O916   O     0.45492   0.29509   0.79375   0.00000  Uiso   1.00
O917   O     0.34961   0.21263   0.83759   0.00000  Uiso   1.00
O918   O     0.05163   0.11086   0.88926   0.00000  Uiso   1.00
O919   O     0.43995   0.37350   0.76480   0.00000  Uiso   1.00
O920   O     0.37036   0.30896   0.90105   0.00000  Uiso   1.00
O921   O     0.13790   0.20043   0.77963   0.00000  Uiso   1.00
O922   O     0.20549   0.35613   0.87509   0.00000  Uiso   1.00
O923   O     0.28835   0.15099   0.84507   0.00000  Uiso   1.00
O924   O     0.40039   0.03737   0.82908   0.00000  Uiso   1.00
O925   O     0.10586   0.45522   0.79064   0.00000  Uiso   1.00
O926   O     0.31006   0.37650   0.90187   0.00000  Uiso   1.00
O927   O     0.45492   0.29509   0.87291   0.00000  Uiso   1.00
O928   O     0.19837   0.13914   0.77740   0.00000  Uiso   1.00
O929   O     0.11210   0.04957   0.88704   0.00000  Uiso   1.00
O930   O     0.37963   0.44103   0.76561   0.00000  Uiso   1.00
O931   O     0.04509   0.20491   0.79375   0.00000  Uiso   1.00
O932   O     0.45492   0.20491   0.79375   0.00000  Uiso   1.00
O933   O     0.04509   0.29509   0.87291   0.00000  Uiso   1.00
O934   O     0.04509   0.29509   0.79375   0.00000  Uiso   1.00
O935   O     0.45492   0.20491   0.87291   0.00000  Uiso   1.00
O936   O     0.29509   0.45491   0.87291   0.00000  Uiso   1.00
C937   C     0.55919   0.19043   0.83348   0.00000  Uiso   1.00
C938   C     0.99996   0.28844   0.97514   0.00000  Uiso   1.00
C939   C     0.99998   0.28844   0.69139   0.00000  Uiso   1.00
C940   C     0.50005   0.21156   0.97527   0.00000  Uiso   1.00
C941   C     0.75004   0.46156   0.69153   0.00000  Uiso   1.00
C942   C     0.74996   0.03844   0.97514   0.00000  Uiso   1.00
C943   C     0.74995   0.03844   0.69139   0.00000  Uiso   1.00
C944   C     0.75002   0.46156   0.97527   0.00000  Uiso   1.00
C945   C     0.91907   0.11271   0.82772   0.00000  Uiso   1.00
C946   C     0.58429   0.38346   0.81181   0.00000  Uiso   1.00
C947   C     0.63355   0.33436   0.85525   0.00000  Uiso   1.00
C948   C     0.94009   0.30893   0.83320   0.00000  Uiso   1.00
C949   C     0.86301   0.16948   0.83609   0.00000  Uiso   1.00
C950   C     0.58780   0.11910   0.86173   0.00000  Uiso   1.00
C951   C     0.90709   0.37446   0.79793   0.00000  Uiso   1.00
C952   C     0.87353   0.34172   0.86779   0.00000  Uiso   1.00
C953   C     0.63028   0.16302   0.80576   0.00000  Uiso   1.00
C954   C     0.66571   0.36654   0.85486   0.00000  Uiso   1.00
C955   C     0.83093   0.13729   0.83895   0.00000  Uiso   1.00
C956   C     0.88699   0.08052   0.83057   0.00000  Uiso   1.00
C957   C     0.61645   0.41563   0.81141   0.00000  Uiso   1.00
C958   C     0.84291   0.37554   0.86873   0.00000  Uiso   1.00
C959   C     0.94076   0.19053   0.83312   0.00000  Uiso   1.00
C960   C     0.66220   0.13090   0.80494   0.00000  Uiso   1.00
C961   C     0.61972   0.08698   0.86091   0.00000  Uiso   1.00
C962   C     0.87648   0.40828   0.79888   0.00000  Uiso   1.00
C963   C     0.59281   0.34275   0.83358   0.00000  Uiso   1.00
C964   C     0.90721   0.15719   0.83199   0.00000  Uiso   1.00
C965   C     0.90598   0.34183   0.83276   0.00000  Uiso   1.00
C966   C     0.59280   0.15716   0.83383   0.00000  Uiso   1.00
C967   C     0.84279   0.09281   0.83468   0.00000  Uiso   1.00
C968   C     0.65719   0.40725   0.83309   0.00000  Uiso   1.00
C969   C     0.65720   0.09284   0.83284   0.00000  Uiso   1.00
C970   C     0.55945   0.30924   0.83340   0.00000  Uiso   1.00
C971   C     0.84402   0.40817   0.83391   0.00000  Uiso   1.00
C972   C     0.80991   0.44107   0.83346   0.00000  Uiso   1.00
C973   C     0.69082   0.05957   0.83319   0.00000  Uiso   1.00
C974   C     0.69055   0.44076   0.83327   0.00000  Uiso   1.00
C975   C     0.80924   0.05947   0.83355   0.00000  Uiso   1.00
C976   C     0.50004   0.21156   0.69153   0.00000  Uiso   1.00
Cu977  Cu    0.50000   0.25000   0.88022   0.00000  Uiso   1.00
Cu978  Cu    0.50000   0.25000   0.78645   0.00000  Uiso   1.00
Cu979  Cu    0.75000  -0.00000   0.88022   0.00000  Uiso   1.00
Cu980  Cu    0.75000  -0.00000   0.78645   0.00000  Uiso   1.00
H981   H     0.50006   0.18076   0.71025   0.00000  Uiso   1.00
H982   H     0.52144   0.37414   0.80350   0.00000  Uiso   1.00
H983   H     0.62300   0.27180   0.86689   0.00000  Uiso   1.00
H984   H     0.87255   0.23177   0.82433   0.00000  Uiso   1.00
H985   H     0.52681   0.12901   0.87902   0.00000  Uiso   1.00
H986   H     0.93625   0.39735   0.74169   0.00000  Uiso   1.00
H987   H     0.87985   0.28100   0.88719   0.00000  Uiso   1.00
H988   H     0.62264   0.22551   0.79386   0.00000  Uiso   1.00
H989   H     0.72856   0.37586   0.86316   0.00000  Uiso   1.00
H990   H     0.76981   0.12613   0.85498   0.00000  Uiso   1.00
H991   H     0.87745   0.01823   0.84234   0.00000  Uiso   1.00
H992   H     0.99994   0.31924   0.95643   0.00000  Uiso   1.00
H993   H     0.62701   0.47820   0.79978   0.00000  Uiso   1.00
H994   H     0.81377   0.35267   0.92500   0.00000  Uiso   1.00
H995   H     0.72319   0.12099   0.78764   0.00000  Uiso   1.00
H996   H     0.62736   0.02449   0.87281   0.00000  Uiso   1.00
H997   H     0.87015   0.46900   0.77948   0.00000  Uiso   1.00
H998   H     0.50002   0.31924   0.71000   0.00000  Uiso   1.00
H999   H     0.50010   0.18076   0.95666   0.00000  Uiso   1.00
H1000  H     0.75006   0.43076   0.71024   0.00000  Uiso   1.00
H1001  H     0.74994   0.06924   0.95642   0.00000  Uiso   1.00
H1002  H     0.74990   0.06924   0.71000   0.00000  Uiso   1.00
H1003  H     0.74998   0.43076   0.95667   0.00000  Uiso   1.00
H1004  H     0.98019   0.12387   0.81168   0.00000  Uiso   1.00
N1005  N     0.50000   0.25000   0.95069   0.00000  Uiso   1.00
N1006  N     0.50000   0.25000   0.71598   0.00000  Uiso   1.00
N1007  N     0.75000  -0.00000   0.95069   0.00000  Uiso   1.00
N1008  N     0.75000  -0.00000   0.71598   0.00000  Uiso   1.00
O1009  O     0.54509   0.20491   0.87291   0.00000  Uiso   1.00
O1010  O     0.70492   0.04509   0.79375   0.00000  Uiso   1.00
O1011  O     0.70492   0.04509   0.87291   0.00000  Uiso   1.00
O1012  O     0.79509   0.45491   0.79375   0.00000  Uiso   1.00
O1013  O     0.70492   0.45491   0.79375   0.00000  Uiso   1.00
O1014  O     0.79509   0.04509   0.87291   0.00000  Uiso   1.00
O1015  O     0.79509   0.04509   0.79375   0.00000  Uiso   1.00
O1016  O     0.70492   0.45491   0.87291   0.00000  Uiso   1.00
O1017  O     0.96165   0.09901   0.82160   0.00000  Uiso   1.00
O1018  O     0.54451   0.39387   0.79158   0.00000  Uiso   1.00
O1019  O     0.64414   0.29478   0.87603   0.00000  Uiso   1.00
O1020  O     0.95492   0.29509   0.79375   0.00000  Uiso   1.00
O1021  O     0.84961   0.21263   0.83759   0.00000  Uiso   1.00
O1022  O     0.55163   0.11086   0.88926   0.00000  Uiso   1.00
O1023  O     0.93995   0.37350   0.76480   0.00000  Uiso   1.00
O1024  O     0.87036   0.30896   0.90105   0.00000  Uiso   1.00
O1025  O     0.63790   0.20043   0.77963   0.00000  Uiso   1.00
O1026  O     0.70549   0.35613   0.87509   0.00000  Uiso   1.00
O1027  O     0.78835   0.15099   0.84507   0.00000  Uiso   1.00
O1028  O     0.90039   0.03737   0.82908   0.00000  Uiso   1.00
O1029  O     0.60586   0.45522   0.79064   0.00000  Uiso   1.00
O1030  O     0.81006   0.37650   0.90187   0.00000  Uiso   1.00
O1031  O     0.95492   0.29509   0.87291   0.00000  Uiso   1.00
O1032  O     0.69837   0.13914   0.77740   0.00000  Uiso   1.00
O1033  O     0.61210   0.04957   0.88704   0.00000  Uiso   1.00
O1034  O     0.87963   0.44103   0.76561   0.00000  Uiso   1.00
O1035  O     0.54509   0.20491   0.79375   0.00000  Uiso   1.00
O1036  O     0.95492   0.20491   0.79375   0.00000  Uiso   1.00
O1037  O     0.54509   0.29509   0.87291   0.00000  Uiso   1.00
O1038  O     0.54509   0.29509   0.79375   0.00000  Uiso   1.00
O1039  O     0.95492   0.20491   0.87291   0.00000  Uiso   1.00
O1040  O     0.79509   0.45491   0.87291   0.00000  Uiso   1.00
C1041  C     0.05919   0.69043   0.83348   0.00000  Uiso   1.00
C1042  C     0.49996   0.78844   0.97514   0.00000  Uiso   1.00
C1043  C     0.49998   0.78844   0.69139   0.00000  Uiso   1.00
C1044  C     0.00005   0.71156   0.97527   0.00000  Uiso   1.00
C1045  C     0.25004   0.96156   0.69153   0.00000  Uiso   1.00
C1046  C     0.24996   0.53844   0.97514   0.00000  Uiso   1.00
C1047  C     0.24995   0.53844   0.69139   0.00000  Uiso   1.00
C1048  C     0.25002   0.96156   0.97527   0.00000  Uiso   1.00
C1049  C     0.41907   0.61271   0.82772   0.00000  Uiso   1.00
C1050  C     0.08429   0.88346   0.81181   0.00000  Uiso   1.00
C1051  C     0.13355   0.83436   0.85525   0.00000  Uiso   1.00
C1052  C     0.44009   0.80893   0.83320   0.00000  Uiso   1.00
C1053  C     0.36301   0.66948   0.83609   0.00000  Uiso   1.00
C1054  C     0.08780   0.61910   0.86173   0.00000  Uiso   1.00
C1055  C     0.40709   0.87446   0.79793   0.00000  Uiso   1.00
C1056  C     0.37353   0.84172   0.86779   0.00000  Uiso   1.00
C1057  C     0.13028   0.66302   0.80576   0.00000  Uiso   1.00
C1058  C     0.16571   0.86654   0.85486   0.00000  Uiso   1.00
C1059  C     0.33093   0.63729   0.83895   0.00000  Uiso   1.00
C1060  C     0.38699   0.58052   0.83057   0.00000  Uiso   1.00
C1061  C     0.11645   0.91563   0.81141   0.00000  Uiso   1.00
C1062  C     0.34291   0.87554   0.86873   0.00000  Uiso   1.00
C1063  C     0.44076   0.69053   0.83312   0.00000  Uiso   1.00
C1064  C     0.16220   0.63090   0.80494   0.00000  Uiso   1.00
C1065  C     0.11972   0.58698   0.86091   0.00000  Uiso   1.00
C1066  C     0.37648   0.90828   0.79888   0.00000  Uiso   1.00
C1067  C     0.09281   0.84275   0.83358   0.00000  Uiso   1.00
C1068  C     0.40721   0.65719   0.83199   0.00000  Uiso   1.00
C1069  C     0.40598   0.84183   0.83276   0.00000  Uiso   1.00
C1070  C     0.09280   0.65716   0.83383   0.00000  Uiso   1.00
C1071  C     0.34279   0.59281   0.83468   0.00000  Uiso   1.00
C1072  C     0.15719   0.90725   0.83309   0.00000  Uiso   1.00
C1073  C     0.15720   0.59284   0.83284   0.00000  Uiso   1.00
C1074  C     0.05945   0.80924   0.83340   0.00000  Uiso   1.00
C1075  C     0.34402   0.90817   0.83391   0.00000  Uiso   1.00
C1076  C     0.30991   0.94107   0.83346   0.00000  Uiso   1.00
C1077  C     0.19082   0.55957   0.83319   0.00000  Uiso   1.00
C1078  C     0.19055   0.94076   0.83327   0.00000  Uiso   1.00
C1079  C     0.30924   0.55947   0.83355   0.00000  Uiso   1.00
C1080  C     0.00004   0.71156   0.69153   0.00000  Uiso   1.00
Cu1081 Cu    0.00000   0.75000   0.88022   0.00000  Uiso   1.00
Cu1082 Cu    0.00000   0.75000   0.78645   0.00000  Uiso   1.00
Cu1083 Cu    0.25000   0.50000   0.88022   0.00000  Uiso   1.00
Cu1084 Cu    0.25000   0.50000   0.78645   0.00000  Uiso   1.00
H1085  H     0.00006   0.68076   0.71025   0.00000  Uiso   1.00
H1086  H     0.02144   0.87414   0.80350   0.00000  Uiso   1.00
H1087  H     0.12300   0.77180   0.86689   0.00000  Uiso   1.00
H1088  H     0.37255   0.73177   0.82433   0.00000  Uiso   1.00
H1089  H     0.02681   0.62901   0.87902   0.00000  Uiso   1.00
H1090  H     0.43625   0.89735   0.74169   0.00000  Uiso   1.00
H1091  H     0.37985   0.78100   0.88719   0.00000  Uiso   1.00
H1092  H     0.12264   0.72551   0.79386   0.00000  Uiso   1.00
H1093  H     0.22856   0.87586   0.86316   0.00000  Uiso   1.00
H1094  H     0.26981   0.62613   0.85498   0.00000  Uiso   1.00
H1095  H     0.37745   0.51823   0.84234   0.00000  Uiso   1.00
H1096  H     0.49994   0.81924   0.95643   0.00000  Uiso   1.00
H1097  H     0.12701   0.97820   0.79978   0.00000  Uiso   1.00
H1098  H     0.31377   0.85267   0.92500   0.00000  Uiso   1.00
H1099  H     0.22319   0.62099   0.78764   0.00000  Uiso   1.00
H1100  H     0.12736   0.52449   0.87281   0.00000  Uiso   1.00
H1101  H     0.37015   0.96900   0.77948   0.00000  Uiso   1.00
H1102  H     0.00002   0.81924   0.71000   0.00000  Uiso   1.00
H1103  H     0.00010   0.68076   0.95666   0.00000  Uiso   1.00
H1104  H     0.25006   0.93076   0.71024   0.00000  Uiso   1.00
H1105  H     0.24994   0.56924   0.95642   0.00000  Uiso   1.00
H1106  H     0.24990   0.56924   0.71000   0.00000  Uiso   1.00
H1107  H     0.24998   0.93076   0.95667   0.00000  Uiso   1.00
H1108  H     0.48019   0.62387   0.81168   0.00000  Uiso   1.00
N1109  N     0.00000   0.75000   0.95069   0.00000  Uiso   1.00
N1110  N     0.00000   0.75000   0.71598   0.00000  Uiso   1.00
N1111  N     0.25000   0.50000   0.95069   0.00000  Uiso   1.00
N1112  N     0.25000   0.50000   0.71598   0.00000  Uiso   1.00
O1113  O     0.04509   0.70491   0.87291   0.00000  Uiso   1.00
O1114  O     0.20492   0.54509   0.79375   0.00000  Uiso   1.00
O1115  O     0.20492   0.54509   0.87291   0.00000  Uiso   1.00
O1116  O     0.29509   0.95491   0.79375   0.00000  Uiso   1.00
O1117  O     0.20492   0.95491   0.79375   0.00000  Uiso   1.00
O1118  O     0.29509   0.54509   0.87291   0.00000  Uiso   1.00
O1119  O     0.29509   0.54509   0.79375   0.00000  Uiso   1.00
O1120  O     0.20492   0.95491   0.87291   0.00000  Uiso   1.00
O1121  O     0.46165   0.59901   0.82160   0.00000  Uiso   1.00
O1122  O     0.04451   0.89387   0.79158   0.00000  Uiso   1.00
O1123  O     0.14414   0.79478   0.87603   0.00000  Uiso   1.00
O1124  O     0.45492   0.79509   0.79375   0.00000  Uiso   1.00
O1125  O     0.34961   0.71263   0.83759   0.00000  Uiso   1.00
O1126  O     0.05163   0.61086   0.88926   0.00000  Uiso   1.00
O1127  O     0.43995   0.87350   0.76480   0.00000  Uiso   1.00
O1128  O     0.37036   0.80896   0.90105   0.00000  Uiso   1.00
O1129  O     0.13790   0.70043   0.77963   0.00000  Uiso   1.00
O1130  O     0.20549   0.85613   0.87509   0.00000  Uiso   1.00
O1131  O     0.28835   0.65099   0.84507   0.00000  Uiso   1.00
O1132  O     0.40039   0.53737   0.82908   0.00000  Uiso   1.00
O1133  O     0.10586   0.95522   0.79064   0.00000  Uiso   1.00
O1134  O     0.31006   0.87650   0.90187   0.00000  Uiso   1.00
O1135  O     0.45492   0.79509   0.87291   0.00000  Uiso   1.00
O1136  O     0.19837   0.63914   0.77740   0.00000  Uiso   1.00
O1137  O     0.11210   0.54957   0.88704   0.00000  Uiso   1.00
O1138  O     0.37963   0.94103   0.76561   0.00000  Uiso   1.00
O1139  O     0.04509   0.70491   0.79375   0.00000  Uiso   1.00
O1140  O     0.45492   0.70491   0.79375   0.00000  Uiso   1.00
O1141  O     0.04509   0.79509   0.87291   0.00000  Uiso   1.00
O1142  O     0.04509   0.79509   0.79375   0.00000  Uiso   1.00
O1143  O     0.45492   0.70491   0.87291   0.00000  Uiso   1.00
O1144  O     0.29509   0.95491   0.87291   0.00000  Uiso   1.00
C1145  C     0.55919   0.69043   0.83348   0.00000  Uiso   1.00
C1146  C     0.99996   0.78844   0.97514   0.00000  Uiso   1.00
C1147  C     0.99998   0.78844   0.69139   0.00000  Uiso   1.00
C1148  C     0.50005   0.71156   0.97527   0.00000  Uiso   1.00
C1149  C     0.75004   0.96156   0.69153   0.00000  Uiso   1.00
C1150  C     0.74996   0.53844   0.97514   0.00000  Uiso   1.00
C1151  C     0.74995   0.53844   0.69139   0.00000  Uiso   1.00
C1152  C     0.75002   0.96156   0.97527   0.00000  Uiso   1.00
C1153  C     0.91907   0.61271   0.82772   0.00000  Uiso   1.00
C1154  C     0.58429   0.88346   0.81181   0.00000  Uiso   1.00
C1155  C     0.63355   0.83436   0.85525   0.00000  Uiso   1.00
C1156  C     0.94009   0.80893   0.83320   0.00000  Uiso   1.00
C1157  C     0.86301   0.66948   0.83609   0.00000  Uiso   1.00
C1158  C     0.58780   0.61910   0.86173   0.00000  Uiso   1.00
C1159  C     0.90709   0.87446   0.79793   0.00000  Uiso   1.00
C1160  C     0.87353   0.84172   0.86779   0.00000  Uiso   1.00
C1161  C     0.63028   0.66302   0.80576   0.00000  Uiso   1.00
C1162  C     0.66571   0.86654   0.85486   0.00000  Uiso   1.00
C1163  C     0.83093   0.63729   0.83895   0.00000  Uiso   1.00
C1164  C     0.88699   0.58052   0.83057   0.00000  Uiso   1.00
C1165  C     0.61645   0.91563   0.81141   0.00000  Uiso   1.00
C1166  C     0.84291   0.87554   0.86873   0.00000  Uiso   1.00
C1167  C     0.94076   0.69053   0.83312   0.00000  Uiso   1.00
C1168  C     0.66220   0.63090   0.80494   0.00000  Uiso   1.00
C1169  C     0.61972   0.58698   0.86091   0.00000  Uiso   1.00
C1170  C     0.87648   0.90828   0.79888   0.00000  Uiso   1.00
C1171  C     0.59281   0.84275   0.83358   0.00000  Uiso   1.00
C1172  C     0.90721   0.65719   0.83199   0.00000  Uiso   1.00
C1173  C     0.90598   0.84183   0.83276   0.00000  Uiso   1.00
C1174  C     0.59280   0.65716   0.83383   0.00000  Uiso   1.00
C1175  C     0.84279   0.59281   0.83468   0.00000  Uiso   1.00
C1176  C     0.65719   0.90725   0.83309   0.00000  Uiso   1.00
C1177  C     0.65720   0.59284   0.83284   0.00000  Uiso   1.00
C1178  C     0.55945   0.80924   0.83340   0.00000  Uiso   1.00
C1179  C     0.84402   0.90817   0.83391   0.00000  Uiso   1.00
C1180  C     0.80991   0.94107   0.83346   0.00000  Uiso   1.00
C1181  C     0.69082   0.55957   0.83319   0.00000  Uiso   1.00
C1182  C     0.69055   0.94076   0.83327   0.00000  Uiso   1.00
C1183  C     0.80924   0.55947   0.83355   0.00000  Uiso   1.00
C1184  C     0.50004   0.71156   0.69153   0.00000  Uiso   1.00
Cu1185 Cu    0.50000   0.75000   0.88022   0.00000  Uiso   1.00
Cu1186 Cu    0.50000   0.75000   0.78645   0.00000  Uiso   1.00
Cu1187 Cu    0.75000   0.50000   0.88022   0.00000  Uiso   1.00
Cu1188 Cu    0.75000   0.50000   0.78645   0.00000  Uiso   1.00
H1189  H     0.50006   0.68076   0.71025   0.00000  Uiso   1.00
H1190  H     0.52144   0.87414   0.80350   0.00000  Uiso   1.00
H1191  H     0.62300   0.77180   0.86689   0.00000  Uiso   1.00
H1192  H     0.87255   0.73177   0.82433   0.00000  Uiso   1.00
H1193  H     0.52681   0.62901   0.87902   0.00000  Uiso   1.00
H1194  H     0.93625   0.89735   0.74169   0.00000  Uiso   1.00
H1195  H     0.87985   0.78100   0.88719   0.00000  Uiso   1.00
H1196  H     0.62264   0.72551   0.79386   0.00000  Uiso   1.00
H1197  H     0.72856   0.87586   0.86316   0.00000  Uiso   1.00
H1198  H     0.76981   0.62613   0.85498   0.00000  Uiso   1.00
H1199  H     0.87745   0.51823   0.84234   0.00000  Uiso   1.00
H1200  H     0.99994   0.81924   0.95643   0.00000  Uiso   1.00
H1201  H     0.62701   0.97820   0.79978   0.00000  Uiso   1.00
H1202  H     0.81377   0.85267   0.92500   0.00000  Uiso   1.00
H1203  H     0.72319   0.62099   0.78764   0.00000  Uiso   1.00
H1204  H     0.62736   0.52449   0.87281   0.00000  Uiso   1.00
H1205  H     0.87015   0.96900   0.77948   0.00000  Uiso   1.00
H1206  H     0.50002   0.81924   0.71000   0.00000  Uiso   1.00
H1207  H     0.50010   0.68076   0.95666   0.00000  Uiso   1.00
H1208  H     0.75006   0.93076   0.71024   0.00000  Uiso   1.00
H1209  H     0.74994   0.56924   0.95642   0.00000  Uiso   1.00
H1210  H     0.74990   0.56924   0.71000   0.00000  Uiso   1.00
H1211  H     0.74998   0.93076   0.95667   0.00000  Uiso   1.00
H1212  H     0.98019   0.62387   0.81168   0.00000  Uiso   1.00
N1213  N     0.50000   0.75000   0.95069   0.00000  Uiso   1.00
N1214  N     0.50000   0.75000   0.71598   0.00000  Uiso   1.00
N1215  N     0.75000   0.50000   0.95069   0.00000  Uiso   1.00
N1216  N     0.75000   0.50000   0.71598   0.00000  Uiso   1.00
O1217  O     0.54509   0.70491   0.87291   0.00000  Uiso   1.00
O1218  O     0.70492   0.54509   0.79375   0.00000  Uiso   1.00
O1219  O     0.70492   0.54509   0.87291   0.00000  Uiso   1.00
O1220  O     0.79509   0.95491   0.79375   0.00000  Uiso   1.00
O1221  O     0.70492   0.95491   0.79375   0.00000  Uiso   1.00
O1222  O     0.79509   0.54509   0.87291   0.00000  Uiso   1.00
O1223  O     0.79509   0.54509   0.79375   0.00000  Uiso   1.00
O1224  O     0.70492   0.95491   0.87291   0.00000  Uiso   1.00
O1225  O     0.96165   0.59901   0.82160   0.00000  Uiso   1.00
O1226  O     0.54451   0.89387   0.79158   0.00000  Uiso   1.00
O1227  O     0.64414   0.79478   0.87603   0.00000  Uiso   1.00
O1228  O     0.95492   0.79509   0.79375   0.00000  Uiso   1.00
O1229  O     0.84961   0.71263   0.83759   0.00000  Uiso   1.00
O1230  O     0.55163   0.61086   0.88926   0.00000  Uiso   1.00
O1231  O     0.93995   0.87350   0.76480   0.00000  Uiso   1.00
O1232  O     0.87036   0.80896   0.90105   0.00000  Uiso   1.00
O1233  O     0.63790   0.70043   0.77963   0.00000  Uiso   1.00
O1234  O     0.70549   0.85613   0.87509   0.00000  Uiso   1.00
O1235  O     0.78835   0.65099   0.84507   0.00000  Uiso   1.00
O1236  O     0.90039   0.53737   0.82908   0.00000  Uiso   1.00
O1237  O     0.60586   0.95522   0.79064   0.00000  Uiso   1.00
O1238  O     0.81006   0.87650   0.90187   0.00000  Uiso   1.00
O1239  O     0.95492   0.79509   0.87291   0.00000  Uiso   1.00
O1240  O     0.69837   0.63914   0.77740   0.00000  Uiso   1.00
O1241  O     0.61210   0.54957   0.88704   0.00000  Uiso   1.00
O1242  O     0.87963   0.94103   0.76561   0.00000  Uiso   1.00
O1243  O     0.54509   0.70491   0.79375   0.00000  Uiso   1.00
O1244  O     0.95492   0.70491   0.79375   0.00000  Uiso   1.00
O1245  O     0.54509   0.79509   0.87291   0.00000  Uiso   1.00
O1246  O     0.54509   0.79509   0.79375   0.00000  Uiso   1.00
O1247  O     0.95492   0.70491   0.87291   0.00000  Uiso   1.00
O1248  O     0.79509   0.95491   0.87291   0.00000  Uiso   1.00
loop_
_geom_bond_atom_site_label_1
_geom_bond_atom_site_label_2
_geom_bond_distance
_geom_bond_site_symmetry_2
_ccdc_geom_bond_type
C1     O99     1.291   .     A
C1     O73     1.289   .     A
C1     C30     1.450   .     S
C2     N173    1.367   .     A
C2     H56     1.082   .     S
C2     C419    1.418   .     S
C3     N174    1.367   .     A
C3     C834    1.418   1_554 S
C3     H166    1.082   .     S
C4     H63     1.082   .     S
C4     C456    1.418   .     S
C4     N69     1.367   .     S
C5     H64     1.082   .     S
C5     C840    1.418   1_554 S
C5     N280    1.367   .     S
C6     H65     1.082   .     S
C6     N71     1.367   .     A
C6     C423    1.418   .     S
C7     N72     1.367   .     A
C7     H66     1.082   .     S
C7     C838    1.418   1_554 S
C8     H67     1.082   .     S
C8     C421    1.418   .     S
C8     N279    1.367   .     S
C9     C20     1.390   .     A
C9     C28     1.413   .     A
C9     O81     1.384   .     S
C10    C27     1.415   .     A
C10    C21     1.389   .     A
C10    O82     1.385   .     S
C11    C18     1.389   .     A
C11    O83     1.385   .     S
C11    C27     1.415   .     A
C12    C29     1.453   .     S
C12    O84     1.291   .     A
C12    O95     1.292   .     A
C13    C19     1.390   .     A
C13    C28     1.413   .     A
C13    O85     1.383   .     S
C14    C30     1.417   .     A
C14    O86     1.384   .     S
C14    C25     1.389   .     A
C15    C29     1.408   .     A
C15    C26     1.399   .     A
C15    O87     1.386   .     S
C16    C22     1.399   .     A
C16    C29     1.415   .     A
C16    O88     1.383   .     S
C17    C30     1.415   .     A
C17    C24     1.389   .     A
C17    O89     1.384   .     S
C18    O90     1.385   .     S
C18    C32     1.415   .     A
C19    C31     1.413   .     A
C19    O91     1.384   .     S
C20    O92     1.383   .     S
C20    C31     1.413   .     A
C21    C32     1.415   .     A
C21    O93     1.385   .     S
C22    C35     1.408   .     A
C22    O94     1.386   .     S
C23    O103    1.292   .     A
C23    O100    1.284   .     A
C23    C28     1.444   .     S
C24    O96     1.384   .     S
C24    C33     1.417   .     A
C25    C33     1.415   .     A
C25    O97     1.384   .     S
C26    O98     1.383   .     S
C26    C35     1.415   .     A
C27    C34     1.443   .     S
C31    C39     1.444   .     S
C32    C38     1.443   .     S
C33    C37     1.450   .     S
C34    O102    1.289   .     A
C34    O101    1.288   .     A
C35    C36     1.453   .     S
C36    O76     1.292   .     A
C36    O104    1.291   .     A
C37    O74     1.289   .     A
C37    O75     1.291   .     A
C38    O77     1.288   .     A
C38    O80     1.289   .     A
C39    O78     1.284   .     A
C39    O79     1.292   .     A
C40    H45     1.082   .     S
C40    C836    1.418   1_554 S
C40    N70     1.367   .     S
Cu41   Cu42    2.681   .     S
Cu41   N69     2.015   .     S
Cu41   O207    1.957   1_455 S
Cu41   O199    1.965   1_455 S
Cu41   O73     1.967   .     S
Cu41   O101    1.958   .     S
Cu42   N70     2.015   .     S
Cu42   O188    1.967   1_455 S
Cu42   O204    1.958   1_455 S
Cu42   O99     1.965   .     S
Cu42   O102    1.957   .     S
Cu43   O78     1.958   .     S
Cu43   O75     1.965   .     S
Cu43   Cu44    2.681   .     S
Cu43   N71     2.015   .     S
Cu43   O288    1.957   1_545 S
Cu43   O312    1.967   1_545 S
Cu44   O74     1.967   .     S
Cu44   O79     1.957   .     S
Cu44   N72     2.015   .     S
Cu44   O284    1.965   1_545 S
Cu44   O285    1.958   1_545 S
H46    O82     0.988   .     S
H47    O83     0.988   .     S
H48    O85     0.989   .     S
H49    O86     0.986   .     S
H50    O87     0.989   .     S
H51    O88     0.988   .     S
H52    O89     0.989   .     S
H53    O90     0.988   .     S
H54    O91     0.988   .     S
H55    O92     0.989   .     S
H57    O93     0.988   .     S
H58    O94     0.989   .     S
H59    O96     0.986   .     S
H60    O97     0.989   .     S
H61    O98     0.988   .     S
H62    C107    1.082   1_455 S
H68    O81     0.988   .     S
N69    C106    1.367   1_455 A
N70    C107    1.367   1_455 A
N71    C216    1.367   1_545 S
N72    C213    1.367   1_545 S
O76    Cu252   1.965   .     S
O77    Cu252   1.958   .     S
O80    Cu251   1.957   .     S
O84    Cu146   1.967   .     S
O95    Cu145   1.965   .     S
O100   Cu146   1.958   .     S
O103   Cu145   1.957   .     S
O104   Cu251   1.967   .     S
C105   O203    1.291   .     A
C105   O177    1.289   .     A
C105   C134    1.450   .     S
C106   N69     1.367   1_655 A
C106   H160    1.082   .     S
C106   C523    1.418   .     S
C107   N70     1.367   1_655 A
C107   C938    1.418   1_554 S
C107   H62     1.082   1_655 S
C108   H167    1.082   .     S
C108   C560    1.418   .     S
C108   N173    1.367   .     S
C109   H168    1.082   .     S
C109   C944    1.418   1_554 S
C109   N384    1.367   .     S
C110   H169    1.082   .     S
C110   N175    1.367   .     A
C110   C527    1.418   .     S
C111   N176    1.367   .     A
C111   H170    1.082   .     S
C111   C942    1.418   1_554 S
C112   H171    1.082   .     S
C112   C525    1.418   .     S
C112   N383    1.367   .     S
C113   C124    1.390   .     A
C113   C132    1.413   .     A
C113   O185    1.384   .     S
C114   C131    1.415   .     A
C114   C125    1.389   .     A
C114   O186    1.385   .     S
C115   C122    1.389   .     A
C115   O187    1.385   .     S
C115   C131    1.415   .     A
C116   C133    1.453   .     S
C116   O188    1.291   .     A
C116   O199    1.292   .     A
C117   C123    1.390   .     A
C117   C132    1.413   .     A
C117   O189    1.383   .     S
C118   C134    1.417   .     A
C118   O190    1.384   .     S
C118   C129    1.389   .     A
C119   C133    1.408   .     A
C119   C130    1.399   .     A
C119   O191    1.386   .     S
C120   C126    1.399   .     A
C120   C133    1.415   .     A
C120   O192    1.383   .     S
C121   C134    1.415   .     A
C121   C128    1.389   .     A
C121   O193    1.384   .     S
C122   O194    1.385   .     S
C122   C136    1.415   .     A
C123   C135    1.413   .     A
C123   O195    1.384   .     S
C124   O196    1.383   .     S
C124   C135    1.413   .     A
C125   C136    1.415   .     A
C125   O197    1.385   .     S
C126   C139    1.408   .     A
C126   O198    1.386   .     S
C127   O207    1.292   .     A
C127   O204    1.284   .     A
C127   C132    1.444   .     S
C128   O200    1.384   .     S
C128   C137    1.417   .     A
C129   C137    1.415   .     A
C129   O201    1.384   .     S
C130   O202    1.383   .     S
C130   C139    1.415   .     A
C131   C138    1.443   .     S
C135   C143    1.444   .     S
C136   C142    1.443   .     S
C137   C141    1.450   .     S
C138   O206    1.289   .     A
C138   O205    1.288   .     A
C139   C140    1.453   .     S
C140   O180    1.292   .     A
C140   O208    1.291   .     A
C141   O178    1.289   .     A
C141   O179    1.291   .     A
C142   O181    1.288   .     A
C142   O184    1.289   .     A
C143   O182    1.284   .     A
C143   O183    1.292   .     A
C144   H149    1.082   .     S
C144   C940    1.418   1_554 S
C144   N174    1.367   .     S
Cu145  Cu146   2.681   .     S
Cu145  N173    2.015   .     S
Cu145  O177    1.967   .     S
Cu145  O205    1.958   .     S
Cu146  N174    2.015   .     S
Cu146  O203    1.965   .     S
Cu146  O206    1.957   .     S
Cu147  O182    1.958   .     S
Cu147  O179    1.965   .     S
Cu147  Cu148   2.681   .     S
Cu147  N175    2.015   .     S
Cu147  O392    1.957   1_545 S
Cu147  O416    1.967   1_545 S
Cu148  O178    1.967   .     S
Cu148  O183    1.957   .     S
Cu148  N176    2.015   .     S
Cu148  O388    1.965   1_545 S
Cu148  O389    1.958   1_545 S
H150   O186    0.988   .     S
H151   O187    0.988   .     S
H152   O189    0.989   .     S
H153   O190    0.986   .     S
H154   O191    0.989   .     S
H155   O192    0.988   .     S
H156   O193    0.989   .     S
H157   O194    0.988   .     S
H158   O195    0.988   .     S
H159   O196    0.989   .     S
H161   O197    0.988   .     S
H162   O198    0.989   .     S
H163   O200    0.986   .     S
H164   O201    0.989   .     S
H165   O202    0.988   .     S
H172   O185    0.988   .     S
N175   C320    1.367   1_545 S
N176   C317    1.367   1_545 S
O180   Cu356   1.965   .     S
O181   Cu356   1.958   .     S
O184   Cu355   1.957   .     S
O188   Cu42    1.967   1_655 S
O199   Cu41    1.965   1_655 S
O204   Cu42    1.958   1_655 S
O207   Cu41    1.957   1_655 S
O208   Cu355   1.967   .     S
C209   O307    1.291   .     A
C209   O281    1.289   .     A
C209   C238    1.450   .     S
C210   N381    1.367   .     A
C210   H264    1.082   .     S
C210   C627    1.418   .     S
C211   N382    1.367   .     A
C211   C1042   1.418   1_554 S
C211   H374    1.082   .     S
C212   H271    1.082   .     S
C212   C664    1.418   .     S
C212   N277    1.367   .     S
C213   H272    1.082   .     S
C213   C1048   1.418   1_554 S
C213   N72     1.367   1_565 S
C214   H273    1.082   .     S
C214   N279    1.367   .     A
C214   C631    1.418   .     S
C215   N280    1.367   .     A
C215   H274    1.082   .     S
C215   C1046   1.418   1_554 S
C216   H275    1.082   .     S
C216   C629    1.418   .     S
C216   N71     1.367   1_565 S
C217   C228    1.390   .     A
C217   C236    1.413   .     A
C217   O289    1.384   .     S
C218   C235    1.415   .     A
C218   C229    1.389   .     A
C218   O290    1.385   .     S
C219   C226    1.389   .     A
C219   O291    1.385   .     S
C219   C235    1.415   .     A
C220   C237    1.453   .     S
C220   O292    1.291   .     A
C220   O303    1.292   .     A
C221   C227    1.390   .     A
C221   C236    1.413   .     A
C221   O293    1.383   .     S
C222   C238    1.417   .     A
C222   O294    1.384   .     S
C222   C233    1.389   .     A
C223   C237    1.408   .     A
C223   C234    1.399   .     A
C223   O295    1.386   .     S
C224   C230    1.399   .     A
C224   C237    1.415   .     A
C224   O296    1.383   .     S
C225   C238    1.415   .     A
C225   C232    1.389   .     A
C225   O297    1.384   .     S
C226   O298    1.385   .     S
C226   C240    1.415   .     A
C227   C239    1.413   .     A
C227   O299    1.384   .     S
C228   O300    1.383   .     S
C228   C239    1.413   .     A
C229   C240    1.415   .     A
C229   O301    1.385   .     S
C230   C243    1.408   .     A
C230   O302    1.386   .     S
C231   O311    1.292   .     A
C231   O308    1.284   .     A
C231   C236    1.444   .     S
C232   O304    1.384   .     S
C232   C241    1.417   .     A
C233   C241    1.415   .     A
C233   O305    1.384   .     S
C234   O306    1.383   .     S
C234   C243    1.415   .     A
C235   C242    1.443   .     S
C239   C247    1.444   .     S
C240   C246    1.443   .     S
C241   C245    1.450   .     S
C242   O310    1.289   .     A
C242   O309    1.288   .     A
C243   C244    1.453   .     S
C244   O284    1.292   .     A
C244   O312    1.291   .     A
C245   O282    1.289   .     A
C245   O283    1.291   .     A
C246   O285    1.288   .     A
C246   O288    1.289   .     A
C247   O286    1.284   .     A
C247   O287    1.292   .     A
C248   H253    1.082   .     S
C248   C1044   1.418   1_554 S
C248   N278    1.367   .     S
Cu249  Cu250   2.681   .     S
Cu249  N277    2.015   .     S
Cu249  O415    1.957   1_455 S
Cu249  O407    1.965   1_455 S
Cu249  O281    1.967   .     S
Cu249  O309    1.958   .     S
Cu250  N278    2.015   .     S
Cu250  O396    1.967   1_455 S
Cu250  O412    1.958   1_455 S
Cu250  O307    1.965   .     S
Cu250  O310    1.957   .     S
Cu251  O286    1.958   .     S
Cu251  O283    1.965   .     S
Cu251  Cu252   2.681   .     S
Cu251  N279    2.015   .     S
Cu252  O282    1.967   .     S
Cu252  O287    1.957   .     S
Cu252  N280    2.015   .     S
H254   O290    0.988   .     S
H255   O291    0.988   .     S
H256   O293    0.989   .     S
H257   O294    0.986   .     S
H258   O295    0.989   .     S
H259   O296    0.988   .     S
H260   O297    0.989   .     S
H261   O298    0.988   .     S
H262   O299    0.988   .     S
H263   O300    0.989   .     S
H265   O301    0.988   .     S
H266   O302    0.989   .     S
H267   O304    0.986   .     S
H268   O305    0.989   .     S
H269   O306    0.988   .     S
H270   C315    1.082   1_455 S
H276   O289    0.988   .     S
N277   C314    1.367   1_455 A
N278   C315    1.367   1_455 A
O284   Cu44    1.965   1_565 S
O285   Cu44    1.958   1_565 S
O288   Cu43    1.957   1_565 S
O292   Cu354   1.967   .     S
O303   Cu353   1.965   .     S
O308   Cu354   1.958   .     S
O311   Cu353   1.957   .     S
O312   Cu43    1.967   1_565 S
C313   O411    1.291   .     A
C313   O385    1.289   .     A
C313   C342    1.450   .     S
C314   N277    1.367   1_655 A
C314   H368    1.082   .     S
C314   C731    1.418   .     S
C315   N278    1.367   1_655 A
C315   C1146   1.418   1_554 S
C315   H270    1.082   1_655 S
C316   H375    1.082   .     S
C316   C768    1.418   .     S
C316   N381    1.367   .     S
C317   H376    1.082   .     S
C317   C1152   1.418   1_554 S
C317   N176    1.367   1_565 S
C318   H377    1.082   .     S
C318   N383    1.367   .     A
C318   C735    1.418   .     S
C319   N384    1.367   .     A
C319   H378    1.082   .     S
C319   C1150   1.418   1_554 S
C320   H379    1.082   .     S
C320   C733    1.418   .     S
C320   N175    1.367   1_565 S
C321   C332    1.390   .     A
C321   C340    1.413   .     A
C321   O393    1.384   .     S
C322   C339    1.415   .     A
C322   C333    1.389   .     A
C322   O394    1.385   .     S
C323   C330    1.389   .     A
C323   O395    1.385   .     S
C323   C339    1.415   .     A
C324   C341    1.453   .     S
C324   O396    1.291   .     A
C324   O407    1.292   .     A
C325   C331    1.390   .     A
C325   C340    1.413   .     A
C325   O397    1.383   .     S
C326   C342    1.417   .     A
C326   O398    1.384   .     S
C326   C337    1.389   .     A
C327   C341    1.408   .     A
C327   C338    1.399   .     A
C327   O399    1.386   .     S
C328   C334    1.399   .     A
C328   C341    1.415   .     A
C328   O400    1.383   .     S
C329   C342    1.415   .     A
C329   C336    1.389   .     A
C329   O401    1.384   .     S
C330   O402    1.385   .     S
C330   C344    1.415   .     A
C331   C343    1.413   .     A
C331   O403    1.384   .     S
C332   O404    1.383   .     S
C332   C343    1.413   .     A
C333   C344    1.415   .     A
C333   O405    1.385   .     S
C334   C347    1.408   .     A
C334   O406    1.386   .     S
C335   O415    1.292   .     A
C335   O412    1.284   .     A
C335   C340    1.444   .     S
C336   O408    1.384   .     S
C336   C345    1.417   .     A
C337   C345    1.415   .     A
C337   O409    1.384   .     S
C338   O410    1.383   .     S
C338   C347    1.415   .     A
C339   C346    1.443   .     S
C343   C351    1.444   .     S
C344   C350    1.443   .     S
C345   C349    1.450   .     S
C346   O414    1.289   .     A
C346   O413    1.288   .     A
C347   C348    1.453   .     S
C348   O388    1.292   .     A
C348   O416    1.291   .     A
C349   O386    1.289   .     A
C349   O387    1.291   .     A
C350   O389    1.288   .     A
C350   O392    1.289   .     A
C351   O390    1.284   .     A
C351   O391    1.292   .     A
C352   H357    1.082   .     S
C352   C1148   1.418   1_554 S
C352   N382    1.367   .     S
Cu353  Cu354   2.681   .     S
Cu353  N381    2.015   .     S
Cu353  O385    1.967   .     S
Cu353  O413    1.958   .     S
Cu354  N382    2.015   .     S
Cu354  O411    1.965   .     S
Cu354  O414    1.957   .     S
Cu355  O390    1.958   .     S
Cu355  O387    1.965   .     S
Cu355  Cu356   2.681   .     S
Cu355  N383    2.015   .     S
Cu356  O386    1.967   .     S
Cu356  O391    1.957   .     S
Cu356  N384    2.015   .     S
H358   O394    0.988   .     S
H359   O395    0.988   .     S
H360   O397    0.989   .     S
H361   O398    0.986   .     S
H362   O399    0.989   .     S
H363   O400    0.988   .     S
H364   O401    0.989   .     S
H365   O402    0.988   .     S
H366   O403    0.988   .     S
H367   O404    0.989   .     S
H369   O405    0.988   .     S
H370   O406    0.989   .     S
H371   O408    0.986   .     S
H372   O409    0.989   .     S
H373   O410    0.988   .     S
H380   O393    0.988   .     S
O388   Cu148   1.965   1_565 S
O389   Cu148   1.958   1_565 S
O392   Cu147   1.957   1_565 S
O396   Cu250   1.967   1_655 S
O407   Cu249   1.965   1_655 S
O412   Cu250   1.958   1_655 S
O415   Cu249   1.957   1_655 S
O416   Cu147   1.967   1_565 S
C417   O515    1.291   .     A
C417   O489    1.289   .     A
C417   C446    1.450   .     S
C418   N589    1.367   .     A
C418   H472    1.082   .     S
C418   C835    1.418   .     S
C419   N590    1.367   .     A
C419   H582    1.082   .     S
C420   H479    1.082   .     S
C420   C872    1.418   .     S
C420   N485    1.367   .     S
C421   H480    1.082   .     S
C421   N696    1.367   .     S
C422   H481    1.082   .     S
C422   N487    1.367   .     A
C422   C839    1.418   .     S
C423   N488    1.367   .     A
C423   H482    1.082   .     S
C424   H483    1.082   .     S
C424   C837    1.418   .     S
C424   N695    1.367   .     S
C425   C436    1.390   .     A
C425   C444    1.413   .     A
C425   O497    1.384   .     S
C426   C443    1.415   .     A
C426   C437    1.389   .     A
C426   O498    1.385   .     S
C427   C434    1.389   .     A
C427   O499    1.385   .     S
C427   C443    1.415   .     A
C428   C445    1.453   .     S
C428   O500    1.291   .     A
C428   O511    1.292   .     A
C429   C435    1.390   .     A
C429   C444    1.413   .     A
C429   O501    1.383   .     S
C430   C446    1.417   .     A
C430   O502    1.384   .     S
C430   C441    1.389   .     A
C431   C445    1.408   .     A
C431   C442    1.399   .     A
C431   O503    1.386   .     S
C432   C438    1.399   .     A
C432   C445    1.415   .     A
C432   O504    1.383   .     S
C433   C446    1.415   .     A
C433   C440    1.389   .     A
C433   O505    1.384   .     S
C434   O506    1.385   .     S
C434   C448    1.415   .     A
C435   C447    1.413   .     A
C435   O507    1.384   .     S
C436   O508    1.383   .     S
C436   C447    1.413   .     A
C437   C448    1.415   .     A
C437   O509    1.385   .     S
C438   C451    1.408   .     A
C438   O510    1.386   .     S
C439   O519    1.292   .     A
C439   O516    1.284   .     A
C439   C444    1.444   .     S
C440   O512    1.384   .     S
C440   C449    1.417   .     A
C441   C449    1.415   .     A
C441   O513    1.384   .     S
C442   O514    1.383   .     S
C442   C451    1.415   .     A
C443   C450    1.443   .     S
C447   C455    1.444   .     S
C448   C454    1.443   .     S
C449   C453    1.450   .     S
C450   O518    1.289   .     A
C450   O517    1.288   .     A
C451   C452    1.453   .     S
C452   O492    1.292   .     A
C452   O520    1.291   .     A
C453   O490    1.289   .     A
C453   O491    1.291   .     A
C454   O493    1.288   .     A
C454   O496    1.289   .     A
C455   O494    1.284   .     A
C455   O495    1.292   .     A
C456   H461    1.082   .     S
C456   N486    1.367   .     S
Cu457  Cu458   2.681   .     S
Cu457  N485    2.015   .     S
Cu457  O623    1.957   1_455 S
Cu457  O615    1.965   1_455 S
Cu457  O489    1.967   .     S
Cu457  O517    1.958   .     S
Cu458  N486    2.015   .     S
Cu458  O604    1.967   1_455 S
Cu458  O620    1.958   1_455 S
Cu458  O515    1.965   .     S
Cu458  O518    1.957   .     S
Cu459  O494    1.958   .     S
Cu459  O491    1.965   .     S
Cu459  Cu460   2.681   .     S
Cu459  N487    2.015   .     S
Cu459  O704    1.957   1_545 S
Cu459  O728    1.967   1_545 S
Cu460  O490    1.967   .     S
Cu460  O495    1.957   .     S
Cu460  N488    2.015   .     S
Cu460  O700    1.965   1_545 S
Cu460  O701    1.958   1_545 S
H462   O498    0.988   .     S
H463   O499    0.988   .     S
H464   O501    0.989   .     S
H465   O502    0.986   .     S
H466   O503    0.989   .     S
H467   O504    0.988   .     S
H468   O505    0.989   .     S
H469   O506    0.988   .     S
H470   O507    0.988   .     S
H471   O508    0.989   .     S
H473   O509    0.988   .     S
H474   O510    0.989   .     S
H475   O512    0.986   .     S
H476   O513    0.989   .     S
H477   O514    0.988   .     S
H478   C523    1.082   1_455 S
H484   O497    0.988   .     S
N485   C522    1.367   1_455 A
N486   C523    1.367   1_455 A
N487   C632    1.367   1_545 S
N488   C629    1.367   1_545 S
O492   Cu668   1.965   .     S
O493   Cu668   1.958   .     S
O496   Cu667   1.957   .     S
O500   Cu562   1.967   .     S
O511   Cu561   1.965   .     S
O516   Cu562   1.958   .     S
O519   Cu561   1.957   .     S
O520   Cu667   1.967   .     S
C521   O619    1.291   .     A
C521   O593    1.289   .     A
C521   C550    1.450   .     S
C522   N485    1.367   1_655 A
C522   H576    1.082   .     S
C522   C939    1.418   .     S
C523   N486    1.367   1_655 A
C523   H478    1.082   1_655 S
C524   H583    1.082   .     S
C524   C976    1.418   .     S
C524   N589    1.367   .     S
C525   H584    1.082   .     S
C525   N800    1.367   .     S
C526   H585    1.082   .     S
C526   N591    1.367   .     A
C526   C943    1.418   .     S
C527   N592    1.367   .     A
C527   H586    1.082   .     S
C528   H587    1.082   .     S
C528   C941    1.418   .     S
C528   N799    1.367   .     S
C529   C540    1.390   .     A
C529   C548    1.413   .     A
C529   O601    1.384   .     S
C530   C547    1.415   .     A
C530   C541    1.389   .     A
C530   O602    1.385   .     S
C531   C538    1.389   .     A
C531   O603    1.385   .     S
C531   C547    1.415   .     A
C532   C549    1.453   .     S
C532   O604    1.291   .     A
C532   O615    1.292   .     A
C533   C539    1.390   .     A
C533   C548    1.413   .     A
C533   O605    1.383   .     S
C534   C550    1.417   .     A
C534   O606    1.384   .     S
C534   C545    1.389   .     A
C535   C549    1.408   .     A
C535   C546    1.399   .     A
C535   O607    1.386   .     S
C536   C542    1.399   .     A
C536   C549    1.415   .     A
C536   O608    1.383   .     S
C537   C550    1.415   .     A
C537   C544    1.389   .     A
C537   O609    1.384   .     S
C538   O610    1.385   .     S
C538   C552    1.415   .     A
C539   C551    1.413   .     A
C539   O611    1.384   .     S
C540   O612    1.383   .     S
C540   C551    1.413   .     A
C541   C552    1.415   .     A
C541   O613    1.385   .     S
C542   C555    1.408   .     A
C542   O614    1.386   .     S
C543   O623    1.292   .     A
C543   O620    1.284   .     A
C543   C548    1.444   .     S
C544   O616    1.384   .     S
C544   C553    1.417   .     A
C545   C553    1.415   .     A
C545   O617    1.384   .     S
C546   O618    1.383   .     S
C546   C555    1.415   .     A
C547   C554    1.443   .     S
C551   C559    1.444   .     S
C552   C558    1.443   .     S
C553   C557    1.450   .     S
C554   O622    1.289   .     A
C554   O621    1.288   .     A
C555   C556    1.453   .     S
C556   O596    1.292   .     A
C556   O624    1.291   .     A
C557   O594    1.289   .     A
C557   O595    1.291   .     A
C558   O597    1.288   .     A
C558   O600    1.289   .     A
C559   O598    1.284   .     A
C559   O599    1.292   .     A
C560   H565    1.082   .     S
C560   N590    1.367   .     S
Cu561  Cu562   2.681   .     S
Cu561  N589    2.015   .     S
Cu561  O593    1.967   .     S
Cu561  O621    1.958   .     S
Cu562  N590    2.015   .     S
Cu562  O619    1.965   .     S
Cu562  O622    1.957   .     S
Cu563  O598    1.958   .     S
Cu563  O595    1.965   .     S
Cu563  Cu564   2.681   .     S
Cu563  N591    2.015   .     S
Cu563  O808    1.957   1_545 S
Cu563  O832    1.967   1_545 S
Cu564  O594    1.967   .     S
Cu564  O599    1.957   .     S
Cu564  N592    2.015   .     S
Cu564  O804    1.965   1_545 S
Cu564  O805    1.958   1_545 S
H566   O602    0.988   .     S
H567   O603    0.988   .     S
H568   O605    0.989   .     S
H569   O606    0.986   .     S
H570   O607    0.989   .     S
H571   O608    0.988   .     S
H572   O609    0.989   .     S
H573   O610    0.988   .     S
H574   O611    0.988   .     S
H575   O612    0.989   .     S
H577   O613    0.988   .     S
H578   O614    0.989   .     S
H579   O616    0.986   .     S
H580   O617    0.989   .     S
H581   O618    0.988   .     S
H588   O601    0.988   .     S
N591   C736    1.367   1_545 S
N592   C733    1.367   1_545 S
O596   Cu772   1.965   .     S
O597   Cu772   1.958   .     S
O600   Cu771   1.957   .     S
O604   Cu458   1.967   1_655 S
O615   Cu457   1.965   1_655 S
O620   Cu458   1.958   1_655 S
O623   Cu457   1.957   1_655 S
O624   Cu771   1.967   .     S
C625   O723    1.291   .     A
C625   O697    1.289   .     A
C625   C654    1.450   .     S
C626   N797    1.367   .     A
C626   H680    1.082   .     S
C626   C1043   1.418   .     S
C627   N798    1.367   .     A
C627   H790    1.082   .     S
C628   H687    1.082   .     S
C628   C1080   1.418   .     S
C628   N693    1.367   .     S
C629   H688    1.082   .     S
C629   N488    1.367   1_565 S
C630   H689    1.082   .     S
C630   N695    1.367   .     A
C630   C1047   1.418   .     S
C631   N696    1.367   .     A
C631   H690    1.082   .     S
C632   H691    1.082   .     S
C632   C1045   1.418   .     S
C632   N487    1.367   1_565 S
C633   C644    1.390   .     A
C633   C652    1.413   .     A
C633   O705    1.384   .     S
C634   C651    1.415   .     A
C634   C645    1.389   .     A
C634   O706    1.385   .     S
C635   C642    1.389   .     A
C635   O707    1.385   .     S
C635   C651    1.415   .     A
C636   C653    1.453   .     S
C636   O708    1.291   .     A
C636   O719    1.292   .     A
C637   C643    1.390   .     A
C637   C652    1.413   .     A
C637   O709    1.383   .     S
C638   C654    1.417   .     A
C638   O710    1.384   .     S
C638   C649    1.389   .     A
C639   C653    1.408   .     A
C639   C650    1.399   .     A
C639   O711    1.386   .     S
C640   C646    1.399   .     A
C640   C653    1.415   .     A
C640   O712    1.383   .     S
C641   C654    1.415   .     A
C641   C648    1.389   .     A
C641   O713    1.384   .     S
C642   O714    1.385   .     S
C642   C656    1.415   .     A
C643   C655    1.413   .     A
C643   O715    1.384   .     S
C644   O716    1.383   .     S
C644   C655    1.413   .     A
C645   C656    1.415   .     A
C645   O717    1.385   .     S
C646   C659    1.408   .     A
C646   O718    1.386   .     S
C647   O727    1.292   .     A
C647   O724    1.284   .     A
C647   C652    1.444   .     S
C648   O720    1.384   .     S
C648   C657    1.417   .     A
C649   C657    1.415   .     A
C649   O721    1.384   .     S
C650   O722    1.383   .     S
C650   C659    1.415   .     A
C651   C658    1.443   .     S
C655   C663    1.444   .     S
C656   C662    1.443   .     S
C657   C661    1.450   .     S
C658   O726    1.289   .     A
C658   O725    1.288   .     A
C659   C660    1.453   .     S
C660   O700    1.292   .     A
C660   O728    1.291   .     A
C661   O698    1.289   .     A
C661   O699    1.291   .     A
C662   O701    1.288   .     A
C662   O704    1.289   .     A
C663   O702    1.284   .     A
C663   O703    1.292   .     A
C664   H669    1.082   .     S
C664   N694    1.367   .     S
Cu665  Cu666   2.681   .     S
Cu665  N693    2.015   .     S
Cu665  O831    1.957   1_455 S
Cu665  O823    1.965   1_455 S
Cu665  O697    1.967   .     S
Cu665  O725    1.958   .     S
Cu666  N694    2.015   .     S
Cu666  O812    1.967   1_455 S
Cu666  O828    1.958   1_455 S
Cu666  O723    1.965   .     S
Cu666  O726    1.957   .     S
Cu667  O702    1.958   .     S
Cu667  O699    1.965   .     S
Cu667  Cu668   2.681   .     S
Cu667  N695    2.015   .     S
Cu668  O698    1.967   .     S
Cu668  O703    1.957   .     S
Cu668  N696    2.015   .     S
H670   O706    0.988   .     S
H671   O707    0.988   .     S
H672   O709    0.989   .     S
H673   O710    0.986   .     S
H674   O711    0.989   .     S
H675   O712    0.988   .     S
H676   O713    0.989   .     S
H677   O714    0.988   .     S
H678   O715    0.988   .     S
H679   O716    0.989   .     S
H681   O717    0.988   .     S
H682   O718    0.989   .     S
H683   O720    0.986   .     S
H684   O721    0.989   .     S
H685   O722    0.988   .     S
H686   C731    1.082   1_455 S
H692   O705    0.988   .     S
N693   C730    1.367   1_455 A
N694   C731    1.367   1_455 A
O700   Cu460   1.965   1_565 S
O701   Cu460   1.958   1_565 S
O704   Cu459   1.957   1_565 S
O708   Cu770   1.967   .     S
O719   Cu769   1.965   .     S
O724   Cu770   1.958   .     S
O727   Cu769   1.957   .     S
O728   Cu459   1.967   1_565 S
C729   O827    1.291   .     A
C729   O801    1.289   .     A
C729   C758    1.450   .     S
C730   N693    1.367   1_655 A
C730   H784    1.082   .     S
C730   C1147   1.418   .     S
C731   N694    1.367   1_655 A
C731   H686    1.082   1_655 S
C732   H791    1.082   .     S
C732   C1184   1.418   .     S
C732   N797    1.367   .     S
C733   H792    1.082   .     S
C733   N592    1.367   1_565 S
C734   H793    1.082   .     S
C734   N799    1.367   .     A
C734   C1151   1.418   .     S
C735   N800    1.367   .     A
C735   H794    1.082   .     S
C736   H795    1.082   .     S
C736   C1149   1.418   .     S
C736   N591    1.367   1_565 S
C737   C748    1.390   .     A
C737   C756    1.413   .     A
C737   O809    1.384   .     S
C738   C755    1.415   .     A
C738   C749    1.389   .     A
C738   O810    1.385   .     S
C739   C746    1.389   .     A
C739   O811    1.385   .     S
C739   C755    1.415   .     A
C740   C757    1.453   .     S
C740   O812    1.291   .     A
C740   O823    1.292   .     A
C741   C747    1.390   .     A
C741   C756    1.413   .     A
C741   O813    1.383   .     S
C742   C758    1.417   .     A
C742   O814    1.384   .     S
C742   C753    1.389   .     A
C743   C757    1.408   .     A
C743   C754    1.399   .     A
C743   O815    1.386   .     S
C744   C750    1.399   .     A
C744   C757    1.415   .     A
C744   O816    1.383   .     S
C745   C758    1.415   .     A
C745   C752    1.389   .     A
C745   O817    1.384   .     S
C746   O818    1.385   .     S
C746   C760    1.415   .     A
C747   C759    1.413   .     A
C747   O819    1.384   .     S
C748   O820    1.383   .     S
C748   C759    1.413   .     A
C749   C760    1.415   .     A
C749   O821    1.385   .     S
C750   C763    1.408   .     A
C750   O822    1.386   .     S
C751   O831    1.292   .     A
C751   O828    1.284   .     A
C751   C756    1.444   .     S
C752   O824    1.384   .     S
C752   C761    1.417   .     A
C753   C761    1.415   .     A
C753   O825    1.384   .     S
C754   O826    1.383   .     S
C754   C763    1.415   .     A
C755   C762    1.443   .     S
C759   C767    1.444   .     S
C760   C766    1.443   .     S
C761   C765    1.450   .     S
C762   O830    1.289   .     A
C762   O829    1.288   .     A
C763   C764    1.453   .     S
C764   O804    1.292   .     A
C764   O832    1.291   .     A
C765   O802    1.289   .     A
C765   O803    1.291   .     A
C766   O805    1.288   .     A
C766   O808    1.289   .     A
C767   O806    1.284   .     A
C767   O807    1.292   .     A
C768   H773    1.082   .     S
C768   N798    1.367   .     S
Cu769  Cu770   2.681   .     S
Cu769  N797    2.015   .     S
Cu769  O801    1.967   .     S
Cu769  O829    1.958   .     S
Cu770  N798    2.015   .     S
Cu770  O827    1.965   .     S
Cu770  O830    1.957   .     S
Cu771  O806    1.958   .     S
Cu771  O803    1.965   .     S
Cu771  Cu772   2.681   .     S
Cu771  N799    2.015   .     S
Cu772  O802    1.967   .     S
Cu772  O807    1.957   .     S
Cu772  N800    2.015   .     S
H774   O810    0.988   .     S
H775   O811    0.988   .     S
H776   O813    0.989   .     S
H777   O814    0.986   .     S
H778   O815    0.989   .     S
H779   O816    0.988   .     S
H780   O817    0.989   .     S
H781   O818    0.988   .     S
H782   O819    0.988   .     S
H783   O820    0.989   .     S
H785   O821    0.988   .     S
H786   O822    0.989   .     S
H787   O824    0.986   .     S
H788   O825    0.989   .     S
H789   O826    0.988   .     S
H796   O809    0.988   .     S
O804   Cu564   1.965   1_565 S
O805   Cu564   1.958   1_565 S
O808   Cu563   1.957   1_565 S
O812   Cu666   1.967   1_655 S
O823   Cu665   1.965   1_655 S
O828   Cu666   1.958   1_655 S
O831   Cu665   1.957   1_655 S
O832   Cu563   1.967   1_565 S
C833   O931    1.291   .     A
C833   O905    1.289   .     A
C833   C862    1.450   .     S
C834   N1005   1.367   .     A
C834   H888    1.082   .     S
C834   C3      1.418   1_556 S
C835   N1006   1.367   .     A
C835   H998    1.082   .     S
C836   H895    1.082   .     S
C836   C40     1.418   1_556 S
C836   N901    1.367   .     S
C837   H896    1.082   .     S
C837   N1112   1.367   .     S
C838   H897    1.082   .     S
C838   N903    1.367   .     A
C838   C7      1.418   1_556 S
C839   N904    1.367   .     A
C839   H898    1.082   .     S
C840   H899    1.082   .     S
C840   C5      1.418   1_556 S
C840   N1111   1.367   .     S
C841   C852    1.390   .     A
C841   C860    1.413   .     A
C841   O913    1.384   .     S
C842   C859    1.415   .     A
C842   C853    1.389   .     A
C842   O914    1.385   .     S
C843   C850    1.389   .     A
C843   O915    1.385   .     S
C843   C859    1.415   .     A
C844   C861    1.453   .     S
C844   O916    1.291   .     A
C844   O927    1.292   .     A
C845   C851    1.390   .     A
C845   C860    1.413   .     A
C845   O917    1.383   .     S
C846   C862    1.417   .     A
C846   O918    1.384   .     S
C846   C857    1.389   .     A
C847   C861    1.408   .     A
C847   C858    1.399   .     A
C847   O919    1.386   .     S
C848   C854    1.399   .     A
C848   C861    1.415   .     A
C848   O920    1.383   .     S
C849   C862    1.415   .     A
C849   C856    1.389   .     A
C849   O921    1.384   .     S
C850   O922    1.385   .     S
C850   C864    1.415   .     A
C851   C863    1.413   .     A
C851   O923    1.384   .     S
C852   O924    1.383   .     S
C852   C863    1.413   .     A
C853   C864    1.415   .     A
C853   O925    1.385   .     S
C854   C867    1.408   .     A
C854   O926    1.386   .     S
C855   O935    1.292   .     A
C855   O932    1.284   .     A
C855   C860    1.444   .     S
C856   O928    1.384   .     S
C856   C865    1.417   .     A
C857   C865    1.415   .     A
C857   O929    1.384   .     S
C858   O930    1.383   .     S
C858   C867    1.415   .     A
C859   C866    1.443   .     S
C863   C871    1.444   .     S
C864   C870    1.443   .     S
C865   C869    1.450   .     S
C866   O934    1.289   .     A
C866   O933    1.288   .     A
C867   C868    1.453   .     S
C868   O908    1.292   .     A
C868   O936    1.291   .     A
C869   O906    1.289   .     A
C869   O907    1.291   .     A
C870   O909    1.288   .     A
C870   O912    1.289   .     A
C871   O910    1.284   .     A
C871   O911    1.292   .     A
C872   H877    1.082   .     S
C872   N902    1.367   .     S
Cu873  Cu874   2.681   .     S
Cu873  N901    2.015   .     S
Cu873  O1039   1.957   1_455 S
Cu873  O1031   1.965   1_455 S
Cu873  O905    1.967   .     S
Cu873  O933    1.958   .     S
Cu874  N902    2.015   .     S
Cu874  O1020   1.967   1_455 S
Cu874  O1036   1.958   1_455 S
Cu874  O931    1.965   .     S
Cu874  O934    1.957   .     S
Cu875  O910    1.958   .     S
Cu875  O907    1.965   .     S
Cu875  Cu876   2.681   .     S
Cu875  N903    2.015   .     S
Cu875  O1120   1.957   1_545 S
Cu875  O1144   1.967   1_545 S
Cu876  O906    1.967   .     S
Cu876  O911    1.957   .     S
Cu876  N904    2.015   .     S
Cu876  O1116   1.965   1_545 S
Cu876  O1117   1.958   1_545 S
H878   O914    0.988   .     S
H879   O915    0.988   .     S
H880   O917    0.989   .     S
H881   O918    0.986   .     S
H882   O919    0.989   .     S
H883   O920    0.988   .     S
H884   O921    0.989   .     S
H885   O922    0.988   .     S
H886   O923    0.988   .     S
H887   O924    0.989   .     S
H889   O925    0.988   .     S
H890   O926    0.989   .     S
H891   O928    0.986   .     S
H892   O929    0.989   .     S
H893   O930    0.988   .     S
H894   C939    1.082   1_455 S
H900   O913    0.988   .     S
N901   C938    1.367   1_455 A
N902   C939    1.367   1_455 A
N903   C1048   1.367   1_545 S
N904   C1045   1.367   1_545 S
O908   Cu1084  1.965   .     S
O909   Cu1084  1.958   .     S
O912   Cu1083  1.957   .     S
O916   Cu978   1.967   .     S
O927   Cu977   1.965   .     S
O932   Cu978   1.958   .     S
O935   Cu977   1.957   .     S
O936   Cu1083  1.967   .     S
C937   O1035   1.291   .     A
C937   O1009   1.289   .     A
C937   C966    1.450   .     S
C938   N901    1.367   1_655 A
C938   H992    1.082   .     S
C938   C107    1.418   1_556 S
C939   N902    1.367   1_655 A
C939   H894    1.082   1_655 S
C940   H999    1.082   .     S
C940   C144    1.418   1_556 S
C940   N1005   1.367   .     S
C941   H1000   1.082   .     S
C941   N1216   1.367   .     S
C942   H1001   1.082   .     S
C942   N1007   1.367   .     A
C942   C111    1.418   1_556 S
C943   N1008   1.367   .     A
C943   H1002   1.082   .     S
C944   H1003   1.082   .     S
C944   C109    1.418   1_556 S
C944   N1215   1.367   .     S
C945   C956    1.390   .     A
C945   C964    1.413   .     A
C945   O1017   1.384   .     S
C946   C963    1.415   .     A
C946   C957    1.389   .     A
C946   O1018   1.385   .     S
C947   C954    1.389   .     A
C947   O1019   1.385   .     S
C947   C963    1.415   .     A
C948   C965    1.453   .     S
C948   O1020   1.291   .     A
C948   O1031   1.292   .     A
C949   C955    1.390   .     A
C949   C964    1.413   .     A
C949   O1021   1.383   .     S
C950   C966    1.417   .     A
C950   O1022   1.384   .     S
C950   C961    1.389   .     A
C951   C965    1.408   .     A
C951   C962    1.399   .     A
C951   O1023   1.386   .     S
C952   C958    1.399   .     A
C952   C965    1.415   .     A
C952   O1024   1.383   .     S
C953   C966    1.415   .     A
C953   C960    1.389   .     A
C953   O1025   1.384   .     S
C954   O1026   1.385   .     S
C954   C968    1.415   .     A
C955   C967    1.413   .     A
C955   O1027   1.384   .     S
C956   O1028   1.383   .     S
C956   C967    1.413   .     A
C957   C968    1.415   .     A
C957   O1029   1.385   .     S
C958   C971    1.408   .     A
C958   O1030   1.386   .     S
C959   O1039   1.292   .     A
C959   O1036   1.284   .     A
C959   C964    1.444   .     S
C960   O1032   1.384   .     S
C960   C969    1.417   .     A
C961   C969    1.415   .     A
C961   O1033   1.384   .     S
C962   O1034   1.383   .     S
C962   C971    1.415   .     A
C963   C970    1.443   .     S
C967   C975    1.444   .     S
C968   C974    1.443   .     S
C969   C973    1.450   .     S
C970   O1038   1.289   .     A
C970   O1037   1.288   .     A
C971   C972    1.453   .     S
C972   O1012   1.292   .     A
C972   O1040   1.291   .     A
C973   O1010   1.289   .     A
C973   O1011   1.291   .     A
C974   O1013   1.288   .     A
C974   O1016   1.289   .     A
C975   O1014   1.284   .     A
C975   O1015   1.292   .     A
C976   H981    1.082   .     S
C976   N1006   1.367   .     S
Cu977  Cu978   2.681   .     S
Cu977  N1005   2.015   .     S
Cu977  O1009   1.967   .     S
Cu977  O1037   1.958   .     S
Cu978  N1006   2.015   .     S
Cu978  O1035   1.965   .     S
Cu978  O1038   1.957   .     S
Cu979  O1014   1.958   .     S
Cu979  O1011   1.965   .     S
Cu979  Cu980   2.681   .     S
Cu979  N1007   2.015   .     S
Cu979  O1224   1.957   1_545 S
Cu979  O1248   1.967   1_545 S
Cu980  O1010   1.967   .     S
Cu980  O1015   1.957   .     S
Cu980  N1008   2.015   .     S
Cu980  O1220   1.965   1_545 S
Cu980  O1221   1.958   1_545 S
H982   O1018   0.988   .     S
H983   O1019   0.988   .     S
H984   O1021   0.989   .     S
H985   O1022   0.986   .     S
H986   O1023   0.989   .     S
H987   O1024   0.988   .     S
H988   O1025   0.989   .     S
H989   O1026   0.988   .     S
H990   O1027   0.988   .     S
H991   O1028   0.989   .     S
H993   O1029   0.988   .     S
H994   O1030   0.989   .     S
H995   O1032   0.986   .     S
H996   O1033   0.989   .     S
H997   O1034   0.988   .     S
H1004  O1017   0.988   .     S
N1007  C1152   1.367   1_545 S
N1008  C1149   1.367   1_545 S
O1012  Cu1188  1.965   .     S
O1013  Cu1188  1.958   .     S
O1016  Cu1187  1.957   .     S
O1020  Cu874   1.967   1_655 S
O1031  Cu873   1.965   1_655 S
O1036  Cu874   1.958   1_655 S
O1039  Cu873   1.957   1_655 S
O1040  Cu1187  1.967   .     S
C1041  O1139   1.291   .     A
C1041  O1113   1.289   .     A
C1041  C1070   1.450   .     S
C1042  N1213   1.367   .     A
C1042  H1096   1.082   .     S
C1042  C211    1.418   1_556 S
C1043  N1214   1.367   .     A
C1043  H1206   1.082   .     S
C1044  H1103   1.082   .     S
C1044  C248    1.418   1_556 S
C1044  N1109   1.367   .     S
C1045  H1104   1.082   .     S
C1045  N904    1.367   1_565 S
C1046  H1105   1.082   .     S
C1046  N1111   1.367   .     A
C1046  C215    1.418   1_556 S
C1047  N1112   1.367   .     A
C1047  H1106   1.082   .     S
C1048  H1107   1.082   .     S
C1048  C213    1.418   1_556 S
C1048  N903    1.367   1_565 S
C1049  C1060   1.390   .     A
C1049  C1068   1.413   .     A
C1049  O1121   1.384   .     S
C1050  C1067   1.415   .     A
C1050  C1061   1.389   .     A
C1050  O1122   1.385   .     S
C1051  C1058   1.389   .     A
C1051  O1123   1.385   .     S
C1051  C1067   1.415   .     A
C1052  C1069   1.453   .     S
C1052  O1124   1.291   .     A
C1052  O1135   1.292   .     A
C1053  C1059   1.390   .     A
C1053  C1068   1.413   .     A
C1053  O1125   1.383   .     S
C1054  C1070   1.417   .     A
C1054  O1126   1.384   .     S
C1054  C1065   1.389   .     A
C1055  C1069   1.408   .     A
C1055  C1066   1.399   .     A
C1055  O1127   1.386   .     S
C1056  C1062   1.399   .     A
C1056  C1069   1.415   .     A
C1056  O1128   1.383   .     S
C1057  C1070   1.415   .     A
C1057  C1064   1.389   .     A
C1057  O1129   1.384   .     S
C1058  O1130   1.385   .     S
C1058  C1072   1.415   .     A
C1059  C1071   1.413   .     A
C1059  O1131   1.384   .     S
C1060  O1132   1.383   .     S
C1060  C1071   1.413   .     A
C1061  C1072   1.415   .     A
C1061  O1133   1.385   .     S
C1062  C1075   1.408   .     A
C1062  O1134   1.386   .     S
C1063  O1143   1.292   .     A
C1063  O1140   1.284   .     A
C1063  C1068   1.444   .     S
C1064  O1136   1.384   .     S
C1064  C1073   1.417   .     A
C1065  C1073   1.415   .     A
C1065  O1137   1.384   .     S
C1066  O1138   1.383   .     S
C1066  C1075   1.415   .     A
C1067  C1074   1.443   .     S
C1071  C1079   1.444   .     S
C1072  C1078   1.443   .     S
C1073  C1077   1.450   .     S
C1074  O1142   1.289   .     A
C1074  O1141   1.288   .     A
C1075  C1076   1.453   .     S
C1076  O1116   1.292   .     A
C1076  O1144   1.291   .     A
C1077  O1114   1.289   .     A
C1077  O1115   1.291   .     A
C1078  O1117   1.288   .     A
C1078  O1120   1.289   .     A
C1079  O1118   1.284   .     A
C1079  O1119   1.292   .     A
C1080  H1085   1.082   .     S
C1080  N1110   1.367   .     S
Cu1081 Cu1082  2.681   .     S
Cu1081 N1109   2.015   .     S
Cu1081 O1247   1.957   1_455 S
Cu1081 O1239   1.965   1_455 S
Cu1081 O1113   1.967   .     S
Cu1081 O1141   1.958   .     S
Cu1082 N1110   2.015   .     S
Cu1082 O1228   1.967   1_455 S
Cu1082 O1244   1.958   1_455 S
Cu1082 O1139   1.965   .     S
Cu1082 O1142   1.957   .     S
Cu1083 O1118   1.958   .     S
Cu1083 O1115   1.965   .     S
Cu1083 Cu1084  2.681   .     S
Cu1083 N1111   2.015   .     S
Cu1084 O1114   1.967   .     S
Cu1084 O1119   1.957   .     S
Cu1084 N1112   2.015   .     S
H1086  O1122   0.988   .     S
H1087  O1123   0.988   .     S
H1088  O1125   0.989   .     S
H1089  O1126   0.986   .     S
H1090  O1127   0.989   .     S
H1091  O1128   0.988   .     S
H1092  O1129   0.989   .     S
H1093  O1130   0.988   .     S
H1094  O1131   0.988   .     S
H1095  O1132   0.989   .     S
H1097  O1133   0.988   .     S
H1098  O1134   0.989   .     S
H1099  O1136   0.986   .     S
H1100  O1137   0.989   .     S
H1101  O1138   0.988   .     S
H1102  C1147   1.082   1_455 S
H1108  O1121   0.988   .     S
N1109  C1146   1.367   1_455 A
N1110  C1147   1.367   1_455 A
O1116  Cu876   1.965   1_565 S
O1117  Cu876   1.958   1_565 S
O1120  Cu875   1.957   1_565 S
O1124  Cu1186  1.967   .     S
O1135  Cu1185  1.965   .     S
O1140  Cu1186  1.958   .     S
O1143  Cu1185  1.957   .     S
O1144  Cu875   1.967   1_565 S
C1145  O1243   1.291   .     A
C1145  O1217   1.289   .     A
C1145  C1174   1.450   .     S
C1146  N1109   1.367   1_655 A
C1146  H1200   1.082   .     S
C1146  C315    1.418   1_556 S
C1147  N1110   1.367   1_655 A
C1147  H1102   1.082   1_655 S
C1148  H1207   1.082   .     S
C1148  C352    1.418   1_556 S
C1148  N1213   1.367   .     S
C1149  H1208   1.082   .     S
C1149  N1008   1.367   1_565 S
C1150  H1209   1.082   .     S
C1150  N1215   1.367   .     A
C1150  C319    1.418   1_556 S
C1151  N1216   1.367   .     A
C1151  H1210   1.082   .     S
C1152  H1211   1.082   .     S
C1152  C317    1.418   1_556 S
C1152  N1007   1.367   1_565 S
C1153  C1164   1.390   .     A
C1153  C1172   1.413   .     A
C1153  O1225   1.384   .     S
C1154  C1171   1.415   .     A
C1154  C1165   1.389   .     A
C1154  O1226   1.385   .     S
C1155  C1162   1.389   .     A
C1155  O1227   1.385   .     S
C1155  C1171   1.415   .     A
C1156  C1173   1.453   .     S
C1156  O1228   1.291   .     A
C1156  O1239   1.292   .     A
C1157  C1163   1.390   .     A
C1157  C1172   1.413   .     A
C1157  O1229   1.383   .     S
C1158  C1174   1.417   .     A
C1158  O1230   1.384   .     S
C1158  C1169   1.389   .     A
C1159  C1173   1.408   .     A
C1159  C1170   1.399   .     A
C1159  O1231   1.386   .     S
C1160  C1166   1.399   .     A
C1160  C1173   1.415   .     A
C1160  O1232   1.383   .     S
C1161  C1174   1.415   .     A
C1161  C1168   1.389   .     A
C1161  O1233   1.384   .     S
C1162  O1234   1.385   .     S
C1162  C1176   1.415   .     A
C1163  C1175   1.413   .     A
C1163  O1235   1.384   .     S
C1164  O1236   1.383   .     S
C1164  C1175   1.413   .     A
C1165  C1176   1.415   .     A
C1165  O1237   1.385   .     S
C1166  C1179   1.408   .     A
C1166  O1238   1.386   .     S
C1167  O1247   1.292   .     A
C1167  O1244   1.284   .     A
C1167  C1172   1.444   .     S
C1168  O1240   1.384   .     S
C1168  C1177   1.417   .     A
C1169  C1177   1.415   .     A
C1169  O1241   1.384   .     S
C1170  O1242   1.383   .     S
C1170  C1179   1.415   .     A
C1171  C1178   1.443   .     S
C1175  C1183   1.444   .     S
C1176  C1182   1.443   .     S
C1177  C1181   1.450   .     S
C1178  O1246   1.289   .     A
C1178  O1245   1.288   .     A
C1179  C1180   1.453   .     S
C1180  O1220   1.292   .     A
C1180  O1248   1.291   .     A
C1181  O1218   1.289   .     A
C1181  O1219   1.291   .     A
C1182  O1221   1.288   .     A
C1182  O1224   1.289   .     A
C1183  O1222   1.284   .     A
C1183  O1223   1.292   .     A
C1184  H1189   1.082   .     S
C1184  N1214   1.367   .     S
Cu1185 Cu1186  2.681   .     S
Cu1185 N1213   2.015   .     S
Cu1185 O1217   1.967   .     S
Cu1185 O1245   1.958   .     S
Cu1186 N1214   2.015   .     S
Cu1186 O1243   1.965   .     S
Cu1186 O1246   1.957   .     S
Cu1187 O1222   1.958   .     S
Cu1187 O1219   1.965   .     S
Cu1187 Cu1188  2.681   .     S
Cu1187 N1215   2.015   .     S
Cu1188 O1218   1.967   .     S
Cu1188 O1223   1.957   .     S
Cu1188 N1216   2.015   .     S
H1190  O1226   0.988   .     S
H1191  O1227   0.988   .     S
H1192  O1229   0.989   .     S
H1193  O1230   0.986   .     S
H1194  O1231   0.989   .     S
H1195  O1232   0.988   .     S
H1196  O1233   0.989   .     S
H1197  O1234   0.988   .     S
H1198  O1235   0.988   .     S
H1199  O1236   0.989   .     S
H1201  O1237   0.988   .     S
H1202  O1238   0.989   .     S
H1203  O1240   0.986   .     S
H1204  O1241   0.989   .     S
H1205  O1242   0.988   .     S
H1212  O1225   0.988   .     S
O1220  Cu980   1.965   1_565 S
O1221  Cu980   1.958   1_565 S
O1224  Cu979   1.957   1_565 S
O1228  Cu1082  1.967   1_655 S
O1239  Cu1081  1.965   1_655 S
O1244  Cu1082  1.958   1_655 S
O1247  Cu1081  1.957   1_655 S
O1248  Cu979   1.967   1_565 S
