data_str_m2_o1_o2_pcu_sym.133
_audit_creation_date              2020-01-03
_audit_creation_method            'Materials Studio'
_symmetry_space_group_name_H-M    'P1'
_symmetry_Int_Tables_number       1
_symmetry_cell_setting            triclinic
loop_
_symmetry_equiv_pos_as_xyz
  x,y,z
_cell_length_a                    32.9479
_cell_length_b                    28.7116
_cell_length_c                    30.5678
_cell_angle_alpha                 89.9996
_cell_angle_beta                  94.4952
_cell_angle_gamma                 90.0000
loop_
_atom_site_label
_atom_site_type_symbol
_atom_site_fract_x
_atom_site_fract_y
_atom_site_fract_z
_atom_site_U_iso_or_equiv
_atom_site_adp_type
_atom_site_occupancy
C1     C     0.08750   0.16670   0.25140   0.00000  Uiso   1.00
C2     C     0.24584   0.16670   0.24860   0.00000  Uiso   1.00
C3     C     0.16804   0.16670   0.16505   0.00000  Uiso   1.00
C4     C     0.16529   0.16670   0.33496   0.00000  Uiso   1.00
C5     C     0.14017   0.02467   0.22176   0.00000  Uiso   1.00
C6     C     0.19255   0.30858   0.27891   0.00000  Uiso   1.00
C7     C     0.19316   0.02467   0.27824   0.00000  Uiso   1.00
C8     C     0.14078   0.30858   0.22109   0.00000  Uiso   1.00
C9     C     0.02127   0.12434   0.25275   0.00000  Uiso   1.00
C10    C     0.31202   0.20951   0.24812   0.00000  Uiso   1.00
C11    C     0.31206   0.12435   0.24725   0.00000  Uiso   1.00
C12    C     0.02131   0.20951   0.25188   0.00000  Uiso   1.00
C13    C     0.17868   0.20894   0.04858   0.00000  Uiso   1.00
C14    C     0.17556   0.12841   0.45377   0.00000  Uiso   1.00
C15    C     0.15463   0.20894   0.45142   0.00000  Uiso   1.00
C16    C     0.15777   0.12840   0.04623   0.00000  Uiso   1.00
C17    C     0.17983   0.20858   0.09451   0.00000  Uiso   1.00
C18    C     0.17191   0.12604   0.40819   0.00000  Uiso   1.00
C19    C     0.15349   0.20857   0.40549   0.00000  Uiso   1.00
C20    C     0.16143   0.12604   0.09181   0.00000  Uiso   1.00
C21    C     0.17006   0.16700   0.11669   0.00000  Uiso   1.00
C22    C     0.16327   0.16700   0.38330   0.00000  Uiso   1.00
C23    C     0.16709   0.16922   0.02420   0.00000  Uiso   1.00
C24    C     0.16623   0.16922   0.47580   0.00000  Uiso   1.00
C25    C     0.29049   0.16686   0.24747   0.00000  Uiso   1.00
C26    C     0.04284   0.16686   0.25253   0.00000  Uiso   1.00
Cu27   Cu    0.16667   0.21355   0.25000   0.00000  Uiso   1.00
Cu28   Cu    0.16667   0.11978   0.25000   0.00000  Uiso   1.00
H29    H     0.18758   0.24019   0.03197   0.00000  Uiso   1.00
H30    H     0.18527   0.09754   0.47199   0.00000  Uiso   1.00
H31    H     0.14572   0.24018   0.46802   0.00000  Uiso   1.00
H32    H     0.14806   0.09753   0.02801   0.00000  Uiso   1.00
N33    N     0.16667   0.28402   0.25000   0.00000  Uiso   1.00
N34    N     0.16667   0.04931   0.25000   0.00000  Uiso   1.00
O35    O     0.10655   0.20625   0.25000   0.00000  Uiso   1.00
O36    O     0.22679   0.12709   0.25001   0.00000  Uiso   1.00
O37    O     0.22679   0.20625   0.25001   0.00000  Uiso   1.00
O38    O     0.10655   0.12709   0.25000   0.00000  Uiso   1.00
O39    O     0.16666   0.20626   0.18573   0.00000  Uiso   1.00
O40    O     0.16667   0.12707   0.31427   0.00000  Uiso   1.00
O41    O     0.16667   0.20626   0.31427   0.00000  Uiso   1.00
O42    O     0.16666   0.12707   0.18573   0.00000  Uiso   1.00
Br43   Br    0.10081   0.05613   0.18242   0.00000  Uiso   1.00
Br44   Br    0.22855   0.27684   0.32182   0.00000  Uiso   1.00
Br45   Br    0.23253   0.05613   0.31757   0.00000  Uiso   1.00
Br46   Br    0.10478   0.27684   0.17819   0.00000  Uiso   1.00
N47    N     0.19243   0.24986   0.11854   0.00000  Uiso   1.00
H48    H     0.22162   0.24364   0.13335   0.00000  Uiso   1.00
H49    H     0.19483   0.27820   0.09741   0.00000  Uiso   1.00
N50    N     0.17563   0.08154   0.38753   0.00000  Uiso   1.00
H51    H     0.14619   0.07006   0.37772   0.00000  Uiso   1.00
H52    H     0.18834   0.05681   0.40969   0.00000  Uiso   1.00
N53    N     0.14088   0.24985   0.38145   0.00000  Uiso   1.00
H54    H     0.11170   0.24362   0.36663   0.00000  Uiso   1.00
H55    H     0.13846   0.27819   0.40258   0.00000  Uiso   1.00
N56    N     0.15773   0.08153   0.11248   0.00000  Uiso   1.00
H57    H     0.18717   0.07009   0.12232   0.00000  Uiso   1.00
H58    H     0.14505   0.05679   0.09031   0.00000  Uiso   1.00
N59    N     0.04241   0.08104   0.26081   0.00000  Uiso   1.00
H60    H     0.03380   0.05747   0.23577   0.00000  Uiso   1.00
H61    H     0.03410   0.06730   0.29050   0.00000  Uiso   1.00
N62    N     0.29067   0.25308   0.24310   0.00000  Uiso   1.00
H63    H     0.29959   0.27494   0.26942   0.00000  Uiso   1.00
H64    H     0.29800   0.26890   0.21395   0.00000  Uiso   1.00
N65    N     0.29092   0.08104   0.23918   0.00000  Uiso   1.00
H66    H     0.29923   0.06731   0.20949   0.00000  Uiso   1.00
H67    H     0.29954   0.05746   0.26422   0.00000  Uiso   1.00
N68    N     0.04267   0.25308   0.25691   0.00000  Uiso   1.00
H69    H     0.03534   0.26890   0.28606   0.00000  Uiso   1.00
H70    H     0.03374   0.27494   0.23058   0.00000  Uiso   1.00
C71    C     0.42083   0.16670   0.25140   0.00000  Uiso   1.00
C72    C     0.57917   0.16670   0.24860   0.00000  Uiso   1.00
C73    C     0.50137   0.16670   0.16505   0.00000  Uiso   1.00
C74    C     0.49863   0.16670   0.33496   0.00000  Uiso   1.00
C75    C     0.47350   0.02467   0.22176   0.00000  Uiso   1.00
C76    C     0.52588   0.30858   0.27891   0.00000  Uiso   1.00
C77    C     0.52650   0.02467   0.27824   0.00000  Uiso   1.00
C78    C     0.47412   0.30858   0.22109   0.00000  Uiso   1.00
C79    C     0.35461   0.12434   0.25275   0.00000  Uiso   1.00
C80    C     0.64536   0.20951   0.24812   0.00000  Uiso   1.00
C81    C     0.64539   0.12435   0.24725   0.00000  Uiso   1.00
C82    C     0.35464   0.20951   0.25188   0.00000  Uiso   1.00
C83    C     0.51201   0.20894   0.04858   0.00000  Uiso   1.00
C84    C     0.50890   0.12841   0.45377   0.00000  Uiso   1.00
C85    C     0.48796   0.20894   0.45142   0.00000  Uiso   1.00
C86    C     0.49110   0.12840   0.04623   0.00000  Uiso   1.00
C87    C     0.51316   0.20858   0.09451   0.00000  Uiso   1.00
C88    C     0.50525   0.12604   0.40819   0.00000  Uiso   1.00
C89    C     0.48682   0.20857   0.40549   0.00000  Uiso   1.00
C90    C     0.49476   0.12604   0.09181   0.00000  Uiso   1.00
C91    C     0.50339   0.16700   0.11669   0.00000  Uiso   1.00
C92    C     0.49660   0.16700   0.38330   0.00000  Uiso   1.00
C93    C     0.50043   0.16922   0.02420   0.00000  Uiso   1.00
C94    C     0.49956   0.16922   0.47580   0.00000  Uiso   1.00
C95    C     0.62383   0.16686   0.24747   0.00000  Uiso   1.00
C96    C     0.37617   0.16686   0.25253   0.00000  Uiso   1.00
Cu97   Cu    0.50000   0.21355   0.25000   0.00000  Uiso   1.00
Cu98   Cu    0.50000   0.11978   0.25000   0.00000  Uiso   1.00
H99    H     0.52091   0.24019   0.03197   0.00000  Uiso   1.00
H100   H     0.51861   0.09754   0.47199   0.00000  Uiso   1.00
H101   H     0.47905   0.24018   0.46802   0.00000  Uiso   1.00
H102   H     0.48140   0.09753   0.02801   0.00000  Uiso   1.00
N103   N     0.50000   0.28402   0.25000   0.00000  Uiso   1.00
N104   N     0.50000   0.04931   0.25000   0.00000  Uiso   1.00
O105   O     0.43988   0.20625   0.25000   0.00000  Uiso   1.00
O106   O     0.56012   0.12709   0.25001   0.00000  Uiso   1.00
O107   O     0.56012   0.20625   0.25001   0.00000  Uiso   1.00
O108   O     0.43988   0.12709   0.25000   0.00000  Uiso   1.00
O109   O     0.50000   0.20626   0.18573   0.00000  Uiso   1.00
O110   O     0.50000   0.12707   0.31427   0.00000  Uiso   1.00
O111   O     0.50000   0.20626   0.31427   0.00000  Uiso   1.00
O112   O     0.50000   0.12707   0.18573   0.00000  Uiso   1.00
Br113  Br    0.43415   0.05613   0.18242   0.00000  Uiso   1.00
Br114  Br    0.56189   0.27684   0.32182   0.00000  Uiso   1.00
Br115  Br    0.56586   0.05613   0.31757   0.00000  Uiso   1.00
Br116  Br    0.43811   0.27684   0.17819   0.00000  Uiso   1.00
N117   N     0.52576   0.24986   0.11854   0.00000  Uiso   1.00
H118   H     0.55495   0.24364   0.13335   0.00000  Uiso   1.00
H119   H     0.52816   0.27820   0.09741   0.00000  Uiso   1.00
N120   N     0.50896   0.08154   0.38753   0.00000  Uiso   1.00
H121   H     0.47953   0.07006   0.37772   0.00000  Uiso   1.00
H122   H     0.52168   0.05681   0.40969   0.00000  Uiso   1.00
N123   N     0.47421   0.24985   0.38145   0.00000  Uiso   1.00
H124   H     0.44503   0.24362   0.36663   0.00000  Uiso   1.00
H125   H     0.47180   0.27819   0.40258   0.00000  Uiso   1.00
N126   N     0.49106   0.08153   0.11248   0.00000  Uiso   1.00
H127   H     0.52050   0.07009   0.12232   0.00000  Uiso   1.00
H128   H     0.47839   0.05679   0.09031   0.00000  Uiso   1.00
N129   N     0.37574   0.08104   0.26081   0.00000  Uiso   1.00
H130   H     0.36713   0.05747   0.23577   0.00000  Uiso   1.00
H131   H     0.36743   0.06730   0.29050   0.00000  Uiso   1.00
N132   N     0.62400   0.25308   0.24310   0.00000  Uiso   1.00
H133   H     0.63292   0.27494   0.26942   0.00000  Uiso   1.00
H134   H     0.63133   0.26890   0.21395   0.00000  Uiso   1.00
N135   N     0.62426   0.08104   0.23918   0.00000  Uiso   1.00
H136   H     0.63257   0.06731   0.20949   0.00000  Uiso   1.00
H137   H     0.63287   0.05746   0.26422   0.00000  Uiso   1.00
N138   N     0.37600   0.25308   0.25691   0.00000  Uiso   1.00
H139   H     0.36867   0.26890   0.28606   0.00000  Uiso   1.00
H140   H     0.36708   0.27494   0.23058   0.00000  Uiso   1.00
C141   C     0.75417   0.16670   0.25140   0.00000  Uiso   1.00
C142   C     0.91250   0.16670   0.24860   0.00000  Uiso   1.00
C143   C     0.83471   0.16670   0.16505   0.00000  Uiso   1.00
C144   C     0.83196   0.16670   0.33496   0.00000  Uiso   1.00
C145   C     0.80684   0.02467   0.22176   0.00000  Uiso   1.00
C146   C     0.85922   0.30858   0.27891   0.00000  Uiso   1.00
C147   C     0.85983   0.02467   0.27824   0.00000  Uiso   1.00
C148   C     0.80745   0.30858   0.22109   0.00000  Uiso   1.00
C149   C     0.68794   0.12434   0.25275   0.00000  Uiso   1.00
C150   C     0.97869   0.20951   0.24812   0.00000  Uiso   1.00
C151   C     0.97873   0.12435   0.24725   0.00000  Uiso   1.00
C152   C     0.68798   0.20951   0.25188   0.00000  Uiso   1.00
C153   C     0.84535   0.20894   0.04858   0.00000  Uiso   1.00
C154   C     0.84223   0.12841   0.45377   0.00000  Uiso   1.00
C155   C     0.82130   0.20894   0.45142   0.00000  Uiso   1.00
C156   C     0.82444   0.12840   0.04623   0.00000  Uiso   1.00
C157   C     0.84649   0.20858   0.09451   0.00000  Uiso   1.00
C158   C     0.83858   0.12604   0.40819   0.00000  Uiso   1.00
C159   C     0.82016   0.20857   0.40549   0.00000  Uiso   1.00
C160   C     0.82809   0.12604   0.09181   0.00000  Uiso   1.00
C161   C     0.83673   0.16700   0.11669   0.00000  Uiso   1.00
C162   C     0.82994   0.16700   0.38330   0.00000  Uiso   1.00
C163   C     0.83376   0.16922   0.02420   0.00000  Uiso   1.00
C164   C     0.83289   0.16922   0.47580   0.00000  Uiso   1.00
C165   C     0.95716   0.16686   0.24747   0.00000  Uiso   1.00
C166   C     0.70951   0.16686   0.25253   0.00000  Uiso   1.00
Cu167  Cu    0.83333   0.21355   0.25000   0.00000  Uiso   1.00
Cu168  Cu    0.83333   0.11978   0.25000   0.00000  Uiso   1.00
H169   H     0.85425   0.24019   0.03197   0.00000  Uiso   1.00
H170   H     0.85194   0.09754   0.47199   0.00000  Uiso   1.00
H171   H     0.81239   0.24018   0.46802   0.00000  Uiso   1.00
H172   H     0.81473   0.09753   0.02801   0.00000  Uiso   1.00
N173   N     0.83333   0.28402   0.25000   0.00000  Uiso   1.00
N174   N     0.83333   0.04931   0.25000   0.00000  Uiso   1.00
O175   O     0.77321   0.20625   0.25000   0.00000  Uiso   1.00
O176   O     0.89345   0.12709   0.25001   0.00000  Uiso   1.00
O177   O     0.89345   0.20625   0.25001   0.00000  Uiso   1.00
O178   O     0.77321   0.12709   0.25000   0.00000  Uiso   1.00
O179   O     0.83333   0.20626   0.18573   0.00000  Uiso   1.00
O180   O     0.83334   0.12707   0.31427   0.00000  Uiso   1.00
O181   O     0.83334   0.20626   0.31427   0.00000  Uiso   1.00
O182   O     0.83333   0.12707   0.18573   0.00000  Uiso   1.00
Br183  Br    0.76748   0.05613   0.18242   0.00000  Uiso   1.00
Br184  Br    0.89522   0.27684   0.32182   0.00000  Uiso   1.00
Br185  Br    0.89919   0.05613   0.31757   0.00000  Uiso   1.00
Br186  Br    0.77145   0.27684   0.17819   0.00000  Uiso   1.00
N187   N     0.85909   0.24986   0.11854   0.00000  Uiso   1.00
H188   H     0.88828   0.24364   0.13335   0.00000  Uiso   1.00
H189   H     0.86150   0.27820   0.09741   0.00000  Uiso   1.00
N190   N     0.84229   0.08154   0.38753   0.00000  Uiso   1.00
H191   H     0.81286   0.07006   0.37772   0.00000  Uiso   1.00
H192   H     0.85501   0.05681   0.40969   0.00000  Uiso   1.00
N193   N     0.80755   0.24985   0.38145   0.00000  Uiso   1.00
H194   H     0.77836   0.24362   0.36663   0.00000  Uiso   1.00
H195   H     0.80513   0.27819   0.40258   0.00000  Uiso   1.00
N196   N     0.82440   0.08153   0.11248   0.00000  Uiso   1.00
H197   H     0.85383   0.07009   0.12232   0.00000  Uiso   1.00
H198   H     0.81172   0.05679   0.09031   0.00000  Uiso   1.00
N199   N     0.70908   0.08104   0.26081   0.00000  Uiso   1.00
H200   H     0.70046   0.05747   0.23577   0.00000  Uiso   1.00
H201   H     0.70077   0.06730   0.29050   0.00000  Uiso   1.00
N202   N     0.95733   0.25308   0.24310   0.00000  Uiso   1.00
H203   H     0.96626   0.27494   0.26942   0.00000  Uiso   1.00
H204   H     0.96466   0.26890   0.21395   0.00000  Uiso   1.00
N205   N     0.95759   0.08104   0.23918   0.00000  Uiso   1.00
H206   H     0.96590   0.06731   0.20949   0.00000  Uiso   1.00
H207   H     0.96620   0.05746   0.26422   0.00000  Uiso   1.00
N208   N     0.70933   0.25308   0.25691   0.00000  Uiso   1.00
H209   H     0.70200   0.26890   0.28606   0.00000  Uiso   1.00
H210   H     0.70041   0.27494   0.23058   0.00000  Uiso   1.00
C211   C     0.08750   0.50003   0.25140   0.00000  Uiso   1.00
C212   C     0.24584   0.50003   0.24860   0.00000  Uiso   1.00
C213   C     0.16804   0.50003   0.16505   0.00000  Uiso   1.00
C214   C     0.16529   0.50003   0.33496   0.00000  Uiso   1.00
C215   C     0.14017   0.35801   0.22176   0.00000  Uiso   1.00
C216   C     0.19255   0.64191   0.27891   0.00000  Uiso   1.00
C217   C     0.19316   0.35801   0.27824   0.00000  Uiso   1.00
C218   C     0.14078   0.64191   0.22109   0.00000  Uiso   1.00
C219   C     0.02127   0.45768   0.25275   0.00000  Uiso   1.00
C220   C     0.31202   0.54285   0.24812   0.00000  Uiso   1.00
C221   C     0.31206   0.45768   0.24725   0.00000  Uiso   1.00
C222   C     0.02131   0.54285   0.25188   0.00000  Uiso   1.00
C223   C     0.17868   0.54228   0.04858   0.00000  Uiso   1.00
C224   C     0.17556   0.46174   0.45377   0.00000  Uiso   1.00
C225   C     0.15463   0.54227   0.45142   0.00000  Uiso   1.00
C226   C     0.15777   0.46174   0.04623   0.00000  Uiso   1.00
C227   C     0.17983   0.54191   0.09451   0.00000  Uiso   1.00
C228   C     0.17191   0.45937   0.40819   0.00000  Uiso   1.00
C229   C     0.15349   0.54190   0.40549   0.00000  Uiso   1.00
C230   C     0.16143   0.45937   0.09181   0.00000  Uiso   1.00
C231   C     0.17006   0.50033   0.11669   0.00000  Uiso   1.00
C232   C     0.16327   0.50033   0.38330   0.00000  Uiso   1.00
C233   C     0.16709   0.50255   0.02420   0.00000  Uiso   1.00
C234   C     0.16623   0.50255   0.47580   0.00000  Uiso   1.00
C235   C     0.29049   0.50020   0.24747   0.00000  Uiso   1.00
C236   C     0.04284   0.50020   0.25253   0.00000  Uiso   1.00
Cu237  Cu    0.16667   0.54689   0.25000   0.00000  Uiso   1.00
Cu238  Cu    0.16667   0.45311   0.25000   0.00000  Uiso   1.00
H239   H     0.18758   0.57352   0.03197   0.00000  Uiso   1.00
H240   H     0.18527   0.43087   0.47199   0.00000  Uiso   1.00
H241   H     0.14572   0.57352   0.46802   0.00000  Uiso   1.00
H242   H     0.14806   0.43086   0.02801   0.00000  Uiso   1.00
N243   N     0.16667   0.61736   0.25000   0.00000  Uiso   1.00
N244   N     0.16667   0.38264   0.25000   0.00000  Uiso   1.00
O245   O     0.10655   0.53958   0.25000   0.00000  Uiso   1.00
O246   O     0.22679   0.46042   0.25001   0.00000  Uiso   1.00
O247   O     0.22679   0.53958   0.25001   0.00000  Uiso   1.00
O248   O     0.10655   0.46042   0.25000   0.00000  Uiso   1.00
O249   O     0.16666   0.53959   0.18573   0.00000  Uiso   1.00
O250   O     0.16667   0.46041   0.31427   0.00000  Uiso   1.00
O251   O     0.16667   0.53959   0.31427   0.00000  Uiso   1.00
O252   O     0.16666   0.46041   0.18573   0.00000  Uiso   1.00
Br253  Br    0.10081   0.38947   0.18242   0.00000  Uiso   1.00
Br254  Br    0.22855   0.61018   0.32182   0.00000  Uiso   1.00
Br255  Br    0.23253   0.38947   0.31757   0.00000  Uiso   1.00
Br256  Br    0.10478   0.61018   0.17819   0.00000  Uiso   1.00
N257   N     0.19243   0.58319   0.11854   0.00000  Uiso   1.00
H258   H     0.22162   0.57698   0.13335   0.00000  Uiso   1.00
H259   H     0.19483   0.61153   0.09741   0.00000  Uiso   1.00
N260   N     0.17563   0.41487   0.38753   0.00000  Uiso   1.00
H261   H     0.14619   0.40340   0.37772   0.00000  Uiso   1.00
H262   H     0.18834   0.39014   0.40969   0.00000  Uiso   1.00
N263   N     0.14088   0.58319   0.38145   0.00000  Uiso   1.00
H264   H     0.11170   0.57696   0.36663   0.00000  Uiso   1.00
H265   H     0.13846   0.61152   0.40258   0.00000  Uiso   1.00
N266   N     0.15773   0.41487   0.11248   0.00000  Uiso   1.00
H267   H     0.18717   0.40342   0.12232   0.00000  Uiso   1.00
H268   H     0.14505   0.39012   0.09031   0.00000  Uiso   1.00
N269   N     0.04241   0.41437   0.26081   0.00000  Uiso   1.00
H270   H     0.03380   0.39080   0.23577   0.00000  Uiso   1.00
H271   H     0.03410   0.40064   0.29050   0.00000  Uiso   1.00
N272   N     0.29067   0.58641   0.24310   0.00000  Uiso   1.00
H273   H     0.29959   0.60828   0.26942   0.00000  Uiso   1.00
H274   H     0.29800   0.60224   0.21395   0.00000  Uiso   1.00
N275   N     0.29092   0.41437   0.23918   0.00000  Uiso   1.00
H276   H     0.29923   0.40064   0.20949   0.00000  Uiso   1.00
H277   H     0.29954   0.39080   0.26422   0.00000  Uiso   1.00
N278   N     0.04267   0.58641   0.25691   0.00000  Uiso   1.00
H279   H     0.03534   0.60223   0.28606   0.00000  Uiso   1.00
H280   H     0.03374   0.60828   0.23058   0.00000  Uiso   1.00
C281   C     0.42083   0.50003   0.25140   0.00000  Uiso   1.00
C282   C     0.57917   0.50003   0.24860   0.00000  Uiso   1.00
C283   C     0.50137   0.50003   0.16505   0.00000  Uiso   1.00
C284   C     0.49863   0.50003   0.33496   0.00000  Uiso   1.00
C285   C     0.47350   0.35801   0.22176   0.00000  Uiso   1.00
C286   C     0.52588   0.64191   0.27891   0.00000  Uiso   1.00
C287   C     0.52650   0.35801   0.27824   0.00000  Uiso   1.00
C288   C     0.47412   0.64191   0.22109   0.00000  Uiso   1.00
C289   C     0.35461   0.45768   0.25275   0.00000  Uiso   1.00
C290   C     0.64536   0.54285   0.24812   0.00000  Uiso   1.00
C291   C     0.64539   0.45768   0.24725   0.00000  Uiso   1.00
C292   C     0.35464   0.54285   0.25188   0.00000  Uiso   1.00
C293   C     0.51201   0.54228   0.04858   0.00000  Uiso   1.00
C294   C     0.50890   0.46174   0.45377   0.00000  Uiso   1.00
C295   C     0.48796   0.54227   0.45142   0.00000  Uiso   1.00
C296   C     0.49110   0.46174   0.04623   0.00000  Uiso   1.00
C297   C     0.51316   0.54191   0.09451   0.00000  Uiso   1.00
C298   C     0.50525   0.45937   0.40819   0.00000  Uiso   1.00
C299   C     0.48682   0.54190   0.40549   0.00000  Uiso   1.00
C300   C     0.49476   0.45937   0.09181   0.00000  Uiso   1.00
C301   C     0.50339   0.50033   0.11669   0.00000  Uiso   1.00
C302   C     0.49660   0.50033   0.38330   0.00000  Uiso   1.00
C303   C     0.50043   0.50255   0.02420   0.00000  Uiso   1.00
C304   C     0.49956   0.50255   0.47580   0.00000  Uiso   1.00
C305   C     0.62383   0.50020   0.24747   0.00000  Uiso   1.00
C306   C     0.37617   0.50020   0.25253   0.00000  Uiso   1.00
Cu307  Cu    0.50000   0.54689   0.25000   0.00000  Uiso   1.00
Cu308  Cu    0.50000   0.45311   0.25000   0.00000  Uiso   1.00
H309   H     0.52091   0.57352   0.03197   0.00000  Uiso   1.00
H310   H     0.51861   0.43087   0.47199   0.00000  Uiso   1.00
H311   H     0.47905   0.57352   0.46802   0.00000  Uiso   1.00
H312   H     0.48140   0.43086   0.02801   0.00000  Uiso   1.00
N313   N     0.50000   0.61736   0.25000   0.00000  Uiso   1.00
N314   N     0.50000   0.38264   0.25000   0.00000  Uiso   1.00
O315   O     0.43988   0.53958   0.25000   0.00000  Uiso   1.00
O316   O     0.56012   0.46042   0.25001   0.00000  Uiso   1.00
O317   O     0.56012   0.53958   0.25001   0.00000  Uiso   1.00
O318   O     0.43988   0.46042   0.25000   0.00000  Uiso   1.00
O319   O     0.50000   0.53959   0.18573   0.00000  Uiso   1.00
O320   O     0.50000   0.46041   0.31427   0.00000  Uiso   1.00
O321   O     0.50000   0.53959   0.31427   0.00000  Uiso   1.00
O322   O     0.50000   0.46041   0.18573   0.00000  Uiso   1.00
Br323  Br    0.43415   0.38947   0.18242   0.00000  Uiso   1.00
Br324  Br    0.56189   0.61018   0.32182   0.00000  Uiso   1.00
Br325  Br    0.56586   0.38947   0.31757   0.00000  Uiso   1.00
Br326  Br    0.43811   0.61018   0.17819   0.00000  Uiso   1.00
N327   N     0.52576   0.58319   0.11854   0.00000  Uiso   1.00
H328   H     0.55495   0.57698   0.13335   0.00000  Uiso   1.00
H329   H     0.52816   0.61153   0.09741   0.00000  Uiso   1.00
N330   N     0.50896   0.41487   0.38753   0.00000  Uiso   1.00
H331   H     0.47953   0.40340   0.37772   0.00000  Uiso   1.00
H332   H     0.52168   0.39014   0.40969   0.00000  Uiso   1.00
N333   N     0.47421   0.58319   0.38145   0.00000  Uiso   1.00
H334   H     0.44503   0.57696   0.36663   0.00000  Uiso   1.00
H335   H     0.47180   0.61152   0.40258   0.00000  Uiso   1.00
N336   N     0.49106   0.41487   0.11248   0.00000  Uiso   1.00
H337   H     0.52050   0.40342   0.12232   0.00000  Uiso   1.00
H338   H     0.47839   0.39012   0.09031   0.00000  Uiso   1.00
N339   N     0.37574   0.41437   0.26081   0.00000  Uiso   1.00
H340   H     0.36713   0.39080   0.23577   0.00000  Uiso   1.00
H341   H     0.36743   0.40064   0.29050   0.00000  Uiso   1.00
N342   N     0.62400   0.58641   0.24310   0.00000  Uiso   1.00
H343   H     0.63292   0.60828   0.26942   0.00000  Uiso   1.00
H344   H     0.63133   0.60224   0.21395   0.00000  Uiso   1.00
N345   N     0.62426   0.41437   0.23918   0.00000  Uiso   1.00
H346   H     0.63257   0.40064   0.20949   0.00000  Uiso   1.00
H347   H     0.63287   0.39080   0.26422   0.00000  Uiso   1.00
N348   N     0.37600   0.58641   0.25691   0.00000  Uiso   1.00
H349   H     0.36867   0.60223   0.28606   0.00000  Uiso   1.00
H350   H     0.36708   0.60828   0.23058   0.00000  Uiso   1.00
C351   C     0.75417   0.50003   0.25140   0.00000  Uiso   1.00
C352   C     0.91250   0.50003   0.24860   0.00000  Uiso   1.00
C353   C     0.83471   0.50003   0.16505   0.00000  Uiso   1.00
C354   C     0.83196   0.50003   0.33496   0.00000  Uiso   1.00
C355   C     0.80684   0.35801   0.22176   0.00000  Uiso   1.00
C356   C     0.85922   0.64191   0.27891   0.00000  Uiso   1.00
C357   C     0.85983   0.35801   0.27824   0.00000  Uiso   1.00
C358   C     0.80745   0.64191   0.22109   0.00000  Uiso   1.00
C359   C     0.68794   0.45768   0.25275   0.00000  Uiso   1.00
C360   C     0.97869   0.54285   0.24812   0.00000  Uiso   1.00
C361   C     0.97873   0.45768   0.24725   0.00000  Uiso   1.00
C362   C     0.68798   0.54285   0.25188   0.00000  Uiso   1.00
C363   C     0.84535   0.54228   0.04858   0.00000  Uiso   1.00
C364   C     0.84223   0.46174   0.45377   0.00000  Uiso   1.00
C365   C     0.82130   0.54227   0.45142   0.00000  Uiso   1.00
C366   C     0.82444   0.46174   0.04623   0.00000  Uiso   1.00
C367   C     0.84649   0.54191   0.09451   0.00000  Uiso   1.00
C368   C     0.83858   0.45937   0.40819   0.00000  Uiso   1.00
C369   C     0.82016   0.54190   0.40549   0.00000  Uiso   1.00
C370   C     0.82809   0.45937   0.09181   0.00000  Uiso   1.00
C371   C     0.83673   0.50033   0.11669   0.00000  Uiso   1.00
C372   C     0.82994   0.50033   0.38330   0.00000  Uiso   1.00
C373   C     0.83376   0.50255   0.02420   0.00000  Uiso   1.00
C374   C     0.83289   0.50255   0.47580   0.00000  Uiso   1.00
C375   C     0.95716   0.50020   0.24747   0.00000  Uiso   1.00
C376   C     0.70951   0.50020   0.25253   0.00000  Uiso   1.00
Cu377  Cu    0.83333   0.54689   0.25000   0.00000  Uiso   1.00
Cu378  Cu    0.83333   0.45311   0.25000   0.00000  Uiso   1.00
H379   H     0.85425   0.57352   0.03197   0.00000  Uiso   1.00
H380   H     0.85194   0.43087   0.47199   0.00000  Uiso   1.00
H381   H     0.81239   0.57352   0.46802   0.00000  Uiso   1.00
H382   H     0.81473   0.43086   0.02801   0.00000  Uiso   1.00
N383   N     0.83333   0.61736   0.25000   0.00000  Uiso   1.00
N384   N     0.83333   0.38264   0.25000   0.00000  Uiso   1.00
O385   O     0.77321   0.53958   0.25000   0.00000  Uiso   1.00
O386   O     0.89345   0.46042   0.25001   0.00000  Uiso   1.00
O387   O     0.89345   0.53958   0.25001   0.00000  Uiso   1.00
O388   O     0.77321   0.46042   0.25000   0.00000  Uiso   1.00
O389   O     0.83333   0.53959   0.18573   0.00000  Uiso   1.00
O390   O     0.83334   0.46041   0.31427   0.00000  Uiso   1.00
O391   O     0.83334   0.53959   0.31427   0.00000  Uiso   1.00
O392   O     0.83333   0.46041   0.18573   0.00000  Uiso   1.00
Br393  Br    0.76748   0.38947   0.18242   0.00000  Uiso   1.00
Br394  Br    0.89522   0.61018   0.32182   0.00000  Uiso   1.00
Br395  Br    0.89919   0.38947   0.31757   0.00000  Uiso   1.00
Br396  Br    0.77145   0.61018   0.17819   0.00000  Uiso   1.00
N397   N     0.85909   0.58319   0.11854   0.00000  Uiso   1.00
H398   H     0.88828   0.57698   0.13335   0.00000  Uiso   1.00
H399   H     0.86150   0.61153   0.09741   0.00000  Uiso   1.00
N400   N     0.84229   0.41487   0.38753   0.00000  Uiso   1.00
H401   H     0.81286   0.40340   0.37772   0.00000  Uiso   1.00
H402   H     0.85501   0.39014   0.40969   0.00000  Uiso   1.00
N403   N     0.80755   0.58319   0.38145   0.00000  Uiso   1.00
H404   H     0.77836   0.57696   0.36663   0.00000  Uiso   1.00
H405   H     0.80513   0.61152   0.40258   0.00000  Uiso   1.00
N406   N     0.82440   0.41487   0.11248   0.00000  Uiso   1.00
H407   H     0.85383   0.40342   0.12232   0.00000  Uiso   1.00
H408   H     0.81172   0.39012   0.09031   0.00000  Uiso   1.00
N409   N     0.70908   0.41437   0.26081   0.00000  Uiso   1.00
H410   H     0.70046   0.39080   0.23577   0.00000  Uiso   1.00
H411   H     0.70077   0.40064   0.29050   0.00000  Uiso   1.00
N412   N     0.95733   0.58641   0.24310   0.00000  Uiso   1.00
H413   H     0.96626   0.60828   0.26942   0.00000  Uiso   1.00
H414   H     0.96466   0.60224   0.21395   0.00000  Uiso   1.00
N415   N     0.95759   0.41437   0.23918   0.00000  Uiso   1.00
H416   H     0.96590   0.40064   0.20949   0.00000  Uiso   1.00
H417   H     0.96620   0.39080   0.26422   0.00000  Uiso   1.00
N418   N     0.70933   0.58641   0.25691   0.00000  Uiso   1.00
H419   H     0.70200   0.60223   0.28606   0.00000  Uiso   1.00
H420   H     0.70041   0.60828   0.23058   0.00000  Uiso   1.00
C421   C     0.08750   0.83337   0.25140   0.00000  Uiso   1.00
C422   C     0.24584   0.83337   0.24860   0.00000  Uiso   1.00
C423   C     0.16804   0.83336   0.16505   0.00000  Uiso   1.00
C424   C     0.16529   0.83336   0.33496   0.00000  Uiso   1.00
C425   C     0.14017   0.69134   0.22176   0.00000  Uiso   1.00
C426   C     0.19255   0.97524   0.27891   0.00000  Uiso   1.00
C427   C     0.19316   0.69134   0.27824   0.00000  Uiso   1.00
C428   C     0.14078   0.97524   0.22109   0.00000  Uiso   1.00
C429   C     0.02127   0.79101   0.25275   0.00000  Uiso   1.00
C430   C     0.31202   0.87618   0.24812   0.00000  Uiso   1.00
C431   C     0.31206   0.79101   0.24725   0.00000  Uiso   1.00
C432   C     0.02131   0.87618   0.25188   0.00000  Uiso   1.00
C433   C     0.17868   0.87561   0.04858   0.00000  Uiso   1.00
C434   C     0.17556   0.79507   0.45377   0.00000  Uiso   1.00
C435   C     0.15463   0.87561   0.45142   0.00000  Uiso   1.00
C436   C     0.15777   0.79507   0.04623   0.00000  Uiso   1.00
C437   C     0.17983   0.87524   0.09451   0.00000  Uiso   1.00
C438   C     0.17191   0.79271   0.40819   0.00000  Uiso   1.00
C439   C     0.15349   0.87524   0.40549   0.00000  Uiso   1.00
C440   C     0.16143   0.79270   0.09181   0.00000  Uiso   1.00
C441   C     0.17006   0.83367   0.11669   0.00000  Uiso   1.00
C442   C     0.16327   0.83367   0.38330   0.00000  Uiso   1.00
C443   C     0.16709   0.83589   0.02420   0.00000  Uiso   1.00
C444   C     0.16623   0.83589   0.47580   0.00000  Uiso   1.00
C445   C     0.29049   0.83353   0.24747   0.00000  Uiso   1.00
C446   C     0.04284   0.83353   0.25253   0.00000  Uiso   1.00
Cu447  Cu    0.16667   0.88022   0.25000   0.00000  Uiso   1.00
Cu448  Cu    0.16667   0.78645   0.25000   0.00000  Uiso   1.00
H449   H     0.18758   0.90686   0.03197   0.00000  Uiso   1.00
H450   H     0.18527   0.76420   0.47199   0.00000  Uiso   1.00
H451   H     0.14572   0.90685   0.46802   0.00000  Uiso   1.00
H452   H     0.14806   0.76420   0.02801   0.00000  Uiso   1.00
N453   N     0.16667   0.95069   0.25000   0.00000  Uiso   1.00
N454   N     0.16667   0.71598   0.25000   0.00000  Uiso   1.00
O455   O     0.10655   0.87291   0.25000   0.00000  Uiso   1.00
O456   O     0.22679   0.79375   0.25001   0.00000  Uiso   1.00
O457   O     0.22679   0.87291   0.25001   0.00000  Uiso   1.00
O458   O     0.10655   0.79375   0.25000   0.00000  Uiso   1.00
O459   O     0.16666   0.87293   0.18573   0.00000  Uiso   1.00
O460   O     0.16667   0.79374   0.31427   0.00000  Uiso   1.00
O461   O     0.16667   0.87293   0.31427   0.00000  Uiso   1.00
O462   O     0.16666   0.79374   0.18573   0.00000  Uiso   1.00
Br463  Br    0.10081   0.72280   0.18242   0.00000  Uiso   1.00
Br464  Br    0.22855   0.94351   0.32182   0.00000  Uiso   1.00
Br465  Br    0.23253   0.72280   0.31757   0.00000  Uiso   1.00
Br466  Br    0.10478   0.94351   0.17819   0.00000  Uiso   1.00
N467   N     0.19243   0.91653   0.11854   0.00000  Uiso   1.00
H468   H     0.22162   0.91031   0.13335   0.00000  Uiso   1.00
H469   H     0.19483   0.94487   0.09741   0.00000  Uiso   1.00
N470   N     0.17563   0.74821   0.38753   0.00000  Uiso   1.00
H471   H     0.14619   0.73673   0.37772   0.00000  Uiso   1.00
H472   H     0.18834   0.72348   0.40969   0.00000  Uiso   1.00
N473   N     0.14088   0.91652   0.38145   0.00000  Uiso   1.00
H474   H     0.11170   0.91029   0.36663   0.00000  Uiso   1.00
H475   H     0.13846   0.94486   0.40258   0.00000  Uiso   1.00
N476   N     0.15773   0.74820   0.11248   0.00000  Uiso   1.00
H477   H     0.18717   0.73676   0.12232   0.00000  Uiso   1.00
H478   H     0.14505   0.72345   0.09031   0.00000  Uiso   1.00
N479   N     0.04241   0.74770   0.26081   0.00000  Uiso   1.00
H480   H     0.03380   0.72413   0.23577   0.00000  Uiso   1.00
H481   H     0.03410   0.73397   0.29050   0.00000  Uiso   1.00
N482   N     0.29067   0.91975   0.24310   0.00000  Uiso   1.00
H483   H     0.29959   0.94161   0.26942   0.00000  Uiso   1.00
H484   H     0.29800   0.93557   0.21395   0.00000  Uiso   1.00
N485   N     0.29092   0.74770   0.23918   0.00000  Uiso   1.00
H486   H     0.29923   0.73397   0.20949   0.00000  Uiso   1.00
H487   H     0.29954   0.72413   0.26422   0.00000  Uiso   1.00
N488   N     0.04267   0.91975   0.25691   0.00000  Uiso   1.00
H489   H     0.03534   0.93557   0.28606   0.00000  Uiso   1.00
H490   H     0.03374   0.94161   0.23058   0.00000  Uiso   1.00
C491   C     0.42083   0.83337   0.25140   0.00000  Uiso   1.00
C492   C     0.57917   0.83337   0.24860   0.00000  Uiso   1.00
C493   C     0.50137   0.83336   0.16505   0.00000  Uiso   1.00
C494   C     0.49863   0.83336   0.33496   0.00000  Uiso   1.00
C495   C     0.47350   0.69134   0.22176   0.00000  Uiso   1.00
C496   C     0.52588   0.97524   0.27891   0.00000  Uiso   1.00
C497   C     0.52650   0.69134   0.27824   0.00000  Uiso   1.00
C498   C     0.47412   0.97524   0.22109   0.00000  Uiso   1.00
C499   C     0.35461   0.79101   0.25275   0.00000  Uiso   1.00
C500   C     0.64536   0.87618   0.24812   0.00000  Uiso   1.00
C501   C     0.64539   0.79101   0.24725   0.00000  Uiso   1.00
C502   C     0.35464   0.87618   0.25188   0.00000  Uiso   1.00
C503   C     0.51201   0.87561   0.04858   0.00000  Uiso   1.00
C504   C     0.50890   0.79507   0.45377   0.00000  Uiso   1.00
C505   C     0.48796   0.87561   0.45142   0.00000  Uiso   1.00
C506   C     0.49110   0.79507   0.04623   0.00000  Uiso   1.00
C507   C     0.51316   0.87524   0.09451   0.00000  Uiso   1.00
C508   C     0.50525   0.79271   0.40819   0.00000  Uiso   1.00
C509   C     0.48682   0.87524   0.40549   0.00000  Uiso   1.00
C510   C     0.49476   0.79270   0.09181   0.00000  Uiso   1.00
C511   C     0.50339   0.83367   0.11669   0.00000  Uiso   1.00
C512   C     0.49660   0.83367   0.38330   0.00000  Uiso   1.00
C513   C     0.50043   0.83589   0.02420   0.00000  Uiso   1.00
C514   C     0.49956   0.83589   0.47580   0.00000  Uiso   1.00
C515   C     0.62383   0.83353   0.24747   0.00000  Uiso   1.00
C516   C     0.37617   0.83353   0.25253   0.00000  Uiso   1.00
Cu517  Cu    0.50000   0.88022   0.25000   0.00000  Uiso   1.00
Cu518  Cu    0.50000   0.78645   0.25000   0.00000  Uiso   1.00
H519   H     0.52091   0.90686   0.03197   0.00000  Uiso   1.00
H520   H     0.51861   0.76420   0.47199   0.00000  Uiso   1.00
H521   H     0.47905   0.90685   0.46802   0.00000  Uiso   1.00
H522   H     0.48140   0.76420   0.02801   0.00000  Uiso   1.00
N523   N     0.50000   0.95069   0.25000   0.00000  Uiso   1.00
N524   N     0.50000   0.71598   0.25000   0.00000  Uiso   1.00
O525   O     0.43988   0.87291   0.25000   0.00000  Uiso   1.00
O526   O     0.56012   0.79375   0.25001   0.00000  Uiso   1.00
O527   O     0.56012   0.87291   0.25001   0.00000  Uiso   1.00
O528   O     0.43988   0.79375   0.25000   0.00000  Uiso   1.00
O529   O     0.50000   0.87293   0.18573   0.00000  Uiso   1.00
O530   O     0.50000   0.79374   0.31427   0.00000  Uiso   1.00
O531   O     0.50000   0.87293   0.31427   0.00000  Uiso   1.00
O532   O     0.50000   0.79374   0.18573   0.00000  Uiso   1.00
Br533  Br    0.43415   0.72280   0.18242   0.00000  Uiso   1.00
Br534  Br    0.56189   0.94351   0.32182   0.00000  Uiso   1.00
Br535  Br    0.56586   0.72280   0.31757   0.00000  Uiso   1.00
Br536  Br    0.43811   0.94351   0.17819   0.00000  Uiso   1.00
N537   N     0.52576   0.91653   0.11854   0.00000  Uiso   1.00
H538   H     0.55495   0.91031   0.13335   0.00000  Uiso   1.00
H539   H     0.52816   0.94487   0.09741   0.00000  Uiso   1.00
N540   N     0.50896   0.74821   0.38753   0.00000  Uiso   1.00
H541   H     0.47953   0.73673   0.37772   0.00000  Uiso   1.00
H542   H     0.52168   0.72348   0.40969   0.00000  Uiso   1.00
N543   N     0.47421   0.91652   0.38145   0.00000  Uiso   1.00
H544   H     0.44503   0.91029   0.36663   0.00000  Uiso   1.00
H545   H     0.47180   0.94486   0.40258   0.00000  Uiso   1.00
N546   N     0.49106   0.74820   0.11248   0.00000  Uiso   1.00
H547   H     0.52050   0.73676   0.12232   0.00000  Uiso   1.00
H548   H     0.47839   0.72345   0.09031   0.00000  Uiso   1.00
N549   N     0.37574   0.74770   0.26081   0.00000  Uiso   1.00
H550   H     0.36713   0.72413   0.23577   0.00000  Uiso   1.00
H551   H     0.36743   0.73397   0.29050   0.00000  Uiso   1.00
N552   N     0.62400   0.91975   0.24310   0.00000  Uiso   1.00
H553   H     0.63292   0.94161   0.26942   0.00000  Uiso   1.00
H554   H     0.63133   0.93557   0.21395   0.00000  Uiso   1.00
N555   N     0.62426   0.74770   0.23918   0.00000  Uiso   1.00
H556   H     0.63257   0.73397   0.20949   0.00000  Uiso   1.00
H557   H     0.63287   0.72413   0.26422   0.00000  Uiso   1.00
N558   N     0.37600   0.91975   0.25691   0.00000  Uiso   1.00
H559   H     0.36867   0.93557   0.28606   0.00000  Uiso   1.00
H560   H     0.36708   0.94161   0.23058   0.00000  Uiso   1.00
C561   C     0.75417   0.83337   0.25140   0.00000  Uiso   1.00
C562   C     0.91250   0.83337   0.24860   0.00000  Uiso   1.00
C563   C     0.83471   0.83336   0.16505   0.00000  Uiso   1.00
C564   C     0.83196   0.83336   0.33496   0.00000  Uiso   1.00
C565   C     0.80684   0.69134   0.22176   0.00000  Uiso   1.00
C566   C     0.85922   0.97524   0.27891   0.00000  Uiso   1.00
C567   C     0.85983   0.69134   0.27824   0.00000  Uiso   1.00
C568   C     0.80745   0.97524   0.22109   0.00000  Uiso   1.00
C569   C     0.68794   0.79101   0.25275   0.00000  Uiso   1.00
C570   C     0.97869   0.87618   0.24812   0.00000  Uiso   1.00
C571   C     0.97873   0.79101   0.24725   0.00000  Uiso   1.00
C572   C     0.68798   0.87618   0.25188   0.00000  Uiso   1.00
C573   C     0.84535   0.87561   0.04858   0.00000  Uiso   1.00
C574   C     0.84223   0.79507   0.45377   0.00000  Uiso   1.00
C575   C     0.82130   0.87561   0.45142   0.00000  Uiso   1.00
C576   C     0.82444   0.79507   0.04623   0.00000  Uiso   1.00
C577   C     0.84649   0.87524   0.09451   0.00000  Uiso   1.00
C578   C     0.83858   0.79271   0.40819   0.00000  Uiso   1.00
C579   C     0.82016   0.87524   0.40549   0.00000  Uiso   1.00
C580   C     0.82809   0.79270   0.09181   0.00000  Uiso   1.00
C581   C     0.83673   0.83367   0.11669   0.00000  Uiso   1.00
C582   C     0.82994   0.83367   0.38330   0.00000  Uiso   1.00
C583   C     0.83376   0.83589   0.02420   0.00000  Uiso   1.00
C584   C     0.83289   0.83589   0.47580   0.00000  Uiso   1.00
C585   C     0.95716   0.83353   0.24747   0.00000  Uiso   1.00
C586   C     0.70951   0.83353   0.25253   0.00000  Uiso   1.00
Cu587  Cu    0.83333   0.88022   0.25000   0.00000  Uiso   1.00
Cu588  Cu    0.83333   0.78645   0.25000   0.00000  Uiso   1.00
H589   H     0.85425   0.90686   0.03197   0.00000  Uiso   1.00
H590   H     0.85194   0.76420   0.47199   0.00000  Uiso   1.00
H591   H     0.81239   0.90685   0.46802   0.00000  Uiso   1.00
H592   H     0.81473   0.76420   0.02801   0.00000  Uiso   1.00
N593   N     0.83333   0.95069   0.25000   0.00000  Uiso   1.00
N594   N     0.83333   0.71598   0.25000   0.00000  Uiso   1.00
O595   O     0.77321   0.87291   0.25000   0.00000  Uiso   1.00
O596   O     0.89345   0.79375   0.25001   0.00000  Uiso   1.00
O597   O     0.89345   0.87291   0.25001   0.00000  Uiso   1.00
O598   O     0.77321   0.79375   0.25000   0.00000  Uiso   1.00
O599   O     0.83333   0.87293   0.18573   0.00000  Uiso   1.00
O600   O     0.83334   0.79374   0.31427   0.00000  Uiso   1.00
O601   O     0.83334   0.87293   0.31427   0.00000  Uiso   1.00
O602   O     0.83333   0.79374   0.18573   0.00000  Uiso   1.00
Br603  Br    0.76748   0.72280   0.18242   0.00000  Uiso   1.00
Br604  Br    0.89522   0.94351   0.32182   0.00000  Uiso   1.00
Br605  Br    0.89919   0.72280   0.31757   0.00000  Uiso   1.00
Br606  Br    0.77145   0.94351   0.17819   0.00000  Uiso   1.00
N607   N     0.85909   0.91653   0.11854   0.00000  Uiso   1.00
H608   H     0.88828   0.91031   0.13335   0.00000  Uiso   1.00
H609   H     0.86150   0.94487   0.09741   0.00000  Uiso   1.00
N610   N     0.84229   0.74821   0.38753   0.00000  Uiso   1.00
H611   H     0.81286   0.73673   0.37772   0.00000  Uiso   1.00
H612   H     0.85501   0.72348   0.40969   0.00000  Uiso   1.00
N613   N     0.80755   0.91652   0.38145   0.00000  Uiso   1.00
H614   H     0.77836   0.91029   0.36663   0.00000  Uiso   1.00
H615   H     0.80513   0.94486   0.40258   0.00000  Uiso   1.00
N616   N     0.82440   0.74820   0.11248   0.00000  Uiso   1.00
H617   H     0.85383   0.73676   0.12232   0.00000  Uiso   1.00
H618   H     0.81172   0.72345   0.09031   0.00000  Uiso   1.00
N619   N     0.70908   0.74770   0.26081   0.00000  Uiso   1.00
H620   H     0.70046   0.72413   0.23577   0.00000  Uiso   1.00
H621   H     0.70077   0.73397   0.29050   0.00000  Uiso   1.00
N622   N     0.95733   0.91975   0.24310   0.00000  Uiso   1.00
H623   H     0.96626   0.94161   0.26942   0.00000  Uiso   1.00
H624   H     0.96466   0.93557   0.21395   0.00000  Uiso   1.00
N625   N     0.95759   0.74770   0.23918   0.00000  Uiso   1.00
H626   H     0.96590   0.73397   0.20949   0.00000  Uiso   1.00
H627   H     0.96620   0.72413   0.26422   0.00000  Uiso   1.00
N628   N     0.70933   0.91975   0.25691   0.00000  Uiso   1.00
H629   H     0.70200   0.93557   0.28606   0.00000  Uiso   1.00
H630   H     0.70041   0.94161   0.23058   0.00000  Uiso   1.00
C631   C     0.08750   0.16670   0.75140   0.00000  Uiso   1.00
C632   C     0.24584   0.16670   0.74860   0.00000  Uiso   1.00
C633   C     0.16804   0.16670   0.66505   0.00000  Uiso   1.00
C634   C     0.16529   0.16670   0.83496   0.00000  Uiso   1.00
C635   C     0.14017   0.02467   0.72176   0.00000  Uiso   1.00
C636   C     0.19255   0.30858   0.77891   0.00000  Uiso   1.00
C637   C     0.19316   0.02467   0.77824   0.00000  Uiso   1.00
C638   C     0.14078   0.30858   0.72109   0.00000  Uiso   1.00
C639   C     0.02127   0.12434   0.75275   0.00000  Uiso   1.00
C640   C     0.31202   0.20951   0.74812   0.00000  Uiso   1.00
C641   C     0.31206   0.12435   0.74725   0.00000  Uiso   1.00
C642   C     0.02131   0.20951   0.75188   0.00000  Uiso   1.00
C643   C     0.17868   0.20894   0.54858   0.00000  Uiso   1.00
C644   C     0.17556   0.12841   0.95377   0.00000  Uiso   1.00
C645   C     0.15463   0.20894   0.95142   0.00000  Uiso   1.00
C646   C     0.15777   0.12840   0.54623   0.00000  Uiso   1.00
C647   C     0.17983   0.20858   0.59451   0.00000  Uiso   1.00
C648   C     0.17191   0.12604   0.90819   0.00000  Uiso   1.00
C649   C     0.15349   0.20857   0.90549   0.00000  Uiso   1.00
C650   C     0.16143   0.12604   0.59181   0.00000  Uiso   1.00
C651   C     0.17006   0.16700   0.61669   0.00000  Uiso   1.00
C652   C     0.16327   0.16700   0.88330   0.00000  Uiso   1.00
C653   C     0.16709   0.16922   0.52420   0.00000  Uiso   1.00
C654   C     0.16623   0.16922   0.97580   0.00000  Uiso   1.00
C655   C     0.29049   0.16686   0.74747   0.00000  Uiso   1.00
C656   C     0.04284   0.16686   0.75253   0.00000  Uiso   1.00
Cu657  Cu    0.16667   0.21355   0.75000   0.00000  Uiso   1.00
Cu658  Cu    0.16667   0.11978   0.75000   0.00000  Uiso   1.00
H659   H     0.18758   0.24019   0.53197   0.00000  Uiso   1.00
H660   H     0.18527   0.09754   0.97199   0.00000  Uiso   1.00
H661   H     0.14572   0.24018   0.96802   0.00000  Uiso   1.00
H662   H     0.14806   0.09753   0.52801   0.00000  Uiso   1.00
N663   N     0.16667   0.28402   0.75000   0.00000  Uiso   1.00
N664   N     0.16667   0.04931   0.75000   0.00000  Uiso   1.00
O665   O     0.10655   0.20625   0.75000   0.00000  Uiso   1.00
O666   O     0.22679   0.12709   0.75001   0.00000  Uiso   1.00
O667   O     0.22679   0.20625   0.75001   0.00000  Uiso   1.00
O668   O     0.10655   0.12709   0.75000   0.00000  Uiso   1.00
O669   O     0.16666   0.20626   0.68573   0.00000  Uiso   1.00
O670   O     0.16667   0.12707   0.81427   0.00000  Uiso   1.00
O671   O     0.16667   0.20626   0.81427   0.00000  Uiso   1.00
O672   O     0.16666   0.12707   0.68573   0.00000  Uiso   1.00
Br673  Br    0.10081   0.05613   0.68242   0.00000  Uiso   1.00
Br674  Br    0.22855   0.27684   0.82182   0.00000  Uiso   1.00
Br675  Br    0.23253   0.05613   0.81757   0.00000  Uiso   1.00
Br676  Br    0.10478   0.27684   0.67819   0.00000  Uiso   1.00
N677   N     0.19243   0.24986   0.61854   0.00000  Uiso   1.00
H678   H     0.22162   0.24364   0.63335   0.00000  Uiso   1.00
H679   H     0.19483   0.27820   0.59741   0.00000  Uiso   1.00
N680   N     0.17563   0.08154   0.88753   0.00000  Uiso   1.00
H681   H     0.14619   0.07006   0.87772   0.00000  Uiso   1.00
H682   H     0.18834   0.05681   0.90969   0.00000  Uiso   1.00
N683   N     0.14088   0.24985   0.88145   0.00000  Uiso   1.00
H684   H     0.11170   0.24362   0.86663   0.00000  Uiso   1.00
H685   H     0.13846   0.27819   0.90258   0.00000  Uiso   1.00
N686   N     0.15773   0.08153   0.61248   0.00000  Uiso   1.00
H687   H     0.18717   0.07009   0.62232   0.00000  Uiso   1.00
H688   H     0.14505   0.05679   0.59031   0.00000  Uiso   1.00
N689   N     0.04241   0.08104   0.76081   0.00000  Uiso   1.00
H690   H     0.03380   0.05747   0.73577   0.00000  Uiso   1.00
H691   H     0.03410   0.06730   0.79050   0.00000  Uiso   1.00
N692   N     0.29067   0.25308   0.74310   0.00000  Uiso   1.00
H693   H     0.29959   0.27494   0.76942   0.00000  Uiso   1.00
H694   H     0.29800   0.26890   0.71395   0.00000  Uiso   1.00
N695   N     0.29092   0.08104   0.73918   0.00000  Uiso   1.00
H696   H     0.29923   0.06731   0.70949   0.00000  Uiso   1.00
H697   H     0.29954   0.05746   0.76422   0.00000  Uiso   1.00
N698   N     0.04267   0.25308   0.75691   0.00000  Uiso   1.00
H699   H     0.03534   0.26890   0.78606   0.00000  Uiso   1.00
H700   H     0.03374   0.27494   0.73058   0.00000  Uiso   1.00
C701   C     0.42083   0.16670   0.75140   0.00000  Uiso   1.00
C702   C     0.57917   0.16670   0.74860   0.00000  Uiso   1.00
C703   C     0.50137   0.16670   0.66505   0.00000  Uiso   1.00
C704   C     0.49863   0.16670   0.83496   0.00000  Uiso   1.00
C705   C     0.47350   0.02467   0.72176   0.00000  Uiso   1.00
C706   C     0.52588   0.30858   0.77891   0.00000  Uiso   1.00
C707   C     0.52650   0.02467   0.77824   0.00000  Uiso   1.00
C708   C     0.47412   0.30858   0.72109   0.00000  Uiso   1.00
C709   C     0.35461   0.12434   0.75275   0.00000  Uiso   1.00
C710   C     0.64536   0.20951   0.74812   0.00000  Uiso   1.00
C711   C     0.64539   0.12435   0.74725   0.00000  Uiso   1.00
C712   C     0.35464   0.20951   0.75188   0.00000  Uiso   1.00
C713   C     0.51201   0.20894   0.54858   0.00000  Uiso   1.00
C714   C     0.50890   0.12841   0.95377   0.00000  Uiso   1.00
C715   C     0.48796   0.20894   0.95142   0.00000  Uiso   1.00
C716   C     0.49110   0.12840   0.54623   0.00000  Uiso   1.00
C717   C     0.51316   0.20858   0.59451   0.00000  Uiso   1.00
C718   C     0.50525   0.12604   0.90819   0.00000  Uiso   1.00
C719   C     0.48682   0.20857   0.90549   0.00000  Uiso   1.00
C720   C     0.49476   0.12604   0.59181   0.00000  Uiso   1.00
C721   C     0.50339   0.16700   0.61669   0.00000  Uiso   1.00
C722   C     0.49660   0.16700   0.88330   0.00000  Uiso   1.00
C723   C     0.50043   0.16922   0.52420   0.00000  Uiso   1.00
C724   C     0.49956   0.16922   0.97580   0.00000  Uiso   1.00
C725   C     0.62383   0.16686   0.74747   0.00000  Uiso   1.00
C726   C     0.37617   0.16686   0.75253   0.00000  Uiso   1.00
Cu727  Cu    0.50000   0.21355   0.75000   0.00000  Uiso   1.00
Cu728  Cu    0.50000   0.11978   0.75000   0.00000  Uiso   1.00
H729   H     0.52091   0.24019   0.53197   0.00000  Uiso   1.00
H730   H     0.51861   0.09754   0.97199   0.00000  Uiso   1.00
H731   H     0.47905   0.24018   0.96802   0.00000  Uiso   1.00
H732   H     0.48140   0.09753   0.52801   0.00000  Uiso   1.00
N733   N     0.50000   0.28402   0.75000   0.00000  Uiso   1.00
N734   N     0.50000   0.04931   0.75000   0.00000  Uiso   1.00
O735   O     0.43988   0.20625   0.75000   0.00000  Uiso   1.00
O736   O     0.56012   0.12709   0.75001   0.00000  Uiso   1.00
O737   O     0.56012   0.20625   0.75001   0.00000  Uiso   1.00
O738   O     0.43988   0.12709   0.75000   0.00000  Uiso   1.00
O739   O     0.50000   0.20626   0.68573   0.00000  Uiso   1.00
O740   O     0.50000   0.12707   0.81427   0.00000  Uiso   1.00
O741   O     0.50000   0.20626   0.81427   0.00000  Uiso   1.00
O742   O     0.50000   0.12707   0.68573   0.00000  Uiso   1.00
Br743  Br    0.43415   0.05613   0.68242   0.00000  Uiso   1.00
Br744  Br    0.56189   0.27684   0.82182   0.00000  Uiso   1.00
Br745  Br    0.56586   0.05613   0.81757   0.00000  Uiso   1.00
Br746  Br    0.43811   0.27684   0.67819   0.00000  Uiso   1.00
N747   N     0.52576   0.24986   0.61854   0.00000  Uiso   1.00
H748   H     0.55495   0.24364   0.63335   0.00000  Uiso   1.00
H749   H     0.52816   0.27820   0.59741   0.00000  Uiso   1.00
N750   N     0.50896   0.08154   0.88753   0.00000  Uiso   1.00
H751   H     0.47953   0.07006   0.87772   0.00000  Uiso   1.00
H752   H     0.52168   0.05681   0.90969   0.00000  Uiso   1.00
N753   N     0.47421   0.24985   0.88145   0.00000  Uiso   1.00
H754   H     0.44503   0.24362   0.86663   0.00000  Uiso   1.00
H755   H     0.47180   0.27819   0.90258   0.00000  Uiso   1.00
N756   N     0.49106   0.08153   0.61248   0.00000  Uiso   1.00
H757   H     0.52050   0.07009   0.62232   0.00000  Uiso   1.00
H758   H     0.47839   0.05679   0.59031   0.00000  Uiso   1.00
N759   N     0.37574   0.08104   0.76081   0.00000  Uiso   1.00
H760   H     0.36713   0.05747   0.73577   0.00000  Uiso   1.00
H761   H     0.36743   0.06730   0.79050   0.00000  Uiso   1.00
N762   N     0.62400   0.25308   0.74310   0.00000  Uiso   1.00
H763   H     0.63292   0.27494   0.76942   0.00000  Uiso   1.00
H764   H     0.63133   0.26890   0.71395   0.00000  Uiso   1.00
N765   N     0.62426   0.08104   0.73918   0.00000  Uiso   1.00
H766   H     0.63257   0.06731   0.70949   0.00000  Uiso   1.00
H767   H     0.63287   0.05746   0.76422   0.00000  Uiso   1.00
N768   N     0.37600   0.25308   0.75691   0.00000  Uiso   1.00
H769   H     0.36867   0.26890   0.78606   0.00000  Uiso   1.00
H770   H     0.36708   0.27494   0.73058   0.00000  Uiso   1.00
C771   C     0.75417   0.16670   0.75140   0.00000  Uiso   1.00
C772   C     0.91250   0.16670   0.74860   0.00000  Uiso   1.00
C773   C     0.83471   0.16670   0.66505   0.00000  Uiso   1.00
C774   C     0.83196   0.16670   0.83496   0.00000  Uiso   1.00
C775   C     0.80684   0.02467   0.72176   0.00000  Uiso   1.00
C776   C     0.85922   0.30858   0.77891   0.00000  Uiso   1.00
C777   C     0.85983   0.02467   0.77824   0.00000  Uiso   1.00
C778   C     0.80745   0.30858   0.72109   0.00000  Uiso   1.00
C779   C     0.68794   0.12434   0.75275   0.00000  Uiso   1.00
C780   C     0.97869   0.20951   0.74812   0.00000  Uiso   1.00
C781   C     0.97873   0.12435   0.74725   0.00000  Uiso   1.00
C782   C     0.68798   0.20951   0.75188   0.00000  Uiso   1.00
C783   C     0.84535   0.20894   0.54858   0.00000  Uiso   1.00
C784   C     0.84223   0.12841   0.95377   0.00000  Uiso   1.00
C785   C     0.82130   0.20894   0.95142   0.00000  Uiso   1.00
C786   C     0.82444   0.12840   0.54623   0.00000  Uiso   1.00
C787   C     0.84649   0.20858   0.59451   0.00000  Uiso   1.00
C788   C     0.83858   0.12604   0.90819   0.00000  Uiso   1.00
C789   C     0.82016   0.20857   0.90549   0.00000  Uiso   1.00
C790   C     0.82809   0.12604   0.59181   0.00000  Uiso   1.00
C791   C     0.83673   0.16700   0.61669   0.00000  Uiso   1.00
C792   C     0.82994   0.16700   0.88330   0.00000  Uiso   1.00
C793   C     0.83376   0.16922   0.52420   0.00000  Uiso   1.00
C794   C     0.83289   0.16922   0.97580   0.00000  Uiso   1.00
C795   C     0.95716   0.16686   0.74747   0.00000  Uiso   1.00
C796   C     0.70951   0.16686   0.75253   0.00000  Uiso   1.00
Cu797  Cu    0.83333   0.21355   0.75000   0.00000  Uiso   1.00
Cu798  Cu    0.83333   0.11978   0.75000   0.00000  Uiso   1.00
H799   H     0.85425   0.24019   0.53197   0.00000  Uiso   1.00
H800   H     0.85194   0.09754   0.97199   0.00000  Uiso   1.00
H801   H     0.81239   0.24018   0.96802   0.00000  Uiso   1.00
H802   H     0.81473   0.09753   0.52801   0.00000  Uiso   1.00
N803   N     0.83333   0.28402   0.75000   0.00000  Uiso   1.00
N804   N     0.83333   0.04931   0.75000   0.00000  Uiso   1.00
O805   O     0.77321   0.20625   0.75000   0.00000  Uiso   1.00
O806   O     0.89345   0.12709   0.75001   0.00000  Uiso   1.00
O807   O     0.89345   0.20625   0.75001   0.00000  Uiso   1.00
O808   O     0.77321   0.12709   0.75000   0.00000  Uiso   1.00
O809   O     0.83333   0.20626   0.68573   0.00000  Uiso   1.00
O810   O     0.83334   0.12707   0.81427   0.00000  Uiso   1.00
O811   O     0.83334   0.20626   0.81427   0.00000  Uiso   1.00
O812   O     0.83333   0.12707   0.68573   0.00000  Uiso   1.00
Br813  Br    0.76748   0.05613   0.68242   0.00000  Uiso   1.00
Br814  Br    0.89522   0.27684   0.82182   0.00000  Uiso   1.00
Br815  Br    0.89919   0.05613   0.81757   0.00000  Uiso   1.00
Br816  Br    0.77145   0.27684   0.67819   0.00000  Uiso   1.00
N817   N     0.85909   0.24986   0.61854   0.00000  Uiso   1.00
H818   H     0.88828   0.24364   0.63335   0.00000  Uiso   1.00
H819   H     0.86150   0.27820   0.59741   0.00000  Uiso   1.00
N820   N     0.84229   0.08154   0.88753   0.00000  Uiso   1.00
H821   H     0.81286   0.07006   0.87772   0.00000  Uiso   1.00
H822   H     0.85501   0.05681   0.90969   0.00000  Uiso   1.00
N823   N     0.80755   0.24985   0.88145   0.00000  Uiso   1.00
H824   H     0.77836   0.24362   0.86663   0.00000  Uiso   1.00
H825   H     0.80513   0.27819   0.90258   0.00000  Uiso   1.00
N826   N     0.82440   0.08153   0.61248   0.00000  Uiso   1.00
H827   H     0.85383   0.07009   0.62232   0.00000  Uiso   1.00
H828   H     0.81172   0.05679   0.59031   0.00000  Uiso   1.00
N829   N     0.70908   0.08104   0.76081   0.00000  Uiso   1.00
H830   H     0.70046   0.05747   0.73577   0.00000  Uiso   1.00
H831   H     0.70077   0.06730   0.79050   0.00000  Uiso   1.00
N832   N     0.95733   0.25308   0.74310   0.00000  Uiso   1.00
H833   H     0.96626   0.27494   0.76942   0.00000  Uiso   1.00
H834   H     0.96466   0.26890   0.71395   0.00000  Uiso   1.00
N835   N     0.95759   0.08104   0.73918   0.00000  Uiso   1.00
H836   H     0.96590   0.06731   0.70949   0.00000  Uiso   1.00
H837   H     0.96620   0.05746   0.76422   0.00000  Uiso   1.00
N838   N     0.70933   0.25308   0.75691   0.00000  Uiso   1.00
H839   H     0.70200   0.26890   0.78606   0.00000  Uiso   1.00
H840   H     0.70041   0.27494   0.73058   0.00000  Uiso   1.00
C841   C     0.08750   0.50003   0.75140   0.00000  Uiso   1.00
C842   C     0.24584   0.50003   0.74860   0.00000  Uiso   1.00
C843   C     0.16804   0.50003   0.66505   0.00000  Uiso   1.00
C844   C     0.16529   0.50003   0.83496   0.00000  Uiso   1.00
C845   C     0.14017   0.35801   0.72176   0.00000  Uiso   1.00
C846   C     0.19255   0.64191   0.77891   0.00000  Uiso   1.00
C847   C     0.19316   0.35801   0.77824   0.00000  Uiso   1.00
C848   C     0.14078   0.64191   0.72109   0.00000  Uiso   1.00
C849   C     0.02127   0.45768   0.75275   0.00000  Uiso   1.00
C850   C     0.31202   0.54285   0.74812   0.00000  Uiso   1.00
C851   C     0.31206   0.45768   0.74725   0.00000  Uiso   1.00
C852   C     0.02131   0.54285   0.75188   0.00000  Uiso   1.00
C853   C     0.17868   0.54228   0.54858   0.00000  Uiso   1.00
C854   C     0.17556   0.46174   0.95377   0.00000  Uiso   1.00
C855   C     0.15463   0.54227   0.95142   0.00000  Uiso   1.00
C856   C     0.15777   0.46174   0.54623   0.00000  Uiso   1.00
C857   C     0.17983   0.54191   0.59451   0.00000  Uiso   1.00
C858   C     0.17191   0.45937   0.90819   0.00000  Uiso   1.00
C859   C     0.15349   0.54190   0.90549   0.00000  Uiso   1.00
C860   C     0.16143   0.45937   0.59181   0.00000  Uiso   1.00
C861   C     0.17006   0.50033   0.61669   0.00000  Uiso   1.00
C862   C     0.16327   0.50033   0.88330   0.00000  Uiso   1.00
C863   C     0.16709   0.50255   0.52420   0.00000  Uiso   1.00
C864   C     0.16623   0.50255   0.97580   0.00000  Uiso   1.00
C865   C     0.29049   0.50020   0.74747   0.00000  Uiso   1.00
C866   C     0.04284   0.50020   0.75253   0.00000  Uiso   1.00
Cu867  Cu    0.16667   0.54689   0.75000   0.00000  Uiso   1.00
Cu868  Cu    0.16667   0.45311   0.75000   0.00000  Uiso   1.00
H869   H     0.18758   0.57352   0.53197   0.00000  Uiso   1.00
H870   H     0.18527   0.43087   0.97199   0.00000  Uiso   1.00
H871   H     0.14572   0.57352   0.96802   0.00000  Uiso   1.00
H872   H     0.14806   0.43086   0.52801   0.00000  Uiso   1.00
N873   N     0.16667   0.61736   0.75000   0.00000  Uiso   1.00
N874   N     0.16667   0.38264   0.75000   0.00000  Uiso   1.00
O875   O     0.10655   0.53958   0.75000   0.00000  Uiso   1.00
O876   O     0.22679   0.46042   0.75001   0.00000  Uiso   1.00
O877   O     0.22679   0.53958   0.75001   0.00000  Uiso   1.00
O878   O     0.10655   0.46042   0.75000   0.00000  Uiso   1.00
O879   O     0.16666   0.53959   0.68573   0.00000  Uiso   1.00
O880   O     0.16667   0.46041   0.81427   0.00000  Uiso   1.00
O881   O     0.16667   0.53959   0.81427   0.00000  Uiso   1.00
O882   O     0.16666   0.46041   0.68573   0.00000  Uiso   1.00
Br883  Br    0.10081   0.38947   0.68242   0.00000  Uiso   1.00
Br884  Br    0.22855   0.61018   0.82182   0.00000  Uiso   1.00
Br885  Br    0.23253   0.38947   0.81757   0.00000  Uiso   1.00
Br886  Br    0.10478   0.61018   0.67819   0.00000  Uiso   1.00
N887   N     0.19243   0.58319   0.61854   0.00000  Uiso   1.00
H888   H     0.22162   0.57698   0.63335   0.00000  Uiso   1.00
H889   H     0.19483   0.61153   0.59741   0.00000  Uiso   1.00
N890   N     0.17563   0.41487   0.88753   0.00000  Uiso   1.00
H891   H     0.14619   0.40340   0.87772   0.00000  Uiso   1.00
H892   H     0.18834   0.39014   0.90969   0.00000  Uiso   1.00
N893   N     0.14088   0.58319   0.88145   0.00000  Uiso   1.00
H894   H     0.11170   0.57696   0.86663   0.00000  Uiso   1.00
H895   H     0.13846   0.61152   0.90258   0.00000  Uiso   1.00
N896   N     0.15773   0.41487   0.61248   0.00000  Uiso   1.00
H897   H     0.18717   0.40342   0.62232   0.00000  Uiso   1.00
H898   H     0.14505   0.39012   0.59031   0.00000  Uiso   1.00
N899   N     0.04241   0.41437   0.76081   0.00000  Uiso   1.00
H900   H     0.03380   0.39080   0.73577   0.00000  Uiso   1.00
H901   H     0.03410   0.40064   0.79050   0.00000  Uiso   1.00
N902   N     0.29067   0.58641   0.74310   0.00000  Uiso   1.00
H903   H     0.29959   0.60828   0.76942   0.00000  Uiso   1.00
H904   H     0.29800   0.60224   0.71395   0.00000  Uiso   1.00
N905   N     0.29092   0.41437   0.73918   0.00000  Uiso   1.00
H906   H     0.29923   0.40064   0.70949   0.00000  Uiso   1.00
H907   H     0.29954   0.39080   0.76422   0.00000  Uiso   1.00
N908   N     0.04267   0.58641   0.75691   0.00000  Uiso   1.00
H909   H     0.03534   0.60223   0.78606   0.00000  Uiso   1.00
H910   H     0.03374   0.60828   0.73058   0.00000  Uiso   1.00
C911   C     0.42083   0.50003   0.75140   0.00000  Uiso   1.00
C912   C     0.57917   0.50003   0.74860   0.00000  Uiso   1.00
C913   C     0.50137   0.50003   0.66505   0.00000  Uiso   1.00
C914   C     0.49863   0.50003   0.83496   0.00000  Uiso   1.00
C915   C     0.47350   0.35801   0.72176   0.00000  Uiso   1.00
C916   C     0.52588   0.64191   0.77891   0.00000  Uiso   1.00
C917   C     0.52650   0.35801   0.77824   0.00000  Uiso   1.00
C918   C     0.47412   0.64191   0.72109   0.00000  Uiso   1.00
C919   C     0.35461   0.45768   0.75275   0.00000  Uiso   1.00
C920   C     0.64536   0.54285   0.74812   0.00000  Uiso   1.00
C921   C     0.64539   0.45768   0.74725   0.00000  Uiso   1.00
C922   C     0.35464   0.54285   0.75188   0.00000  Uiso   1.00
C923   C     0.51201   0.54228   0.54858   0.00000  Uiso   1.00
C924   C     0.50890   0.46174   0.95377   0.00000  Uiso   1.00
C925   C     0.48796   0.54227   0.95142   0.00000  Uiso   1.00
C926   C     0.49110   0.46174   0.54623   0.00000  Uiso   1.00
C927   C     0.51316   0.54191   0.59451   0.00000  Uiso   1.00
C928   C     0.50525   0.45937   0.90819   0.00000  Uiso   1.00
C929   C     0.48682   0.54190   0.90549   0.00000  Uiso   1.00
C930   C     0.49476   0.45937   0.59181   0.00000  Uiso   1.00
C931   C     0.50339   0.50033   0.61669   0.00000  Uiso   1.00
C932   C     0.49660   0.50033   0.88330   0.00000  Uiso   1.00
C933   C     0.50043   0.50255   0.52420   0.00000  Uiso   1.00
C934   C     0.49956   0.50255   0.97580   0.00000  Uiso   1.00
C935   C     0.62383   0.50020   0.74747   0.00000  Uiso   1.00
C936   C     0.37617   0.50020   0.75253   0.00000  Uiso   1.00
Cu937  Cu    0.50000   0.54689   0.75000   0.00000  Uiso   1.00
Cu938  Cu    0.50000   0.45311   0.75000   0.00000  Uiso   1.00
H939   H     0.52091   0.57352   0.53197   0.00000  Uiso   1.00
H940   H     0.51861   0.43087   0.97199   0.00000  Uiso   1.00
H941   H     0.47905   0.57352   0.96802   0.00000  Uiso   1.00
H942   H     0.48140   0.43086   0.52801   0.00000  Uiso   1.00
N943   N     0.50000   0.61736   0.75000   0.00000  Uiso   1.00
N944   N     0.50000   0.38264   0.75000   0.00000  Uiso   1.00
O945   O     0.43988   0.53958   0.75000   0.00000  Uiso   1.00
O946   O     0.56012   0.46042   0.75001   0.00000  Uiso   1.00
O947   O     0.56012   0.53958   0.75001   0.00000  Uiso   1.00
O948   O     0.43988   0.46042   0.75000   0.00000  Uiso   1.00
O949   O     0.50000   0.53959   0.68573   0.00000  Uiso   1.00
O950   O     0.50000   0.46041   0.81427   0.00000  Uiso   1.00
O951   O     0.50000   0.53959   0.81427   0.00000  Uiso   1.00
O952   O     0.50000   0.46041   0.68573   0.00000  Uiso   1.00
Br953  Br    0.43415   0.38947   0.68242   0.00000  Uiso   1.00
Br954  Br    0.56189   0.61018   0.82182   0.00000  Uiso   1.00
Br955  Br    0.56586   0.38947   0.81757   0.00000  Uiso   1.00
Br956  Br    0.43811   0.61018   0.67819   0.00000  Uiso   1.00
N957   N     0.52576   0.58319   0.61854   0.00000  Uiso   1.00
H958   H     0.55495   0.57698   0.63335   0.00000  Uiso   1.00
H959   H     0.52816   0.61153   0.59741   0.00000  Uiso   1.00
N960   N     0.50896   0.41487   0.88753   0.00000  Uiso   1.00
H961   H     0.47953   0.40340   0.87772   0.00000  Uiso   1.00
H962   H     0.52168   0.39014   0.90969   0.00000  Uiso   1.00
N963   N     0.47421   0.58319   0.88145   0.00000  Uiso   1.00
H964   H     0.44503   0.57696   0.86663   0.00000  Uiso   1.00
H965   H     0.47180   0.61152   0.90258   0.00000  Uiso   1.00
N966   N     0.49106   0.41487   0.61248   0.00000  Uiso   1.00
H967   H     0.52050   0.40342   0.62232   0.00000  Uiso   1.00
H968   H     0.47839   0.39012   0.59031   0.00000  Uiso   1.00
N969   N     0.37574   0.41437   0.76081   0.00000  Uiso   1.00
H970   H     0.36713   0.39080   0.73577   0.00000  Uiso   1.00
H971   H     0.36743   0.40064   0.79050   0.00000  Uiso   1.00
N972   N     0.62400   0.58641   0.74310   0.00000  Uiso   1.00
H973   H     0.63292   0.60828   0.76942   0.00000  Uiso   1.00
H974   H     0.63133   0.60224   0.71395   0.00000  Uiso   1.00
N975   N     0.62426   0.41437   0.73918   0.00000  Uiso   1.00
H976   H     0.63257   0.40064   0.70949   0.00000  Uiso   1.00
H977   H     0.63287   0.39080   0.76422   0.00000  Uiso   1.00
N978   N     0.37600   0.58641   0.75691   0.00000  Uiso   1.00
H979   H     0.36867   0.60223   0.78606   0.00000  Uiso   1.00
H980   H     0.36708   0.60828   0.73058   0.00000  Uiso   1.00
C981   C     0.75417   0.50003   0.75140   0.00000  Uiso   1.00
C982   C     0.91250   0.50003   0.74860   0.00000  Uiso   1.00
C983   C     0.83471   0.50003   0.66505   0.00000  Uiso   1.00
C984   C     0.83196   0.50003   0.83496   0.00000  Uiso   1.00
C985   C     0.80684   0.35801   0.72176   0.00000  Uiso   1.00
C986   C     0.85922   0.64191   0.77891   0.00000  Uiso   1.00
C987   C     0.85983   0.35801   0.77824   0.00000  Uiso   1.00
C988   C     0.80745   0.64191   0.72109   0.00000  Uiso   1.00
C989   C     0.68794   0.45768   0.75275   0.00000  Uiso   1.00
C990   C     0.97869   0.54285   0.74812   0.00000  Uiso   1.00
C991   C     0.97873   0.45768   0.74725   0.00000  Uiso   1.00
C992   C     0.68798   0.54285   0.75188   0.00000  Uiso   1.00
C993   C     0.84535   0.54228   0.54858   0.00000  Uiso   1.00
C994   C     0.84223   0.46174   0.95377   0.00000  Uiso   1.00
C995   C     0.82130   0.54227   0.95142   0.00000  Uiso   1.00
C996   C     0.82444   0.46174   0.54623   0.00000  Uiso   1.00
C997   C     0.84649   0.54191   0.59451   0.00000  Uiso   1.00
C998   C     0.83858   0.45937   0.90819   0.00000  Uiso   1.00
C999   C     0.82016   0.54190   0.90549   0.00000  Uiso   1.00
C1000  C     0.82809   0.45937   0.59181   0.00000  Uiso   1.00
C1001  C     0.83673   0.50033   0.61669   0.00000  Uiso   1.00
C1002  C     0.82994   0.50033   0.88330   0.00000  Uiso   1.00
C1003  C     0.83376   0.50255   0.52420   0.00000  Uiso   1.00
C1004  C     0.83289   0.50255   0.97580   0.00000  Uiso   1.00
C1005  C     0.95716   0.50020   0.74747   0.00000  Uiso   1.00
C1006  C     0.70951   0.50020   0.75253   0.00000  Uiso   1.00
Cu1007 Cu    0.83333   0.54689   0.75000   0.00000  Uiso   1.00
Cu1008 Cu    0.83333   0.45311   0.75000   0.00000  Uiso   1.00
H1009  H     0.85425   0.57352   0.53197   0.00000  Uiso   1.00
H1010  H     0.85194   0.43087   0.97199   0.00000  Uiso   1.00
H1011  H     0.81239   0.57352   0.96802   0.00000  Uiso   1.00
H1012  H     0.81473   0.43086   0.52801   0.00000  Uiso   1.00
N1013  N     0.83333   0.61736   0.75000   0.00000  Uiso   1.00
N1014  N     0.83333   0.38264   0.75000   0.00000  Uiso   1.00
O1015  O     0.77321   0.53958   0.75000   0.00000  Uiso   1.00
O1016  O     0.89345   0.46042   0.75001   0.00000  Uiso   1.00
O1017  O     0.89345   0.53958   0.75001   0.00000  Uiso   1.00
O1018  O     0.77321   0.46042   0.75000   0.00000  Uiso   1.00
O1019  O     0.83333   0.53959   0.68573   0.00000  Uiso   1.00
O1020  O     0.83334   0.46041   0.81427   0.00000  Uiso   1.00
O1021  O     0.83334   0.53959   0.81427   0.00000  Uiso   1.00
O1022  O     0.83333   0.46041   0.68573   0.00000  Uiso   1.00
Br1023 Br    0.76748   0.38947   0.68242   0.00000  Uiso   1.00
Br1024 Br    0.89522   0.61018   0.82182   0.00000  Uiso   1.00
Br1025 Br    0.89919   0.38947   0.81757   0.00000  Uiso   1.00
Br1026 Br    0.77145   0.61018   0.67819   0.00000  Uiso   1.00
N1027  N     0.85909   0.58319   0.61854   0.00000  Uiso   1.00
H1028  H     0.88828   0.57698   0.63335   0.00000  Uiso   1.00
H1029  H     0.86150   0.61153   0.59741   0.00000  Uiso   1.00
N1030  N     0.84229   0.41487   0.88753   0.00000  Uiso   1.00
H1031  H     0.81286   0.40340   0.87772   0.00000  Uiso   1.00
H1032  H     0.85501   0.39014   0.90969   0.00000  Uiso   1.00
N1033  N     0.80755   0.58319   0.88145   0.00000  Uiso   1.00
H1034  H     0.77836   0.57696   0.86663   0.00000  Uiso   1.00
H1035  H     0.80513   0.61152   0.90258   0.00000  Uiso   1.00
N1036  N     0.82440   0.41487   0.61248   0.00000  Uiso   1.00
H1037  H     0.85383   0.40342   0.62232   0.00000  Uiso   1.00
H1038  H     0.81172   0.39012   0.59031   0.00000  Uiso   1.00
N1039  N     0.70908   0.41437   0.76081   0.00000  Uiso   1.00
H1040  H     0.70046   0.39080   0.73577   0.00000  Uiso   1.00
H1041  H     0.70077   0.40064   0.79050   0.00000  Uiso   1.00
N1042  N     0.95733   0.58641   0.74310   0.00000  Uiso   1.00
H1043  H     0.96626   0.60828   0.76942   0.00000  Uiso   1.00
H1044  H     0.96466   0.60224   0.71395   0.00000  Uiso   1.00
N1045  N     0.95759   0.41437   0.73918   0.00000  Uiso   1.00
H1046  H     0.96590   0.40064   0.70949   0.00000  Uiso   1.00
H1047  H     0.96620   0.39080   0.76422   0.00000  Uiso   1.00
N1048  N     0.70933   0.58641   0.75691   0.00000  Uiso   1.00
H1049  H     0.70200   0.60223   0.78606   0.00000  Uiso   1.00
H1050  H     0.70041   0.60828   0.73058   0.00000  Uiso   1.00
C1051  C     0.08750   0.83337   0.75140   0.00000  Uiso   1.00
C1052  C     0.24584   0.83337   0.74860   0.00000  Uiso   1.00
C1053  C     0.16804   0.83336   0.66505   0.00000  Uiso   1.00
C1054  C     0.16529   0.83336   0.83496   0.00000  Uiso   1.00
C1055  C     0.14017   0.69134   0.72176   0.00000  Uiso   1.00
C1056  C     0.19255   0.97524   0.77891   0.00000  Uiso   1.00
C1057  C     0.19316   0.69134   0.77824   0.00000  Uiso   1.00
C1058  C     0.14078   0.97524   0.72109   0.00000  Uiso   1.00
C1059  C     0.02127   0.79101   0.75275   0.00000  Uiso   1.00
C1060  C     0.31202   0.87618   0.74812   0.00000  Uiso   1.00
C1061  C     0.31206   0.79101   0.74725   0.00000  Uiso   1.00
C1062  C     0.02131   0.87618   0.75188   0.00000  Uiso   1.00
C1063  C     0.17868   0.87561   0.54858   0.00000  Uiso   1.00
C1064  C     0.17556   0.79507   0.95377   0.00000  Uiso   1.00
C1065  C     0.15463   0.87561   0.95142   0.00000  Uiso   1.00
C1066  C     0.15777   0.79507   0.54623   0.00000  Uiso   1.00
C1067  C     0.17983   0.87524   0.59451   0.00000  Uiso   1.00
C1068  C     0.17191   0.79271   0.90819   0.00000  Uiso   1.00
C1069  C     0.15349   0.87524   0.90549   0.00000  Uiso   1.00
C1070  C     0.16143   0.79270   0.59181   0.00000  Uiso   1.00
C1071  C     0.17006   0.83367   0.61669   0.00000  Uiso   1.00
C1072  C     0.16327   0.83367   0.88330   0.00000  Uiso   1.00
C1073  C     0.16709   0.83589   0.52420   0.00000  Uiso   1.00
C1074  C     0.16623   0.83589   0.97580   0.00000  Uiso   1.00
C1075  C     0.29049   0.83353   0.74747   0.00000  Uiso   1.00
C1076  C     0.04284   0.83353   0.75253   0.00000  Uiso   1.00
Cu1077 Cu    0.16667   0.88022   0.75000   0.00000  Uiso   1.00
Cu1078 Cu    0.16667   0.78645   0.75000   0.00000  Uiso   1.00
H1079  H     0.18758   0.90686   0.53197   0.00000  Uiso   1.00
H1080  H     0.18527   0.76420   0.97199   0.00000  Uiso   1.00
H1081  H     0.14572   0.90685   0.96802   0.00000  Uiso   1.00
H1082  H     0.14806   0.76420   0.52801   0.00000  Uiso   1.00
N1083  N     0.16667   0.95069   0.75000   0.00000  Uiso   1.00
N1084  N     0.16667   0.71598   0.75000   0.00000  Uiso   1.00
O1085  O     0.10655   0.87291   0.75000   0.00000  Uiso   1.00
O1086  O     0.22679   0.79375   0.75001   0.00000  Uiso   1.00
O1087  O     0.22679   0.87291   0.75001   0.00000  Uiso   1.00
O1088  O     0.10655   0.79375   0.75000   0.00000  Uiso   1.00
O1089  O     0.16666   0.87293   0.68573   0.00000  Uiso   1.00
O1090  O     0.16667   0.79374   0.81427   0.00000  Uiso   1.00
O1091  O     0.16667   0.87293   0.81427   0.00000  Uiso   1.00
O1092  O     0.16666   0.79374   0.68573   0.00000  Uiso   1.00
Br1093 Br    0.10081   0.72280   0.68242   0.00000  Uiso   1.00
Br1094 Br    0.22855   0.94351   0.82182   0.00000  Uiso   1.00
Br1095 Br    0.23253   0.72280   0.81757   0.00000  Uiso   1.00
Br1096 Br    0.10478   0.94351   0.67819   0.00000  Uiso   1.00
N1097  N     0.19243   0.91653   0.61854   0.00000  Uiso   1.00
H1098  H     0.22162   0.91031   0.63335   0.00000  Uiso   1.00
H1099  H     0.19483   0.94487   0.59741   0.00000  Uiso   1.00
N1100  N     0.17563   0.74821   0.88753   0.00000  Uiso   1.00
H1101  H     0.14619   0.73673   0.87772   0.00000  Uiso   1.00
H1102  H     0.18834   0.72348   0.90969   0.00000  Uiso   1.00
N1103  N     0.14088   0.91652   0.88145   0.00000  Uiso   1.00
H1104  H     0.11170   0.91029   0.86663   0.00000  Uiso   1.00
H1105  H     0.13846   0.94486   0.90258   0.00000  Uiso   1.00
N1106  N     0.15773   0.74820   0.61248   0.00000  Uiso   1.00
H1107  H     0.18717   0.73676   0.62232   0.00000  Uiso   1.00
H1108  H     0.14505   0.72345   0.59031   0.00000  Uiso   1.00
N1109  N     0.04241   0.74770   0.76081   0.00000  Uiso   1.00
H1110  H     0.03380   0.72413   0.73577   0.00000  Uiso   1.00
H1111  H     0.03410   0.73397   0.79050   0.00000  Uiso   1.00
N1112  N     0.29067   0.91975   0.74310   0.00000  Uiso   1.00
H1113  H     0.29959   0.94161   0.76942   0.00000  Uiso   1.00
H1114  H     0.29800   0.93557   0.71395   0.00000  Uiso   1.00
N1115  N     0.29092   0.74770   0.73918   0.00000  Uiso   1.00
H1116  H     0.29923   0.73397   0.70949   0.00000  Uiso   1.00
H1117  H     0.29954   0.72413   0.76422   0.00000  Uiso   1.00
N1118  N     0.04267   0.91975   0.75691   0.00000  Uiso   1.00
H1119  H     0.03534   0.93557   0.78606   0.00000  Uiso   1.00
H1120  H     0.03374   0.94161   0.73058   0.00000  Uiso   1.00
C1121  C     0.42083   0.83337   0.75140   0.00000  Uiso   1.00
C1122  C     0.57917   0.83337   0.74860   0.00000  Uiso   1.00
C1123  C     0.50137   0.83336   0.66505   0.00000  Uiso   1.00
C1124  C     0.49863   0.83336   0.83496   0.00000  Uiso   1.00
C1125  C     0.47350   0.69134   0.72176   0.00000  Uiso   1.00
C1126  C     0.52588   0.97524   0.77891   0.00000  Uiso   1.00
C1127  C     0.52650   0.69134   0.77824   0.00000  Uiso   1.00
C1128  C     0.47412   0.97524   0.72109   0.00000  Uiso   1.00
C1129  C     0.35461   0.79101   0.75275   0.00000  Uiso   1.00
C1130  C     0.64536   0.87618   0.74812   0.00000  Uiso   1.00
C1131  C     0.64539   0.79101   0.74725   0.00000  Uiso   1.00
C1132  C     0.35464   0.87618   0.75188   0.00000  Uiso   1.00
C1133  C     0.51201   0.87561   0.54858   0.00000  Uiso   1.00
C1134  C     0.50890   0.79507   0.95377   0.00000  Uiso   1.00
C1135  C     0.48796   0.87561   0.95142   0.00000  Uiso   1.00
C1136  C     0.49110   0.79507   0.54623   0.00000  Uiso   1.00
C1137  C     0.51316   0.87524   0.59451   0.00000  Uiso   1.00
C1138  C     0.50525   0.79271   0.90819   0.00000  Uiso   1.00
C1139  C     0.48682   0.87524   0.90549   0.00000  Uiso   1.00
C1140  C     0.49476   0.79270   0.59181   0.00000  Uiso   1.00
C1141  C     0.50339   0.83367   0.61669   0.00000  Uiso   1.00
C1142  C     0.49660   0.83367   0.88330   0.00000  Uiso   1.00
C1143  C     0.50043   0.83589   0.52420   0.00000  Uiso   1.00
C1144  C     0.49956   0.83589   0.97580   0.00000  Uiso   1.00
C1145  C     0.62383   0.83353   0.74747   0.00000  Uiso   1.00
C1146  C     0.37617   0.83353   0.75253   0.00000  Uiso   1.00
Cu1147 Cu    0.50000   0.88022   0.75000   0.00000  Uiso   1.00
Cu1148 Cu    0.50000   0.78645   0.75000   0.00000  Uiso   1.00
H1149  H     0.52091   0.90686   0.53197   0.00000  Uiso   1.00
H1150  H     0.51861   0.76420   0.97199   0.00000  Uiso   1.00
H1151  H     0.47905   0.90685   0.96802   0.00000  Uiso   1.00
H1152  H     0.48140   0.76420   0.52801   0.00000  Uiso   1.00
N1153  N     0.50000   0.95069   0.75000   0.00000  Uiso   1.00
N1154  N     0.50000   0.71598   0.75000   0.00000  Uiso   1.00
O1155  O     0.43988   0.87291   0.75000   0.00000  Uiso   1.00
O1156  O     0.56012   0.79375   0.75001   0.00000  Uiso   1.00
O1157  O     0.56012   0.87291   0.75001   0.00000  Uiso   1.00
O1158  O     0.43988   0.79375   0.75000   0.00000  Uiso   1.00
O1159  O     0.50000   0.87293   0.68573   0.00000  Uiso   1.00
O1160  O     0.50000   0.79374   0.81427   0.00000  Uiso   1.00
O1161  O     0.50000   0.87293   0.81427   0.00000  Uiso   1.00
O1162  O     0.50000   0.79374   0.68573   0.00000  Uiso   1.00
Br1163 Br    0.43415   0.72280   0.68242   0.00000  Uiso   1.00
Br1164 Br    0.56189   0.94351   0.82182   0.00000  Uiso   1.00
Br1165 Br    0.56586   0.72280   0.81757   0.00000  Uiso   1.00
Br1166 Br    0.43811   0.94351   0.67819   0.00000  Uiso   1.00
N1167  N     0.52576   0.91653   0.61854   0.00000  Uiso   1.00
H1168  H     0.55495   0.91031   0.63335   0.00000  Uiso   1.00
H1169  H     0.52816   0.94487   0.59741   0.00000  Uiso   1.00
N1170  N     0.50896   0.74821   0.88753   0.00000  Uiso   1.00
H1171  H     0.47953   0.73673   0.87772   0.00000  Uiso   1.00
H1172  H     0.52168   0.72348   0.90969   0.00000  Uiso   1.00
N1173  N     0.47421   0.91652   0.88145   0.00000  Uiso   1.00
H1174  H     0.44503   0.91029   0.86663   0.00000  Uiso   1.00
H1175  H     0.47180   0.94486   0.90258   0.00000  Uiso   1.00
N1176  N     0.49106   0.74820   0.61248   0.00000  Uiso   1.00
H1177  H     0.52050   0.73676   0.62232   0.00000  Uiso   1.00
H1178  H     0.47839   0.72345   0.59031   0.00000  Uiso   1.00
N1179  N     0.37574   0.74770   0.76081   0.00000  Uiso   1.00
H1180  H     0.36713   0.72413   0.73577   0.00000  Uiso   1.00
H1181  H     0.36743   0.73397   0.79050   0.00000  Uiso   1.00
N1182  N     0.62400   0.91975   0.74310   0.00000  Uiso   1.00
H1183  H     0.63292   0.94161   0.76942   0.00000  Uiso   1.00
H1184  H     0.63133   0.93557   0.71395   0.00000  Uiso   1.00
N1185  N     0.62426   0.74770   0.73918   0.00000  Uiso   1.00
H1186  H     0.63257   0.73397   0.70949   0.00000  Uiso   1.00
H1187  H     0.63287   0.72413   0.76422   0.00000  Uiso   1.00
N1188  N     0.37600   0.91975   0.75691   0.00000  Uiso   1.00
H1189  H     0.36867   0.93557   0.78606   0.00000  Uiso   1.00
H1190  H     0.36708   0.94161   0.73058   0.00000  Uiso   1.00
C1191  C     0.75417   0.83337   0.75140   0.00000  Uiso   1.00
C1192  C     0.91250   0.83337   0.74860   0.00000  Uiso   1.00
C1193  C     0.83471   0.83336   0.66505   0.00000  Uiso   1.00
C1194  C     0.83196   0.83336   0.83496   0.00000  Uiso   1.00
C1195  C     0.80684   0.69134   0.72176   0.00000  Uiso   1.00
C1196  C     0.85922   0.97524   0.77891   0.00000  Uiso   1.00
C1197  C     0.85983   0.69134   0.77824   0.00000  Uiso   1.00
C1198  C     0.80745   0.97524   0.72109   0.00000  Uiso   1.00
C1199  C     0.68794   0.79101   0.75275   0.00000  Uiso   1.00
C1200  C     0.97869   0.87618   0.74812   0.00000  Uiso   1.00
C1201  C     0.97873   0.79101   0.74725   0.00000  Uiso   1.00
C1202  C     0.68798   0.87618   0.75188   0.00000  Uiso   1.00
C1203  C     0.84535   0.87561   0.54858   0.00000  Uiso   1.00
C1204  C     0.84223   0.79507   0.95377   0.00000  Uiso   1.00
C1205  C     0.82130   0.87561   0.95142   0.00000  Uiso   1.00
C1206  C     0.82444   0.79507   0.54623   0.00000  Uiso   1.00
C1207  C     0.84649   0.87524   0.59451   0.00000  Uiso   1.00
C1208  C     0.83858   0.79271   0.90819   0.00000  Uiso   1.00
C1209  C     0.82016   0.87524   0.90549   0.00000  Uiso   1.00
C1210  C     0.82809   0.79270   0.59181   0.00000  Uiso   1.00
C1211  C     0.83673   0.83367   0.61669   0.00000  Uiso   1.00
C1212  C     0.82994   0.83367   0.88330   0.00000  Uiso   1.00
C1213  C     0.83376   0.83589   0.52420   0.00000  Uiso   1.00
C1214  C     0.83289   0.83589   0.97580   0.00000  Uiso   1.00
C1215  C     0.95716   0.83353   0.74747   0.00000  Uiso   1.00
C1216  C     0.70951   0.83353   0.75253   0.00000  Uiso   1.00
Cu1217 Cu    0.83333   0.88022   0.75000   0.00000  Uiso   1.00
Cu1218 Cu    0.83333   0.78645   0.75000   0.00000  Uiso   1.00
H1219  H     0.85425   0.90686   0.53197   0.00000  Uiso   1.00
H1220  H     0.85194   0.76420   0.97199   0.00000  Uiso   1.00
H1221  H     0.81239   0.90685   0.96802   0.00000  Uiso   1.00
H1222  H     0.81473   0.76420   0.52801   0.00000  Uiso   1.00
N1223  N     0.83333   0.95069   0.75000   0.00000  Uiso   1.00
N1224  N     0.83333   0.71598   0.75000   0.00000  Uiso   1.00
O1225  O     0.77321   0.87291   0.75000   0.00000  Uiso   1.00
O1226  O     0.89345   0.79375   0.75001   0.00000  Uiso   1.00
O1227  O     0.89345   0.87291   0.75001   0.00000  Uiso   1.00
O1228  O     0.77321   0.79375   0.75000   0.00000  Uiso   1.00
O1229  O     0.83333   0.87293   0.68573   0.00000  Uiso   1.00
O1230  O     0.83334   0.79374   0.81427   0.00000  Uiso   1.00
O1231  O     0.83334   0.87293   0.81427   0.00000  Uiso   1.00
O1232  O     0.83333   0.79374   0.68573   0.00000  Uiso   1.00
Br1233 Br    0.76748   0.72280   0.68242   0.00000  Uiso   1.00
Br1234 Br    0.89522   0.94351   0.82182   0.00000  Uiso   1.00
Br1235 Br    0.89919   0.72280   0.81757   0.00000  Uiso   1.00
Br1236 Br    0.77145   0.94351   0.67819   0.00000  Uiso   1.00
N1237  N     0.85909   0.91653   0.61854   0.00000  Uiso   1.00
H1238  H     0.88828   0.91031   0.63335   0.00000  Uiso   1.00
H1239  H     0.86150   0.94487   0.59741   0.00000  Uiso   1.00
N1240  N     0.84229   0.74821   0.88753   0.00000  Uiso   1.00
H1241  H     0.81286   0.73673   0.87772   0.00000  Uiso   1.00
H1242  H     0.85501   0.72348   0.90969   0.00000  Uiso   1.00
N1243  N     0.80755   0.91652   0.88145   0.00000  Uiso   1.00
H1244  H     0.77836   0.91029   0.86663   0.00000  Uiso   1.00
H1245  H     0.80513   0.94486   0.90258   0.00000  Uiso   1.00
N1246  N     0.82440   0.74820   0.61248   0.00000  Uiso   1.00
H1247  H     0.85383   0.73676   0.62232   0.00000  Uiso   1.00
H1248  H     0.81172   0.72345   0.59031   0.00000  Uiso   1.00
N1249  N     0.70908   0.74770   0.76081   0.00000  Uiso   1.00
H1250  H     0.70046   0.72413   0.73577   0.00000  Uiso   1.00
H1251  H     0.70077   0.73397   0.79050   0.00000  Uiso   1.00
N1252  N     0.95733   0.91975   0.74310   0.00000  Uiso   1.00
H1253  H     0.96626   0.94161   0.76942   0.00000  Uiso   1.00
H1254  H     0.96466   0.93557   0.71395   0.00000  Uiso   1.00
N1255  N     0.95759   0.74770   0.73918   0.00000  Uiso   1.00
H1256  H     0.96590   0.73397   0.70949   0.00000  Uiso   1.00
H1257  H     0.96620   0.72413   0.76422   0.00000  Uiso   1.00
N1258  N     0.70933   0.91975   0.75691   0.00000  Uiso   1.00
H1259  H     0.70200   0.93557   0.78606   0.00000  Uiso   1.00
H1260  H     0.70041   0.94161   0.73058   0.00000  Uiso   1.00
loop_
_geom_bond_atom_site_label_1
_geom_bond_atom_site_label_2
_geom_bond_distance
_geom_bond_site_symmetry_2
_ccdc_geom_bond_type
C1     O38     1.301   .     A
C1     C26     1.474   .     S
C1     O35     1.300   .     A
C2     C25     1.474   .     S
C2     O37     1.300   .     A
C2     O36     1.301   .     A
C3     O42     1.304   .     A
C3     O39     1.303   .     A
C3     C21     1.485   .     S
C4     C22     1.485   .     S
C4     O41     1.303   .     A
C4     O40     1.304   .     A
C5     N34     1.375   .     A
C5     Br43    1.923   .     S
C5     C428    1.420   1_545 S
C6     N33     1.374   .     A
C6     Br44    1.927   .     S
C6     C217    1.420   .     S
C7     Br45    1.923   .     S
C7     N34     1.375   .     A
C7     C426    1.420   1_545 S
C8     Br46    1.927   .     S
C8     N33     1.374   .     A
C8     C215    1.420   .     S
C9     C26     1.413   .     A
C9     N59     1.437   .     S
C9     C151    1.399   1_455 S
C10    C25     1.415   .     A
C10    N62     1.437   .     S
C10    C82     1.400   .     S
C11    C25     1.413   .     A
C11    N65     1.437   .     S
C11    C79     1.399   .     S
C12    N68     1.437   .     S
C12    C26     1.415   .     A
C12    C150    1.400   1_455 S
C13    C17     1.402   .     A
C13    C23     1.399   .     A
C13    H29     1.083   .     S
C14    C18     1.391   .     A
C14    C24     1.398   .     A
C14    H30     1.082   .     S
C15    H31     1.083   .     S
C15    C19     1.402   .     A
C15    C24     1.399   .     A
C16    C20     1.391   .     A
C16    C23     1.398   .     A
C16    H32     1.082   .     S
C17    N47     1.439   .     S
C17    C21     1.422   .     A
C18    C22     1.417   .     A
C18    N50     1.435   .     S
C19    N53     1.439   .     S
C19    C22     1.422   .     A
C20    N56     1.435   .     S
C20    C21     1.417   .     A
C23    C654    1.478   1_554 S
C24    C653    1.478   .     S
Cu27   N33     2.023   .     S
Cu27   O37     1.992   .     S
Cu27   O39     1.976   .     S
Cu27   Cu28    2.692   .     S
Cu27   O35     1.992   .     S
Cu27   O41     1.976   .     S
Cu28   O38     1.992   .     S
Cu28   O42     1.976   .     S
Cu28   N34     2.023   .     S
Cu28   O36     1.992   .     S
Cu28   O40     1.976   .     S
N47    H48     1.046   .     S
N47    H49     1.046   .     S
N50    H52     1.046   .     S
N50    H51     1.046   .     S
N53    H55     1.046   .     S
N53    H54     1.046   .     S
N56    H58     1.046   .     S
N56    H57     1.046   .     S
N59    H60     1.044   .     S
N59    H61     1.045   .     S
N62    H63     1.044   .     S
N62    H64     1.045   .     S
N65    H66     1.045   .     S
N65    H67     1.044   .     S
N68    H70     1.044   .     S
N68    H69     1.045   .     S
C71    O108    1.301   .     A
C71    C96     1.474   .     S
C71    O105    1.300   .     A
C72    C95     1.474   .     S
C72    O107    1.300   .     A
C72    O106    1.301   .     A
C73    O112    1.304   .     A
C73    O109    1.303   .     A
C73    C91     1.485   .     S
C74    C92     1.485   .     S
C74    O111    1.303   .     A
C74    O110    1.304   .     A
C75    N104    1.375   .     A
C75    Br113   1.923   .     S
C75    C498    1.420   1_545 S
C76    N103    1.374   .     A
C76    Br114   1.927   .     S
C76    C287    1.420   .     S
C77    Br115   1.923   .     S
C77    N104    1.375   .     A
C77    C496    1.420   1_545 S
C78    Br116   1.927   .     S
C78    N103    1.374   .     A
C78    C285    1.420   .     S
C79    C96     1.413   .     A
C79    N129    1.437   .     S
C80    C95     1.415   .     A
C80    N132    1.437   .     S
C80    C152    1.400   .     S
C81    C95     1.413   .     A
C81    N135    1.437   .     S
C81    C149    1.399   .     S
C82    N138    1.437   .     S
C82    C96     1.415   .     A
C83    C87     1.402   .     A
C83    C93     1.399   .     A
C83    H99     1.083   .     S
C84    C88     1.391   .     A
C84    C94     1.398   .     A
C84    H100    1.082   .     S
C85    H101    1.083   .     S
C85    C89     1.402   .     A
C85    C94     1.399   .     A
C86    C90     1.391   .     A
C86    C93     1.398   .     A
C86    H102    1.082   .     S
C87    N117    1.439   .     S
C87    C91     1.422   .     A
C88    C92     1.417   .     A
C88    N120    1.435   .     S
C89    N123    1.439   .     S
C89    C92     1.422   .     A
C90    N126    1.435   .     S
C90    C91     1.417   .     A
C93    C724    1.478   1_554 S
C94    C723    1.478   .     S
Cu97   N103    2.023   .     S
Cu97   O107    1.992   .     S
Cu97   O109    1.976   .     S
Cu97   Cu98    2.692   .     S
Cu97   O105    1.992   .     S
Cu97   O111    1.976   .     S
Cu98   O108    1.992   .     S
Cu98   O112    1.976   .     S
Cu98   N104    2.023   .     S
Cu98   O106    1.992   .     S
Cu98   O110    1.976   .     S
N117   H118    1.046   .     S
N117   H119    1.046   .     S
N120   H122    1.046   .     S
N120   H121    1.046   .     S
N123   H125    1.046   .     S
N123   H124    1.046   .     S
N126   H128    1.046   .     S
N126   H127    1.046   .     S
N129   H130    1.044   .     S
N129   H131    1.045   .     S
N132   H133    1.044   .     S
N132   H134    1.045   .     S
N135   H136    1.045   .     S
N135   H137    1.044   .     S
N138   H140    1.044   .     S
N138   H139    1.045   .     S
C141   O178    1.301   .     A
C141   C166    1.474   .     S
C141   O175    1.300   .     A
C142   C165    1.474   .     S
C142   O177    1.300   .     A
C142   O176    1.301   .     A
C143   O182    1.304   .     A
C143   O179    1.303   .     A
C143   C161    1.485   .     S
C144   C162    1.485   .     S
C144   O181    1.303   .     A
C144   O180    1.304   .     A
C145   N174    1.375   .     A
C145   Br183   1.923   .     S
C145   C568    1.420   1_545 S
C146   N173    1.374   .     A
C146   Br184   1.927   .     S
C146   C357    1.420   .     S
C147   Br185   1.923   .     S
C147   N174    1.375   .     A
C147   C566    1.420   1_545 S
C148   Br186   1.927   .     S
C148   N173    1.374   .     A
C148   C355    1.420   .     S
C149   C166    1.413   .     A
C149   N199    1.437   .     S
C150   C165    1.415   .     A
C150   N202    1.437   .     S
C150   C12     1.400   1_655 S
C151   C165    1.413   .     A
C151   N205    1.437   .     S
C151   C9      1.399   1_655 S
C152   N208    1.437   .     S
C152   C166    1.415   .     A
C153   C157    1.402   .     A
C153   C163    1.399   .     A
C153   H169    1.083   .     S
C154   C158    1.391   .     A
C154   C164    1.398   .     A
C154   H170    1.082   .     S
C155   H171    1.083   .     S
C155   C159    1.402   .     A
C155   C164    1.399   .     A
C156   C160    1.391   .     A
C156   C163    1.398   .     A
C156   H172    1.082   .     S
C157   N187    1.439   .     S
C157   C161    1.422   .     A
C158   C162    1.417   .     A
C158   N190    1.435   .     S
C159   N193    1.439   .     S
C159   C162    1.422   .     A
C160   N196    1.435   .     S
C160   C161    1.417   .     A
C163   C794    1.478   1_554 S
C164   C793    1.478   .     S
Cu167  N173    2.023   .     S
Cu167  O177    1.992   .     S
Cu167  O179    1.976   .     S
Cu167  Cu168   2.692   .     S
Cu167  O175    1.992   .     S
Cu167  O181    1.976   .     S
Cu168  O178    1.992   .     S
Cu168  O182    1.976   .     S
Cu168  N174    2.023   .     S
Cu168  O176    1.992   .     S
Cu168  O180    1.976   .     S
N187   H188    1.046   .     S
N187   H189    1.046   .     S
N190   H192    1.046   .     S
N190   H191    1.046   .     S
N193   H195    1.046   .     S
N193   H194    1.046   .     S
N196   H198    1.046   .     S
N196   H197    1.046   .     S
N199   H200    1.044   .     S
N199   H201    1.045   .     S
N202   H203    1.044   .     S
N202   H204    1.045   .     S
N205   H206    1.045   .     S
N205   H207    1.044   .     S
N208   H210    1.044   .     S
N208   H209    1.045   .     S
C211   O248    1.301   .     A
C211   C236    1.474   .     S
C211   O245    1.300   .     A
C212   C235    1.474   .     S
C212   O247    1.300   .     A
C212   O246    1.301   .     A
C213   O252    1.304   .     A
C213   O249    1.303   .     A
C213   C231    1.485   .     S
C214   C232    1.485   .     S
C214   O251    1.303   .     A
C214   O250    1.304   .     A
C215   N244    1.375   .     A
C215   Br253   1.923   .     S
C216   N243    1.374   .     A
C216   Br254   1.927   .     S
C216   C427    1.420   .     S
C217   Br255   1.923   .     S
C217   N244    1.375   .     A
C218   Br256   1.927   .     S
C218   N243    1.374   .     A
C218   C425    1.420   .     S
C219   C236    1.413   .     A
C219   N269    1.437   .     S
C219   C361    1.399   1_455 S
C220   C235    1.415   .     A
C220   N272    1.437   .     S
C220   C292    1.400   .     S
C221   C235    1.413   .     A
C221   N275    1.437   .     S
C221   C289    1.399   .     S
C222   N278    1.437   .     S
C222   C236    1.415   .     A
C222   C360    1.400   1_455 S
C223   C227    1.402   .     A
C223   C233    1.399   .     A
C223   H239    1.083   .     S
C224   C228    1.391   .     A
C224   C234    1.398   .     A
C224   H240    1.082   .     S
C225   H241    1.083   .     S
C225   C229    1.402   .     A
C225   C234    1.399   .     A
C226   C230    1.391   .     A
C226   C233    1.398   .     A
C226   H242    1.082   .     S
C227   N257    1.439   .     S
C227   C231    1.422   .     A
C228   C232    1.417   .     A
C228   N260    1.435   .     S
C229   N263    1.439   .     S
C229   C232    1.422   .     A
C230   N266    1.435   .     S
C230   C231    1.417   .     A
C233   C864    1.478   1_554 S
C234   C863    1.478   .     S
Cu237  N243    2.023   .     S
Cu237  O247    1.992   .     S
Cu237  O249    1.976   .     S
Cu237  Cu238   2.692   .     S
Cu237  O245    1.992   .     S
Cu237  O251    1.976   .     S
Cu238  O248    1.992   .     S
Cu238  O252    1.976   .     S
Cu238  N244    2.023   .     S
Cu238  O246    1.992   .     S
Cu238  O250    1.976   .     S
N257   H258    1.046   .     S
N257   H259    1.046   .     S
N260   H262    1.046   .     S
N260   H261    1.046   .     S
N263   H265    1.046   .     S
N263   H264    1.046   .     S
N266   H268    1.046   .     S
N266   H267    1.046   .     S
N269   H270    1.044   .     S
N269   H271    1.045   .     S
N272   H273    1.044   .     S
N272   H274    1.045   .     S
N275   H276    1.045   .     S
N275   H277    1.044   .     S
N278   H280    1.044   .     S
N278   H279    1.045   .     S
C281   O318    1.301   .     A
C281   C306    1.474   .     S
C281   O315    1.300   .     A
C282   C305    1.474   .     S
C282   O317    1.300   .     A
C282   O316    1.301   .     A
C283   O322    1.304   .     A
C283   O319    1.303   .     A
C283   C301    1.485   .     S
C284   C302    1.485   .     S
C284   O321    1.303   .     A
C284   O320    1.304   .     A
C285   N314    1.375   .     A
C285   Br323   1.923   .     S
C286   N313    1.374   .     A
C286   Br324   1.927   .     S
C286   C497    1.420   .     S
C287   Br325   1.923   .     S
C287   N314    1.375   .     A
C288   Br326   1.927   .     S
C288   N313    1.374   .     A
C288   C495    1.420   .     S
C289   C306    1.413   .     A
C289   N339    1.437   .     S
C290   C305    1.415   .     A
C290   N342    1.437   .     S
C290   C362    1.400   .     S
C291   C305    1.413   .     A
C291   N345    1.437   .     S
C291   C359    1.399   .     S
C292   N348    1.437   .     S
C292   C306    1.415   .     A
C293   C297    1.402   .     A
C293   C303    1.399   .     A
C293   H309    1.083   .     S
C294   C298    1.391   .     A
C294   C304    1.398   .     A
C294   H310    1.082   .     S
C295   H311    1.083   .     S
C295   C299    1.402   .     A
C295   C304    1.399   .     A
C296   C300    1.391   .     A
C296   C303    1.398   .     A
C296   H312    1.082   .     S
C297   N327    1.439   .     S
C297   C301    1.422   .     A
C298   C302    1.417   .     A
C298   N330    1.435   .     S
C299   N333    1.439   .     S
C299   C302    1.422   .     A
C300   N336    1.435   .     S
C300   C301    1.417   .     A
C303   C934    1.478   1_554 S
C304   C933    1.478   .     S
Cu307  N313    2.023   .     S
Cu307  O317    1.992   .     S
Cu307  O319    1.976   .     S
Cu307  Cu308   2.692   .     S
Cu307  O315    1.992   .     S
Cu307  O321    1.976   .     S
Cu308  O318    1.992   .     S
Cu308  O322    1.976   .     S
Cu308  N314    2.023   .     S
Cu308  O316    1.992   .     S
Cu308  O320    1.976   .     S
N327   H328    1.046   .     S
N327   H329    1.046   .     S
N330   H332    1.046   .     S
N330   H331    1.046   .     S
N333   H335    1.046   .     S
N333   H334    1.046   .     S
N336   H338    1.046   .     S
N336   H337    1.046   .     S
N339   H340    1.044   .     S
N339   H341    1.045   .     S
N342   H343    1.044   .     S
N342   H344    1.045   .     S
N345   H346    1.045   .     S
N345   H347    1.044   .     S
N348   H350    1.044   .     S
N348   H349    1.045   .     S
C351   O388    1.301   .     A
C351   C376    1.474   .     S
C351   O385    1.300   .     A
C352   C375    1.474   .     S
C352   O387    1.300   .     A
C352   O386    1.301   .     A
C353   O392    1.304   .     A
C353   O389    1.303   .     A
C353   C371    1.485   .     S
C354   C372    1.485   .     S
C354   O391    1.303   .     A
C354   O390    1.304   .     A
C355   N384    1.375   .     A
C355   Br393   1.923   .     S
C356   N383    1.374   .     A
C356   Br394   1.927   .     S
C356   C567    1.420   .     S
C357   Br395   1.923   .     S
C357   N384    1.375   .     A
C358   Br396   1.927   .     S
C358   N383    1.374   .     A
C358   C565    1.420   .     S
C359   C376    1.413   .     A
C359   N409    1.437   .     S
C360   C375    1.415   .     A
C360   N412    1.437   .     S
C360   C222    1.400   1_655 S
C361   C375    1.413   .     A
C361   N415    1.437   .     S
C361   C219    1.399   1_655 S
C362   N418    1.437   .     S
C362   C376    1.415   .     A
C363   C367    1.402   .     A
C363   C373    1.399   .     A
C363   H379    1.083   .     S
C364   C368    1.391   .     A
C364   C374    1.398   .     A
C364   H380    1.082   .     S
C365   H381    1.083   .     S
C365   C369    1.402   .     A
C365   C374    1.399   .     A
C366   C370    1.391   .     A
C366   C373    1.398   .     A
C366   H382    1.082   .     S
C367   N397    1.439   .     S
C367   C371    1.422   .     A
C368   C372    1.417   .     A
C368   N400    1.435   .     S
C369   N403    1.439   .     S
C369   C372    1.422   .     A
C370   N406    1.435   .     S
C370   C371    1.417   .     A
C373   C1004   1.478   1_554 S
C374   C1003   1.478   .     S
Cu377  N383    2.023   .     S
Cu377  O387    1.992   .     S
Cu377  O389    1.976   .     S
Cu377  Cu378   2.692   .     S
Cu377  O385    1.992   .     S
Cu377  O391    1.976   .     S
Cu378  O388    1.992   .     S
Cu378  O392    1.976   .     S
Cu378  N384    2.023   .     S
Cu378  O386    1.992   .     S
Cu378  O390    1.976   .     S
N397   H398    1.046   .     S
N397   H399    1.046   .     S
N400   H402    1.046   .     S
N400   H401    1.046   .     S
N403   H405    1.046   .     S
N403   H404    1.046   .     S
N406   H408    1.046   .     S
N406   H407    1.046   .     S
N409   H410    1.044   .     S
N409   H411    1.045   .     S
N412   H413    1.044   .     S
N412   H414    1.045   .     S
N415   H416    1.045   .     S
N415   H417    1.044   .     S
N418   H420    1.044   .     S
N418   H419    1.045   .     S
C421   O458    1.301   .     A
C421   C446    1.474   .     S
C421   O455    1.300   .     A
C422   C445    1.474   .     S
C422   O457    1.300   .     A
C422   O456    1.301   .     A
C423   O462    1.304   .     A
C423   O459    1.303   .     A
C423   C441    1.485   .     S
C424   C442    1.485   .     S
C424   O461    1.303   .     A
C424   O460    1.304   .     A
C425   N454    1.375   .     A
C425   Br463   1.923   .     S
C426   N453    1.374   .     A
C426   Br464   1.927   .     S
C426   C7      1.420   1_565 S
C427   Br465   1.923   .     S
C427   N454    1.375   .     A
C428   Br466   1.927   .     S
C428   N453    1.374   .     A
C428   C5      1.420   1_565 S
C429   C446    1.413   .     A
C429   N479    1.437   .     S
C429   C571    1.399   1_455 S
C430   C445    1.415   .     A
C430   N482    1.437   .     S
C430   C502    1.400   .     S
C431   C445    1.413   .     A
C431   N485    1.437   .     S
C431   C499    1.399   .     S
C432   N488    1.437   .     S
C432   C446    1.415   .     A
C432   C570    1.400   1_455 S
C433   C437    1.402   .     A
C433   C443    1.399   .     A
C433   H449    1.083   .     S
C434   C438    1.391   .     A
C434   C444    1.398   .     A
C434   H450    1.082   .     S
C435   H451    1.083   .     S
C435   C439    1.402   .     A
C435   C444    1.399   .     A
C436   C440    1.391   .     A
C436   C443    1.398   .     A
C436   H452    1.082   .     S
C437   N467    1.439   .     S
C437   C441    1.422   .     A
C438   C442    1.417   .     A
C438   N470    1.435   .     S
C439   N473    1.439   .     S
C439   C442    1.422   .     A
C440   N476    1.435   .     S
C440   C441    1.417   .     A
C443   C1074   1.478   1_554 S
C444   C1073   1.478   .     S
Cu447  N453    2.023   .     S
Cu447  O457    1.992   .     S
Cu447  O459    1.976   .     S
Cu447  Cu448   2.692   .     S
Cu447  O455    1.992   .     S
Cu447  O461    1.976   .     S
Cu448  O458    1.992   .     S
Cu448  O462    1.976   .     S
Cu448  N454    2.023   .     S
Cu448  O456    1.992   .     S
Cu448  O460    1.976   .     S
N467   H468    1.046   .     S
N467   H469    1.046   .     S
N470   H472    1.046   .     S
N470   H471    1.046   .     S
N473   H475    1.046   .     S
N473   H474    1.046   .     S
N476   H478    1.046   .     S
N476   H477    1.046   .     S
N479   H480    1.044   .     S
N479   H481    1.045   .     S
N482   H483    1.044   .     S
N482   H484    1.045   .     S
N485   H486    1.045   .     S
N485   H487    1.044   .     S
N488   H490    1.044   .     S
N488   H489    1.045   .     S
C491   O528    1.301   .     A
C491   C516    1.474   .     S
C491   O525    1.300   .     A
C492   C515    1.474   .     S
C492   O527    1.300   .     A
C492   O526    1.301   .     A
C493   O532    1.304   .     A
C493   O529    1.303   .     A
C493   C511    1.485   .     S
C494   C512    1.485   .     S
C494   O531    1.303   .     A
C494   O530    1.304   .     A
C495   N524    1.375   .     A
C495   Br533   1.923   .     S
C496   N523    1.374   .     A
C496   Br534   1.927   .     S
C496   C77     1.420   1_565 S
C497   Br535   1.923   .     S
C497   N524    1.375   .     A
C498   Br536   1.927   .     S
C498   N523    1.374   .     A
C498   C75     1.420   1_565 S
C499   C516    1.413   .     A
C499   N549    1.437   .     S
C500   C515    1.415   .     A
C500   N552    1.437   .     S
C500   C572    1.400   .     S
C501   C515    1.413   .     A
C501   N555    1.437   .     S
C501   C569    1.399   .     S
C502   N558    1.437   .     S
C502   C516    1.415   .     A
C503   C507    1.402   .     A
C503   C513    1.399   .     A
C503   H519    1.083   .     S
C504   C508    1.391   .     A
C504   C514    1.398   .     A
C504   H520    1.082   .     S
C505   H521    1.083   .     S
C505   C509    1.402   .     A
C505   C514    1.399   .     A
C506   C510    1.391   .     A
C506   C513    1.398   .     A
C506   H522    1.082   .     S
C507   N537    1.439   .     S
C507   C511    1.422   .     A
C508   C512    1.417   .     A
C508   N540    1.435   .     S
C509   N543    1.439   .     S
C509   C512    1.422   .     A
C510   N546    1.435   .     S
C510   C511    1.417   .     A
C513   C1144   1.478   1_554 S
C514   C1143   1.478   .     S
Cu517  N523    2.023   .     S
Cu517  O527    1.992   .     S
Cu517  O529    1.976   .     S
Cu517  Cu518   2.692   .     S
Cu517  O525    1.992   .     S
Cu517  O531    1.976   .     S
Cu518  O528    1.992   .     S
Cu518  O532    1.976   .     S
Cu518  N524    2.023   .     S
Cu518  O526    1.992   .     S
Cu518  O530    1.976   .     S
N537   H538    1.046   .     S
N537   H539    1.046   .     S
N540   H542    1.046   .     S
N540   H541    1.046   .     S
N543   H545    1.046   .     S
N543   H544    1.046   .     S
N546   H548    1.046   .     S
N546   H547    1.046   .     S
N549   H550    1.044   .     S
N549   H551    1.045   .     S
N552   H553    1.044   .     S
N552   H554    1.045   .     S
N555   H556    1.045   .     S
N555   H557    1.044   .     S
N558   H560    1.044   .     S
N558   H559    1.045   .     S
C561   O598    1.301   .     A
C561   C586    1.474   .     S
C561   O595    1.300   .     A
C562   C585    1.474   .     S
C562   O597    1.300   .     A
C562   O596    1.301   .     A
C563   O602    1.304   .     A
C563   O599    1.303   .     A
C563   C581    1.485   .     S
C564   C582    1.485   .     S
C564   O601    1.303   .     A
C564   O600    1.304   .     A
C565   N594    1.375   .     A
C565   Br603   1.923   .     S
C566   N593    1.374   .     A
C566   Br604   1.927   .     S
C566   C147    1.420   1_565 S
C567   Br605   1.923   .     S
C567   N594    1.375   .     A
C568   Br606   1.927   .     S
C568   N593    1.374   .     A
C568   C145    1.420   1_565 S
C569   C586    1.413   .     A
C569   N619    1.437   .     S
C570   C585    1.415   .     A
C570   N622    1.437   .     S
C570   C432    1.400   1_655 S
C571   C585    1.413   .     A
C571   N625    1.437   .     S
C571   C429    1.399   1_655 S
C572   N628    1.437   .     S
C572   C586    1.415   .     A
C573   C577    1.402   .     A
C573   C583    1.399   .     A
C573   H589    1.083   .     S
C574   C578    1.391   .     A
C574   C584    1.398   .     A
C574   H590    1.082   .     S
C575   H591    1.083   .     S
C575   C579    1.402   .     A
C575   C584    1.399   .     A
C576   C580    1.391   .     A
C576   C583    1.398   .     A
C576   H592    1.082   .     S
C577   N607    1.439   .     S
C577   C581    1.422   .     A
C578   C582    1.417   .     A
C578   N610    1.435   .     S
C579   N613    1.439   .     S
C579   C582    1.422   .     A
C580   N616    1.435   .     S
C580   C581    1.417   .     A
C583   C1214   1.478   1_554 S
C584   C1213   1.478   .     S
Cu587  N593    2.023   .     S
Cu587  O597    1.992   .     S
Cu587  O599    1.976   .     S
Cu587  Cu588   2.692   .     S
Cu587  O595    1.992   .     S
Cu587  O601    1.976   .     S
Cu588  O598    1.992   .     S
Cu588  O602    1.976   .     S
Cu588  N594    2.023   .     S
Cu588  O596    1.992   .     S
Cu588  O600    1.976   .     S
N607   H608    1.046   .     S
N607   H609    1.046   .     S
N610   H612    1.046   .     S
N610   H611    1.046   .     S
N613   H615    1.046   .     S
N613   H614    1.046   .     S
N616   H618    1.046   .     S
N616   H617    1.046   .     S
N619   H620    1.044   .     S
N619   H621    1.045   .     S
N622   H623    1.044   .     S
N622   H624    1.045   .     S
N625   H626    1.045   .     S
N625   H627    1.044   .     S
N628   H630    1.044   .     S
N628   H629    1.045   .     S
C631   O668    1.301   .     A
C631   C656    1.474   .     S
C631   O665    1.300   .     A
C632   C655    1.474   .     S
C632   O667    1.300   .     A
C632   O666    1.301   .     A
C633   O672    1.304   .     A
C633   O669    1.303   .     A
C633   C651    1.485   .     S
C634   C652    1.485   .     S
C634   O671    1.303   .     A
C634   O670    1.304   .     A
C635   N664    1.375   .     A
C635   Br673   1.923   .     S
C635   C1058   1.420   1_545 S
C636   N663    1.374   .     A
C636   Br674   1.927   .     S
C636   C847    1.420   .     S
C637   Br675   1.923   .     S
C637   N664    1.375   .     A
C637   C1056   1.420   1_545 S
C638   Br676   1.927   .     S
C638   N663    1.374   .     A
C638   C845    1.420   .     S
C639   C656    1.413   .     A
C639   N689    1.437   .     S
C639   C781    1.399   1_455 S
C640   C655    1.415   .     A
C640   N692    1.437   .     S
C640   C712    1.400   .     S
C641   C655    1.413   .     A
C641   N695    1.437   .     S
C641   C709    1.399   .     S
C642   N698    1.437   .     S
C642   C656    1.415   .     A
C642   C780    1.400   1_455 S
C643   C647    1.402   .     A
C643   C653    1.399   .     A
C643   H659    1.083   .     S
C644   C648    1.391   .     A
C644   C654    1.398   .     A
C644   H660    1.082   .     S
C645   H661    1.083   .     S
C645   C649    1.402   .     A
C645   C654    1.399   .     A
C646   C650    1.391   .     A
C646   C653    1.398   .     A
C646   H662    1.082   .     S
C647   N677    1.439   .     S
C647   C651    1.422   .     A
C648   C652    1.417   .     A
C648   N680    1.435   .     S
C649   N683    1.439   .     S
C649   C652    1.422   .     A
C650   N686    1.435   .     S
C650   C651    1.417   .     A
C654   C23     1.478   1_556 S
Cu657  N663    2.023   .     S
Cu657  O667    1.992   .     S
Cu657  O669    1.976   .     S
Cu657  Cu658   2.692   .     S
Cu657  O665    1.992   .     S
Cu657  O671    1.976   .     S
Cu658  O668    1.992   .     S
Cu658  O672    1.976   .     S
Cu658  N664    2.023   .     S
Cu658  O666    1.992   .     S
Cu658  O670    1.976   .     S
N677   H678    1.046   .     S
N677   H679    1.046   .     S
N680   H682    1.046   .     S
N680   H681    1.046   .     S
N683   H685    1.046   .     S
N683   H684    1.046   .     S
N686   H688    1.046   .     S
N686   H687    1.046   .     S
N689   H690    1.044   .     S
N689   H691    1.045   .     S
N692   H693    1.044   .     S
N692   H694    1.045   .     S
N695   H696    1.045   .     S
N695   H697    1.044   .     S
N698   H700    1.044   .     S
N698   H699    1.045   .     S
C701   O738    1.301   .     A
C701   C726    1.474   .     S
C701   O735    1.300   .     A
C702   C725    1.474   .     S
C702   O737    1.300   .     A
C702   O736    1.301   .     A
C703   O742    1.304   .     A
C703   O739    1.303   .     A
C703   C721    1.485   .     S
C704   C722    1.485   .     S
C704   O741    1.303   .     A
C704   O740    1.304   .     A
C705   N734    1.375   .     A
C705   Br743   1.923   .     S
C705   C1128   1.420   1_545 S
C706   N733    1.374   .     A
C706   Br744   1.927   .     S
C706   C917    1.420   .     S
C707   Br745   1.923   .     S
C707   N734    1.375   .     A
C707   C1126   1.420   1_545 S
C708   Br746   1.927   .     S
C708   N733    1.374   .     A
C708   C915    1.420   .     S
C709   C726    1.413   .     A
C709   N759    1.437   .     S
C710   C725    1.415   .     A
C710   N762    1.437   .     S
C710   C782    1.400   .     S
C711   C725    1.413   .     A
C711   N765    1.437   .     S
C711   C779    1.399   .     S
C712   N768    1.437   .     S
C712   C726    1.415   .     A
C713   C717    1.402   .     A
C713   C723    1.399   .     A
C713   H729    1.083   .     S
C714   C718    1.391   .     A
C714   C724    1.398   .     A
C714   H730    1.082   .     S
C715   H731    1.083   .     S
C715   C719    1.402   .     A
C715   C724    1.399   .     A
C716   C720    1.391   .     A
C716   C723    1.398   .     A
C716   H732    1.082   .     S
C717   N747    1.439   .     S
C717   C721    1.422   .     A
C718   C722    1.417   .     A
C718   N750    1.435   .     S
C719   N753    1.439   .     S
C719   C722    1.422   .     A
C720   N756    1.435   .     S
C720   C721    1.417   .     A
C724   C93     1.478   1_556 S
Cu727  N733    2.023   .     S
Cu727  O737    1.992   .     S
Cu727  O739    1.976   .     S
Cu727  Cu728   2.692   .     S
Cu727  O735    1.992   .     S
Cu727  O741    1.976   .     S
Cu728  O738    1.992   .     S
Cu728  O742    1.976   .     S
Cu728  N734    2.023   .     S
Cu728  O736    1.992   .     S
Cu728  O740    1.976   .     S
N747   H748    1.046   .     S
N747   H749    1.046   .     S
N750   H752    1.046   .     S
N750   H751    1.046   .     S
N753   H755    1.046   .     S
N753   H754    1.046   .     S
N756   H758    1.046   .     S
N756   H757    1.046   .     S
N759   H760    1.044   .     S
N759   H761    1.045   .     S
N762   H763    1.044   .     S
N762   H764    1.045   .     S
N765   H766    1.045   .     S
N765   H767    1.044   .     S
N768   H770    1.044   .     S
N768   H769    1.045   .     S
C771   O808    1.301   .     A
C771   C796    1.474   .     S
C771   O805    1.300   .     A
C772   C795    1.474   .     S
C772   O807    1.300   .     A
C772   O806    1.301   .     A
C773   O812    1.304   .     A
C773   O809    1.303   .     A
C773   C791    1.485   .     S
C774   C792    1.485   .     S
C774   O811    1.303   .     A
C774   O810    1.304   .     A
C775   N804    1.375   .     A
C775   Br813   1.923   .     S
C775   C1198   1.420   1_545 S
C776   N803    1.374   .     A
C776   Br814   1.927   .     S
C776   C987    1.420   .     S
C777   Br815   1.923   .     S
C777   N804    1.375   .     A
C777   C1196   1.420   1_545 S
C778   Br816   1.927   .     S
C778   N803    1.374   .     A
C778   C985    1.420   .     S
C779   C796    1.413   .     A
C779   N829    1.437   .     S
C780   C795    1.415   .     A
C780   N832    1.437   .     S
C780   C642    1.400   1_655 S
C781   C795    1.413   .     A
C781   N835    1.437   .     S
C781   C639    1.399   1_655 S
C782   N838    1.437   .     S
C782   C796    1.415   .     A
C783   C787    1.402   .     A
C783   C793    1.399   .     A
C783   H799    1.083   .     S
C784   C788    1.391   .     A
C784   C794    1.398   .     A
C784   H800    1.082   .     S
C785   H801    1.083   .     S
C785   C789    1.402   .     A
C785   C794    1.399   .     A
C786   C790    1.391   .     A
C786   C793    1.398   .     A
C786   H802    1.082   .     S
C787   N817    1.439   .     S
C787   C791    1.422   .     A
C788   C792    1.417   .     A
C788   N820    1.435   .     S
C789   N823    1.439   .     S
C789   C792    1.422   .     A
C790   N826    1.435   .     S
C790   C791    1.417   .     A
C794   C163    1.478   1_556 S
Cu797  N803    2.023   .     S
Cu797  O807    1.992   .     S
Cu797  O809    1.976   .     S
Cu797  Cu798   2.692   .     S
Cu797  O805    1.992   .     S
Cu797  O811    1.976   .     S
Cu798  O808    1.992   .     S
Cu798  O812    1.976   .     S
Cu798  N804    2.023   .     S
Cu798  O806    1.992   .     S
Cu798  O810    1.976   .     S
N817   H818    1.046   .     S
N817   H819    1.046   .     S
N820   H822    1.046   .     S
N820   H821    1.046   .     S
N823   H825    1.046   .     S
N823   H824    1.046   .     S
N826   H828    1.046   .     S
N826   H827    1.046   .     S
N829   H830    1.044   .     S
N829   H831    1.045   .     S
N832   H833    1.044   .     S
N832   H834    1.045   .     S
N835   H836    1.045   .     S
N835   H837    1.044   .     S
N838   H840    1.044   .     S
N838   H839    1.045   .     S
C841   O878    1.301   .     A
C841   C866    1.474   .     S
C841   O875    1.300   .     A
C842   C865    1.474   .     S
C842   O877    1.300   .     A
C842   O876    1.301   .     A
C843   O882    1.304   .     A
C843   O879    1.303   .     A
C843   C861    1.485   .     S
C844   C862    1.485   .     S
C844   O881    1.303   .     A
C844   O880    1.304   .     A
C845   N874    1.375   .     A
C845   Br883   1.923   .     S
C846   N873    1.374   .     A
C846   Br884   1.927   .     S
C846   C1057   1.420   .     S
C847   Br885   1.923   .     S
C847   N874    1.375   .     A
C848   Br886   1.927   .     S
C848   N873    1.374   .     A
C848   C1055   1.420   .     S
C849   C866    1.413   .     A
C849   N899    1.437   .     S
C849   C991    1.399   1_455 S
C850   C865    1.415   .     A
C850   N902    1.437   .     S
C850   C922    1.400   .     S
C851   C865    1.413   .     A
C851   N905    1.437   .     S
C851   C919    1.399   .     S
C852   N908    1.437   .     S
C852   C866    1.415   .     A
C852   C990    1.400   1_455 S
C853   C857    1.402   .     A
C853   C863    1.399   .     A
C853   H869    1.083   .     S
C854   C858    1.391   .     A
C854   C864    1.398   .     A
C854   H870    1.082   .     S
C855   H871    1.083   .     S
C855   C859    1.402   .     A
C855   C864    1.399   .     A
C856   C860    1.391   .     A
C856   C863    1.398   .     A
C856   H872    1.082   .     S
C857   N887    1.439   .     S
C857   C861    1.422   .     A
C858   C862    1.417   .     A
C858   N890    1.435   .     S
C859   N893    1.439   .     S
C859   C862    1.422   .     A
C860   N896    1.435   .     S
C860   C861    1.417   .     A
C864   C233    1.478   1_556 S
Cu867  N873    2.023   .     S
Cu867  O877    1.992   .     S
Cu867  O879    1.976   .     S
Cu867  Cu868   2.692   .     S
Cu867  O875    1.992   .     S
Cu867  O881    1.976   .     S
Cu868  O878    1.992   .     S
Cu868  O882    1.976   .     S
Cu868  N874    2.023   .     S
Cu868  O876    1.992   .     S
Cu868  O880    1.976   .     S
N887   H888    1.046   .     S
N887   H889    1.046   .     S
N890   H892    1.046   .     S
N890   H891    1.046   .     S
N893   H895    1.046   .     S
N893   H894    1.046   .     S
N896   H898    1.046   .     S
N896   H897    1.046   .     S
N899   H900    1.044   .     S
N899   H901    1.045   .     S
N902   H903    1.044   .     S
N902   H904    1.045   .     S
N905   H906    1.045   .     S
N905   H907    1.044   .     S
N908   H910    1.044   .     S
N908   H909    1.045   .     S
C911   O948    1.301   .     A
C911   C936    1.474   .     S
C911   O945    1.300   .     A
C912   C935    1.474   .     S
C912   O947    1.300   .     A
C912   O946    1.301   .     A
C913   O952    1.304   .     A
C913   O949    1.303   .     A
C913   C931    1.485   .     S
C914   C932    1.485   .     S
C914   O951    1.303   .     A
C914   O950    1.304   .     A
C915   N944    1.375   .     A
C915   Br953   1.923   .     S
C916   N943    1.374   .     A
C916   Br954   1.927   .     S
C916   C1127   1.420   .     S
C917   Br955   1.923   .     S
C917   N944    1.375   .     A
C918   Br956   1.927   .     S
C918   N943    1.374   .     A
C918   C1125   1.420   .     S
C919   C936    1.413   .     A
C919   N969    1.437   .     S
C920   C935    1.415   .     A
C920   N972    1.437   .     S
C920   C992    1.400   .     S
C921   C935    1.413   .     A
C921   N975    1.437   .     S
C921   C989    1.399   .     S
C922   N978    1.437   .     S
C922   C936    1.415   .     A
C923   C927    1.402   .     A
C923   C933    1.399   .     A
C923   H939    1.083   .     S
C924   C928    1.391   .     A
C924   C934    1.398   .     A
C924   H940    1.082   .     S
C925   H941    1.083   .     S
C925   C929    1.402   .     A
C925   C934    1.399   .     A
C926   C930    1.391   .     A
C926   C933    1.398   .     A
C926   H942    1.082   .     S
C927   N957    1.439   .     S
C927   C931    1.422   .     A
C928   C932    1.417   .     A
C928   N960    1.435   .     S
C929   N963    1.439   .     S
C929   C932    1.422   .     A
C930   N966    1.435   .     S
C930   C931    1.417   .     A
C934   C303    1.478   1_556 S
Cu937  N943    2.023   .     S
Cu937  O947    1.992   .     S
Cu937  O949    1.976   .     S
Cu937  Cu938   2.692   .     S
Cu937  O945    1.992   .     S
Cu937  O951    1.976   .     S
Cu938  O948    1.992   .     S
Cu938  O952    1.976   .     S
Cu938  N944    2.023   .     S
Cu938  O946    1.992   .     S
Cu938  O950    1.976   .     S
N957   H958    1.046   .     S
N957   H959    1.046   .     S
N960   H962    1.046   .     S
N960   H961    1.046   .     S
N963   H965    1.046   .     S
N963   H964    1.046   .     S
N966   H968    1.046   .     S
N966   H967    1.046   .     S
N969   H970    1.044   .     S
N969   H971    1.045   .     S
N972   H973    1.044   .     S
N972   H974    1.045   .     S
N975   H976    1.045   .     S
N975   H977    1.044   .     S
N978   H980    1.044   .     S
N978   H979    1.045   .     S
C981   O1018   1.301   .     A
C981   C1006   1.474   .     S
C981   O1015   1.300   .     A
C982   C1005   1.474   .     S
C982   O1017   1.300   .     A
C982   O1016   1.301   .     A
C983   O1022   1.304   .     A
C983   O1019   1.303   .     A
C983   C1001   1.485   .     S
C984   C1002   1.485   .     S
C984   O1021   1.303   .     A
C984   O1020   1.304   .     A
C985   N1014   1.375   .     A
C985   Br1023  1.923   .     S
C986   N1013   1.374   .     A
C986   Br1024  1.927   .     S
C986   C1197   1.420   .     S
C987   Br1025  1.923   .     S
C987   N1014   1.375   .     A
C988   Br1026  1.927   .     S
C988   N1013   1.374   .     A
C988   C1195   1.420   .     S
C989   C1006   1.413   .     A
C989   N1039   1.437   .     S
C990   C1005   1.415   .     A
C990   N1042   1.437   .     S
C990   C852    1.400   1_655 S
C991   C1005   1.413   .     A
C991   N1045   1.437   .     S
C991   C849    1.399   1_655 S
C992   N1048   1.437   .     S
C992   C1006   1.415   .     A
C993   C997    1.402   .     A
C993   C1003   1.399   .     A
C993   H1009   1.083   .     S
C994   C998    1.391   .     A
C994   C1004   1.398   .     A
C994   H1010   1.082   .     S
C995   H1011   1.083   .     S
C995   C999    1.402   .     A
C995   C1004   1.399   .     A
C996   C1000   1.391   .     A
C996   C1003   1.398   .     A
C996   H1012   1.082   .     S
C997   N1027   1.439   .     S
C997   C1001   1.422   .     A
C998   C1002   1.417   .     A
C998   N1030   1.435   .     S
C999   N1033   1.439   .     S
C999   C1002   1.422   .     A
C1000  N1036   1.435   .     S
C1000  C1001   1.417   .     A
C1004  C373    1.478   1_556 S
Cu1007 N1013   2.023   .     S
Cu1007 O1017   1.992   .     S
Cu1007 O1019   1.976   .     S
Cu1007 Cu1008  2.692   .     S
Cu1007 O1015   1.992   .     S
Cu1007 O1021   1.976   .     S
Cu1008 O1018   1.992   .     S
Cu1008 O1022   1.976   .     S
Cu1008 N1014   2.023   .     S
Cu1008 O1016   1.992   .     S
Cu1008 O1020   1.976   .     S
N1027  H1028   1.046   .     S
N1027  H1029   1.046   .     S
N1030  H1032   1.046   .     S
N1030  H1031   1.046   .     S
N1033  H1035   1.046   .     S
N1033  H1034   1.046   .     S
N1036  H1038   1.046   .     S
N1036  H1037   1.046   .     S
N1039  H1040   1.044   .     S
N1039  H1041   1.045   .     S
N1042  H1043   1.044   .     S
N1042  H1044   1.045   .     S
N1045  H1046   1.045   .     S
N1045  H1047   1.044   .     S
N1048  H1050   1.044   .     S
N1048  H1049   1.045   .     S
C1051  O1088   1.301   .     A
C1051  C1076   1.474   .     S
C1051  O1085   1.300   .     A
C1052  C1075   1.474   .     S
C1052  O1087   1.300   .     A
C1052  O1086   1.301   .     A
C1053  O1092   1.304   .     A
C1053  O1089   1.303   .     A
C1053  C1071   1.485   .     S
C1054  C1072   1.485   .     S
C1054  O1091   1.303   .     A
C1054  O1090   1.304   .     A
C1055  N1084   1.375   .     A
C1055  Br1093  1.923   .     S
C1056  N1083   1.374   .     A
C1056  Br1094  1.927   .     S
C1056  C637    1.420   1_565 S
C1057  Br1095  1.923   .     S
C1057  N1084   1.375   .     A
C1058  Br1096  1.927   .     S
C1058  N1083   1.374   .     A
C1058  C635    1.420   1_565 S
C1059  C1076   1.413   .     A
C1059  N1109   1.437   .     S
C1059  C1201   1.399   1_455 S
C1060  C1075   1.415   .     A
C1060  N1112   1.437   .     S
C1060  C1132   1.400   .     S
C1061  C1075   1.413   .     A
C1061  N1115   1.437   .     S
C1061  C1129   1.399   .     S
C1062  N1118   1.437   .     S
C1062  C1076   1.415   .     A
C1062  C1200   1.400   1_455 S
C1063  C1067   1.402   .     A
C1063  C1073   1.399   .     A
C1063  H1079   1.083   .     S
C1064  C1068   1.391   .     A
C1064  C1074   1.398   .     A
C1064  H1080   1.082   .     S
C1065  H1081   1.083   .     S
C1065  C1069   1.402   .     A
C1065  C1074   1.399   .     A
C1066  C1070   1.391   .     A
C1066  C1073   1.398   .     A
C1066  H1082   1.082   .     S
C1067  N1097   1.439   .     S
C1067  C1071   1.422   .     A
C1068  C1072   1.417   .     A
C1068  N1100   1.435   .     S
C1069  N1103   1.439   .     S
C1069  C1072   1.422   .     A
C1070  N1106   1.435   .     S
C1070  C1071   1.417   .     A
C1074  C443    1.478   1_556 S
Cu1077 N1083   2.023   .     S
Cu1077 O1087   1.992   .     S
Cu1077 O1089   1.976   .     S
Cu1077 Cu1078  2.692   .     S
Cu1077 O1085   1.992   .     S
Cu1077 O1091   1.976   .     S
Cu1078 O1088   1.992   .     S
Cu1078 O1092   1.976   .     S
Cu1078 N1084   2.023   .     S
Cu1078 O1086   1.992   .     S
Cu1078 O1090   1.976   .     S
N1097  H1098   1.046   .     S
N1097  H1099   1.046   .     S
N1100  H1102   1.046   .     S
N1100  H1101   1.046   .     S
N1103  H1105   1.046   .     S
N1103  H1104   1.046   .     S
N1106  H1108   1.046   .     S
N1106  H1107   1.046   .     S
N1109  H1110   1.044   .     S
N1109  H1111   1.045   .     S
N1112  H1113   1.044   .     S
N1112  H1114   1.045   .     S
N1115  H1116   1.045   .     S
N1115  H1117   1.044   .     S
N1118  H1120   1.044   .     S
N1118  H1119   1.045   .     S
C1121  O1158   1.301   .     A
C1121  C1146   1.474   .     S
C1121  O1155   1.300   .     A
C1122  C1145   1.474   .     S
C1122  O1157   1.300   .     A
C1122  O1156   1.301   .     A
C1123  O1162   1.304   .     A
C1123  O1159   1.303   .     A
C1123  C1141   1.485   .     S
C1124  C1142   1.485   .     S
C1124  O1161   1.303   .     A
C1124  O1160   1.304   .     A
C1125  N1154   1.375   .     A
C1125  Br1163  1.923   .     S
C1126  N1153   1.374   .     A
C1126  Br1164  1.927   .     S
C1126  C707    1.420   1_565 S
C1127  Br1165  1.923   .     S
C1127  N1154   1.375   .     A
C1128  Br1166  1.927   .     S
C1128  N1153   1.374   .     A
C1128  C705    1.420   1_565 S
C1129  C1146   1.413   .     A
C1129  N1179   1.437   .     S
C1130  C1145   1.415   .     A
C1130  N1182   1.437   .     S
C1130  C1202   1.400   .     S
C1131  C1145   1.413   .     A
C1131  N1185   1.437   .     S
C1131  C1199   1.399   .     S
C1132  N1188   1.437   .     S
C1132  C1146   1.415   .     A
C1133  C1137   1.402   .     A
C1133  C1143   1.399   .     A
C1133  H1149   1.083   .     S
C1134  C1138   1.391   .     A
C1134  C1144   1.398   .     A
C1134  H1150   1.082   .     S
C1135  H1151   1.083   .     S
C1135  C1139   1.402   .     A
C1135  C1144   1.399   .     A
C1136  C1140   1.391   .     A
C1136  C1143   1.398   .     A
C1136  H1152   1.082   .     S
C1137  N1167   1.439   .     S
C1137  C1141   1.422   .     A
C1138  C1142   1.417   .     A
C1138  N1170   1.435   .     S
C1139  N1173   1.439   .     S
C1139  C1142   1.422   .     A
C1140  N1176   1.435   .     S
C1140  C1141   1.417   .     A
C1144  C513    1.478   1_556 S
Cu1147 N1153   2.023   .     S
Cu1147 O1157   1.992   .     S
Cu1147 O1159   1.976   .     S
Cu1147 Cu1148  2.692   .     S
Cu1147 O1155   1.992   .     S
Cu1147 O1161   1.976   .     S
Cu1148 O1158   1.992   .     S
Cu1148 O1162   1.976   .     S
Cu1148 N1154   2.023   .     S
Cu1148 O1156   1.992   .     S
Cu1148 O1160   1.976   .     S
N1167  H1168   1.046   .     S
N1167  H1169   1.046   .     S
N1170  H1172   1.046   .     S
N1170  H1171   1.046   .     S
N1173  H1175   1.046   .     S
N1173  H1174   1.046   .     S
N1176  H1178   1.046   .     S
N1176  H1177   1.046   .     S
N1179  H1180   1.044   .     S
N1179  H1181   1.045   .     S
N1182  H1183   1.044   .     S
N1182  H1184   1.045   .     S
N1185  H1186   1.045   .     S
N1185  H1187   1.044   .     S
N1188  H1190   1.044   .     S
N1188  H1189   1.045   .     S
C1191  O1228   1.301   .     A
C1191  C1216   1.474   .     S
C1191  O1225   1.300   .     A
C1192  C1215   1.474   .     S
C1192  O1227   1.300   .     A
C1192  O1226   1.301   .     A
C1193  O1232   1.304   .     A
C1193  O1229   1.303   .     A
C1193  C1211   1.485   .     S
C1194  C1212   1.485   .     S
C1194  O1231   1.303   .     A
C1194  O1230   1.304   .     A
C1195  N1224   1.375   .     A
C1195  Br1233  1.923   .     S
C1196  N1223   1.374   .     A
C1196  Br1234  1.927   .     S
C1196  C777    1.420   1_565 S
C1197  Br1235  1.923   .     S
C1197  N1224   1.375   .     A
C1198  Br1236  1.927   .     S
C1198  N1223   1.374   .     A
C1198  C775    1.420   1_565 S
C1199  C1216   1.413   .     A
C1199  N1249   1.437   .     S
C1200  C1215   1.415   .     A
C1200  N1252   1.437   .     S
C1200  C1062   1.400   1_655 S
C1201  C1215   1.413   .     A
C1201  N1255   1.437   .     S
C1201  C1059   1.399   1_655 S
C1202  N1258   1.437   .     S
C1202  C1216   1.415   .     A
C1203  C1207   1.402   .     A
C1203  C1213   1.399   .     A
C1203  H1219   1.083   .     S
C1204  C1208   1.391   .     A
C1204  C1214   1.398   .     A
C1204  H1220   1.082   .     S
C1205  H1221   1.083   .     S
C1205  C1209   1.402   .     A
C1205  C1214   1.399   .     A
C1206  C1210   1.391   .     A
C1206  C1213   1.398   .     A
C1206  H1222   1.082   .     S
C1207  N1237   1.439   .     S
C1207  C1211   1.422   .     A
C1208  C1212   1.417   .     A
C1208  N1240   1.435   .     S
C1209  N1243   1.439   .     S
C1209  C1212   1.422   .     A
C1210  N1246   1.435   .     S
C1210  C1211   1.417   .     A
C1214  C583    1.478   1_556 S
Cu1217 N1223   2.023   .     S
Cu1217 O1227   1.992   .     S
Cu1217 O1229   1.976   .     S
Cu1217 Cu1218  2.692   .     S
Cu1217 O1225   1.992   .     S
Cu1217 O1231   1.976   .     S
Cu1218 O1228   1.992   .     S
Cu1218 O1232   1.976   .     S
Cu1218 N1224   2.023   .     S
Cu1218 O1226   1.992   .     S
Cu1218 O1230   1.976   .     S
N1237  H1238   1.046   .     S
N1237  H1239   1.046   .     S
N1240  H1242   1.046   .     S
N1240  H1241   1.046   .     S
N1243  H1245   1.046   .     S
N1243  H1244   1.046   .     S
N1246  H1248   1.046   .     S
N1246  H1247   1.046   .     S
N1249  H1250   1.044   .     S
N1249  H1251   1.045   .     S
N1252  H1253   1.044   .     S
N1252  H1254   1.045   .     S
N1255  H1256   1.045   .     S
N1255  H1257   1.044   .     S
N1258  H1260   1.044   .     S
N1258  H1259   1.045   .     S
