data_str_m2_o5_o17_pcu_sym.11
_audit_creation_date              2020-01-03
_audit_creation_method            'Materials Studio'
_symmetry_space_group_name_H-M    'P1'
_symmetry_Int_Tables_number       1
_symmetry_cell_setting            triclinic
loop_
_symmetry_equiv_pos_as_xyz
  x,y,z
_cell_length_a                    30.2194
_cell_length_b                    27.2813
_cell_length_c                    23.3649
_cell_angle_alpha                 89.9690
_cell_angle_beta                  90.2782
_cell_angle_gamma                 90.0075
loop_
_atom_site_label
_atom_site_type_symbol
_atom_site_fract_x
_atom_site_fract_y
_atom_site_fract_z
_atom_site_U_iso_or_equiv
_atom_site_adp_type
_atom_site_occupancy
O1     O     0.25000   0.09613   0.21425   0.00000  Uiso   1.00
O2     O     0.25000   0.23720   0.11908   0.00000  Uiso   1.00
O3     O     0.25000   0.23720   0.21425   0.00000  Uiso   1.00
O4     O     0.25000   0.09613   0.11908   0.00000  Uiso   1.00
H5     H     0.46008   0.08465   0.05756   0.00000  Uiso   1.00
H6     H     0.03992   0.24868   0.27577   0.00000  Uiso   1.00
H7     H     0.46072   0.24649   0.27790   0.00000  Uiso   1.00
H8     H     0.03928   0.08684   0.05543   0.00000  Uiso   1.00
C9     C     0.25000   0.07335   0.16667   0.00000  Uiso   1.00
C10    C     0.25000   0.25999   0.16666   0.00000  Uiso   1.00
O11    O     0.18513   0.16667   0.21427   0.00000  Uiso   1.00
O12    O     0.31487   0.16667   0.11907   0.00000  Uiso   1.00
O13    O     0.31487   0.16667   0.21427   0.00000  Uiso   1.00
O14    O     0.18513   0.16667   0.11907   0.00000  Uiso   1.00
C15    C     0.16426   0.16735   0.16650   0.00000  Uiso   1.00
C16    C     0.33574   0.16598   0.16683   0.00000  Uiso   1.00
Cu17   Cu    0.25000   0.16667   0.22303   0.00000  Uiso   1.00
Cu18   Cu    0.25000   0.16667   0.11031   0.00000  Uiso   1.00
N19    N     0.25000   0.16667   0.02561   0.00000  Uiso   1.00
N20    N     0.25000   0.16667   0.30773   0.00000  Uiso   1.00
C21    C     0.40666   0.19713   0.20412   0.00000  Uiso   1.00
C22    C     0.09334   0.13621   0.12921   0.00000  Uiso   1.00
C23    C     0.40720   0.13348   0.12989   0.00000  Uiso   1.00
C24    C     0.09280   0.19986   0.20344   0.00000  Uiso   1.00
C25    C     0.38398   0.16479   0.16746   0.00000  Uiso   1.00
C26    C     0.11602   0.16854   0.16588   0.00000  Uiso   1.00
C27    C     0.45344   0.13601   0.12799   0.00000  Uiso   1.00
C28    C     0.04656   0.19733   0.20534   0.00000  Uiso   1.00
C29    C     0.45329   0.19667   0.20554   0.00000  Uiso   1.00
C30    C     0.04671   0.13666   0.12779   0.00000  Uiso   1.00
C31    C     0.47663   0.16658   0.16666   0.00000  Uiso   1.00
C32    C     0.02337   0.16676   0.16667   0.00000  Uiso   1.00
C33    C     0.47701   0.10758   0.08853   0.00000  Uiso   1.00
C34    C     0.02299   0.22575   0.24480   0.00000  Uiso   1.00
C35    C     0.47709   0.22497   0.24541   0.00000  Uiso   1.00
C36    C     0.02291   0.10836   0.08792   0.00000  Uiso   1.00
C37    C     0.25000   0.02179   0.16668   0.00000  Uiso   1.00
C38    C     0.25000   0.31154   0.16666   0.00000  Uiso   1.00
O39    O     0.38219   0.22921   0.23707   0.00000  Uiso   1.00
H40    H     0.39760   0.26124   0.23785   0.00000  Uiso   1.00
O41    O     0.11781   0.10412   0.09627   0.00000  Uiso   1.00
H42    H     0.10240   0.07209   0.09549   0.00000  Uiso   1.00
O43    O     0.38582   0.09981   0.09511   0.00000  Uiso   1.00
H44    H     0.35765   0.08988   0.11317   0.00000  Uiso   1.00
O45    O     0.11418   0.23352   0.23823   0.00000  Uiso   1.00
H46    H     0.14236   0.24345   0.22016   0.00000  Uiso   1.00
O47    O     0.75000   0.09613   0.21425   0.00000  Uiso   1.00
O48    O     0.75000   0.23720   0.11908   0.00000  Uiso   1.00
O49    O     0.75000   0.23720   0.21425   0.00000  Uiso   1.00
O50    O     0.75000   0.09613   0.11908   0.00000  Uiso   1.00
H51    H     0.96008   0.08465   0.05756   0.00000  Uiso   1.00
H52    H     0.53992   0.24868   0.27577   0.00000  Uiso   1.00
H53    H     0.96072   0.24649   0.27790   0.00000  Uiso   1.00
H54    H     0.53928   0.08684   0.05543   0.00000  Uiso   1.00
C55    C     0.75000   0.07335   0.16667   0.00000  Uiso   1.00
C56    C     0.75000   0.25999   0.16666   0.00000  Uiso   1.00
O57    O     0.68513   0.16667   0.21427   0.00000  Uiso   1.00
O58    O     0.81487   0.16667   0.11907   0.00000  Uiso   1.00
O59    O     0.81487   0.16667   0.21427   0.00000  Uiso   1.00
O60    O     0.68513   0.16667   0.11907   0.00000  Uiso   1.00
C61    C     0.66426   0.16735   0.16650   0.00000  Uiso   1.00
C62    C     0.83574   0.16598   0.16683   0.00000  Uiso   1.00
Cu63   Cu    0.75000   0.16667   0.22303   0.00000  Uiso   1.00
Cu64   Cu    0.75000   0.16667   0.11031   0.00000  Uiso   1.00
N65    N     0.75000   0.16667   0.02561   0.00000  Uiso   1.00
N66    N     0.75000   0.16667   0.30773   0.00000  Uiso   1.00
C67    C     0.90666   0.19713   0.20412   0.00000  Uiso   1.00
C68    C     0.59334   0.13621   0.12921   0.00000  Uiso   1.00
C69    C     0.90720   0.13348   0.12989   0.00000  Uiso   1.00
C70    C     0.59280   0.19986   0.20344   0.00000  Uiso   1.00
C71    C     0.88398   0.16479   0.16746   0.00000  Uiso   1.00
C72    C     0.61602   0.16854   0.16588   0.00000  Uiso   1.00
C73    C     0.95344   0.13601   0.12799   0.00000  Uiso   1.00
C74    C     0.54656   0.19733   0.20534   0.00000  Uiso   1.00
C75    C     0.95329   0.19667   0.20554   0.00000  Uiso   1.00
C76    C     0.54671   0.13666   0.12779   0.00000  Uiso   1.00
C77    C     0.97663   0.16658   0.16666   0.00000  Uiso   1.00
C78    C     0.52337   0.16676   0.16667   0.00000  Uiso   1.00
C79    C     0.97701   0.10758   0.08853   0.00000  Uiso   1.00
C80    C     0.52299   0.22575   0.24480   0.00000  Uiso   1.00
C81    C     0.97709   0.22497   0.24541   0.00000  Uiso   1.00
C82    C     0.52291   0.10836   0.08792   0.00000  Uiso   1.00
C83    C     0.75000   0.02179   0.16668   0.00000  Uiso   1.00
C84    C     0.75000   0.31154   0.16666   0.00000  Uiso   1.00
O85    O     0.88219   0.22921   0.23707   0.00000  Uiso   1.00
H86    H     0.89760   0.26124   0.23785   0.00000  Uiso   1.00
O87    O     0.61781   0.10412   0.09627   0.00000  Uiso   1.00
H88    H     0.60240   0.07209   0.09549   0.00000  Uiso   1.00
O89    O     0.88582   0.09981   0.09511   0.00000  Uiso   1.00
H90    H     0.85765   0.08988   0.11317   0.00000  Uiso   1.00
O91    O     0.61418   0.23352   0.23823   0.00000  Uiso   1.00
H92    H     0.64236   0.24345   0.22016   0.00000  Uiso   1.00
O93    O     0.25000   0.42946   0.21425   0.00000  Uiso   1.00
O94    O     0.25000   0.57054   0.11908   0.00000  Uiso   1.00
O95    O     0.25000   0.57054   0.21425   0.00000  Uiso   1.00
O96    O     0.25000   0.42946   0.11908   0.00000  Uiso   1.00
H97    H     0.46008   0.41798   0.05756   0.00000  Uiso   1.00
H98    H     0.03992   0.58202   0.27577   0.00000  Uiso   1.00
H99    H     0.46072   0.57983   0.27790   0.00000  Uiso   1.00
H100   H     0.03928   0.42017   0.05543   0.00000  Uiso   1.00
C101   C     0.25000   0.40668   0.16667   0.00000  Uiso   1.00
C102   C     0.25000   0.59332   0.16666   0.00000  Uiso   1.00
O103   O     0.18513   0.50000   0.21427   0.00000  Uiso   1.00
O104   O     0.31487   0.50000   0.11907   0.00000  Uiso   1.00
O105   O     0.31487   0.50000   0.21427   0.00000  Uiso   1.00
O106   O     0.18513   0.50000   0.11907   0.00000  Uiso   1.00
C107   C     0.16426   0.50069   0.16650   0.00000  Uiso   1.00
C108   C     0.33574   0.49931   0.16683   0.00000  Uiso   1.00
Cu109  Cu    0.25000   0.50000   0.22303   0.00000  Uiso   1.00
Cu110  Cu    0.25000   0.50000   0.11031   0.00000  Uiso   1.00
N111   N     0.25000   0.50000   0.02561   0.00000  Uiso   1.00
N112   N     0.25000   0.50000   0.30773   0.00000  Uiso   1.00
C113   C     0.40666   0.53046   0.20412   0.00000  Uiso   1.00
C114   C     0.09334   0.46954   0.12921   0.00000  Uiso   1.00
C115   C     0.40720   0.46681   0.12989   0.00000  Uiso   1.00
C116   C     0.09280   0.53319   0.20344   0.00000  Uiso   1.00
C117   C     0.38398   0.49812   0.16746   0.00000  Uiso   1.00
C118   C     0.11602   0.50188   0.16588   0.00000  Uiso   1.00
C119   C     0.45344   0.46934   0.12799   0.00000  Uiso   1.00
C120   C     0.04656   0.53066   0.20534   0.00000  Uiso   1.00
C121   C     0.45329   0.53001   0.20554   0.00000  Uiso   1.00
C122   C     0.04671   0.46999   0.12779   0.00000  Uiso   1.00
C123   C     0.47663   0.49991   0.16666   0.00000  Uiso   1.00
C124   C     0.02337   0.50009   0.16667   0.00000  Uiso   1.00
C125   C     0.47701   0.44092   0.08853   0.00000  Uiso   1.00
C126   C     0.02299   0.55908   0.24480   0.00000  Uiso   1.00
C127   C     0.47709   0.55831   0.24541   0.00000  Uiso   1.00
C128   C     0.02291   0.44169   0.08792   0.00000  Uiso   1.00
C129   C     0.25000   0.35513   0.16668   0.00000  Uiso   1.00
C130   C     0.25000   0.64488   0.16666   0.00000  Uiso   1.00
O131   O     0.38219   0.56255   0.23707   0.00000  Uiso   1.00
H132   H     0.39760   0.59457   0.23785   0.00000  Uiso   1.00
O133   O     0.11781   0.43745   0.09627   0.00000  Uiso   1.00
H134   H     0.10240   0.40543   0.09549   0.00000  Uiso   1.00
O135   O     0.38582   0.43315   0.09511   0.00000  Uiso   1.00
H136   H     0.35765   0.42321   0.11317   0.00000  Uiso   1.00
O137   O     0.11418   0.56685   0.23823   0.00000  Uiso   1.00
H138   H     0.14236   0.57679   0.22016   0.00000  Uiso   1.00
O139   O     0.75000   0.42946   0.21425   0.00000  Uiso   1.00
O140   O     0.75000   0.57054   0.11908   0.00000  Uiso   1.00
O141   O     0.75000   0.57054   0.21425   0.00000  Uiso   1.00
O142   O     0.75000   0.42946   0.11908   0.00000  Uiso   1.00
H143   H     0.96008   0.41798   0.05756   0.00000  Uiso   1.00
H144   H     0.53992   0.58202   0.27577   0.00000  Uiso   1.00
H145   H     0.96072   0.57983   0.27790   0.00000  Uiso   1.00
H146   H     0.53928   0.42017   0.05543   0.00000  Uiso   1.00
C147   C     0.75000   0.40668   0.16667   0.00000  Uiso   1.00
C148   C     0.75000   0.59332   0.16666   0.00000  Uiso   1.00
O149   O     0.68513   0.50000   0.21427   0.00000  Uiso   1.00
O150   O     0.81487   0.50000   0.11907   0.00000  Uiso   1.00
O151   O     0.81487   0.50000   0.21427   0.00000  Uiso   1.00
O152   O     0.68513   0.50000   0.11907   0.00000  Uiso   1.00
C153   C     0.66426   0.50069   0.16650   0.00000  Uiso   1.00
C154   C     0.83574   0.49931   0.16683   0.00000  Uiso   1.00
Cu155  Cu    0.75000   0.50000   0.22303   0.00000  Uiso   1.00
Cu156  Cu    0.75000   0.50000   0.11031   0.00000  Uiso   1.00
N157   N     0.75000   0.50000   0.02561   0.00000  Uiso   1.00
N158   N     0.75000   0.50000   0.30773   0.00000  Uiso   1.00
C159   C     0.90666   0.53046   0.20412   0.00000  Uiso   1.00
C160   C     0.59334   0.46954   0.12921   0.00000  Uiso   1.00
C161   C     0.90720   0.46681   0.12989   0.00000  Uiso   1.00
C162   C     0.59280   0.53319   0.20344   0.00000  Uiso   1.00
C163   C     0.88398   0.49812   0.16746   0.00000  Uiso   1.00
C164   C     0.61602   0.50188   0.16588   0.00000  Uiso   1.00
C165   C     0.95344   0.46934   0.12799   0.00000  Uiso   1.00
C166   C     0.54656   0.53066   0.20534   0.00000  Uiso   1.00
C167   C     0.95329   0.53001   0.20554   0.00000  Uiso   1.00
C168   C     0.54671   0.46999   0.12779   0.00000  Uiso   1.00
C169   C     0.97663   0.49991   0.16666   0.00000  Uiso   1.00
C170   C     0.52337   0.50009   0.16667   0.00000  Uiso   1.00
C171   C     0.97701   0.44092   0.08853   0.00000  Uiso   1.00
C172   C     0.52299   0.55908   0.24480   0.00000  Uiso   1.00
C173   C     0.97709   0.55831   0.24541   0.00000  Uiso   1.00
C174   C     0.52291   0.44169   0.08792   0.00000  Uiso   1.00
C175   C     0.75000   0.35513   0.16668   0.00000  Uiso   1.00
C176   C     0.75000   0.64488   0.16666   0.00000  Uiso   1.00
O177   O     0.88219   0.56255   0.23707   0.00000  Uiso   1.00
H178   H     0.89760   0.59457   0.23785   0.00000  Uiso   1.00
O179   O     0.61781   0.43745   0.09627   0.00000  Uiso   1.00
H180   H     0.60240   0.40543   0.09549   0.00000  Uiso   1.00
O181   O     0.88582   0.43315   0.09511   0.00000  Uiso   1.00
H182   H     0.85765   0.42321   0.11317   0.00000  Uiso   1.00
O183   O     0.61418   0.56685   0.23823   0.00000  Uiso   1.00
H184   H     0.64236   0.57679   0.22016   0.00000  Uiso   1.00
O185   O     0.25000   0.76280   0.21425   0.00000  Uiso   1.00
O186   O     0.25000   0.90387   0.11908   0.00000  Uiso   1.00
O187   O     0.25000   0.90387   0.21425   0.00000  Uiso   1.00
O188   O     0.25000   0.76280   0.11908   0.00000  Uiso   1.00
H189   H     0.46008   0.75132   0.05756   0.00000  Uiso   1.00
H190   H     0.03992   0.91535   0.27577   0.00000  Uiso   1.00
H191   H     0.46072   0.91316   0.27790   0.00000  Uiso   1.00
H192   H     0.03928   0.75351   0.05543   0.00000  Uiso   1.00
C193   C     0.25000   0.74001   0.16667   0.00000  Uiso   1.00
C194   C     0.25000   0.92665   0.16666   0.00000  Uiso   1.00
O195   O     0.18513   0.83333   0.21427   0.00000  Uiso   1.00
O196   O     0.31487   0.83333   0.11907   0.00000  Uiso   1.00
O197   O     0.31487   0.83333   0.21427   0.00000  Uiso   1.00
O198   O     0.18513   0.83333   0.11907   0.00000  Uiso   1.00
C199   C     0.16426   0.83402   0.16650   0.00000  Uiso   1.00
C200   C     0.33574   0.83265   0.16683   0.00000  Uiso   1.00
Cu201  Cu    0.25000   0.83333   0.22303   0.00000  Uiso   1.00
Cu202  Cu    0.25000   0.83333   0.11031   0.00000  Uiso   1.00
N203   N     0.25000   0.83333   0.02561   0.00000  Uiso   1.00
N204   N     0.25000   0.83333   0.30773   0.00000  Uiso   1.00
C205   C     0.40666   0.86379   0.20412   0.00000  Uiso   1.00
C206   C     0.09334   0.80288   0.12921   0.00000  Uiso   1.00
C207   C     0.40720   0.80015   0.12989   0.00000  Uiso   1.00
C208   C     0.09280   0.86652   0.20344   0.00000  Uiso   1.00
C209   C     0.38398   0.83146   0.16746   0.00000  Uiso   1.00
C210   C     0.11602   0.83521   0.16588   0.00000  Uiso   1.00
C211   C     0.45344   0.80267   0.12799   0.00000  Uiso   1.00
C212   C     0.04656   0.86399   0.20534   0.00000  Uiso   1.00
C213   C     0.45329   0.86334   0.20554   0.00000  Uiso   1.00
C214   C     0.04671   0.80333   0.12779   0.00000  Uiso   1.00
C215   C     0.47663   0.83324   0.16666   0.00000  Uiso   1.00
C216   C     0.02337   0.83342   0.16667   0.00000  Uiso   1.00
C217   C     0.47701   0.77425   0.08853   0.00000  Uiso   1.00
C218   C     0.02299   0.89242   0.24480   0.00000  Uiso   1.00
C219   C     0.47709   0.89164   0.24541   0.00000  Uiso   1.00
C220   C     0.02291   0.77503   0.08792   0.00000  Uiso   1.00
C221   C     0.25000   0.68846   0.16668   0.00000  Uiso   1.00
C222   C     0.25000   0.97821   0.16666   0.00000  Uiso   1.00
O223   O     0.38219   0.89588   0.23707   0.00000  Uiso   1.00
H224   H     0.39760   0.92791   0.23785   0.00000  Uiso   1.00
O225   O     0.11781   0.77079   0.09627   0.00000  Uiso   1.00
H226   H     0.10240   0.73876   0.09549   0.00000  Uiso   1.00
O227   O     0.38582   0.76648   0.09511   0.00000  Uiso   1.00
H228   H     0.35765   0.75655   0.11317   0.00000  Uiso   1.00
O229   O     0.11418   0.90019   0.23823   0.00000  Uiso   1.00
H230   H     0.14236   0.91012   0.22016   0.00000  Uiso   1.00
O231   O     0.75000   0.76280   0.21425   0.00000  Uiso   1.00
O232   O     0.75000   0.90387   0.11908   0.00000  Uiso   1.00
O233   O     0.75000   0.90387   0.21425   0.00000  Uiso   1.00
O234   O     0.75000   0.76280   0.11908   0.00000  Uiso   1.00
H235   H     0.96008   0.75132   0.05756   0.00000  Uiso   1.00
H236   H     0.53992   0.91535   0.27577   0.00000  Uiso   1.00
H237   H     0.96072   0.91316   0.27790   0.00000  Uiso   1.00
H238   H     0.53928   0.75351   0.05543   0.00000  Uiso   1.00
C239   C     0.75000   0.74001   0.16667   0.00000  Uiso   1.00
C240   C     0.75000   0.92665   0.16666   0.00000  Uiso   1.00
O241   O     0.68513   0.83333   0.21427   0.00000  Uiso   1.00
O242   O     0.81487   0.83333   0.11907   0.00000  Uiso   1.00
O243   O     0.81487   0.83333   0.21427   0.00000  Uiso   1.00
O244   O     0.68513   0.83333   0.11907   0.00000  Uiso   1.00
C245   C     0.66426   0.83402   0.16650   0.00000  Uiso   1.00
C246   C     0.83574   0.83265   0.16683   0.00000  Uiso   1.00
Cu247  Cu    0.75000   0.83333   0.22303   0.00000  Uiso   1.00
Cu248  Cu    0.75000   0.83333   0.11031   0.00000  Uiso   1.00
N249   N     0.75000   0.83333   0.02561   0.00000  Uiso   1.00
N250   N     0.75000   0.83333   0.30773   0.00000  Uiso   1.00
C251   C     0.90666   0.86379   0.20412   0.00000  Uiso   1.00
C252   C     0.59334   0.80288   0.12921   0.00000  Uiso   1.00
C253   C     0.90720   0.80015   0.12989   0.00000  Uiso   1.00
C254   C     0.59280   0.86652   0.20344   0.00000  Uiso   1.00
C255   C     0.88398   0.83146   0.16746   0.00000  Uiso   1.00
C256   C     0.61602   0.83521   0.16588   0.00000  Uiso   1.00
C257   C     0.95344   0.80267   0.12799   0.00000  Uiso   1.00
C258   C     0.54656   0.86399   0.20534   0.00000  Uiso   1.00
C259   C     0.95329   0.86334   0.20554   0.00000  Uiso   1.00
C260   C     0.54671   0.80333   0.12779   0.00000  Uiso   1.00
C261   C     0.97663   0.83324   0.16666   0.00000  Uiso   1.00
C262   C     0.52337   0.83342   0.16667   0.00000  Uiso   1.00
C263   C     0.97701   0.77425   0.08853   0.00000  Uiso   1.00
C264   C     0.52299   0.89242   0.24480   0.00000  Uiso   1.00
C265   C     0.97709   0.89164   0.24541   0.00000  Uiso   1.00
C266   C     0.52291   0.77503   0.08792   0.00000  Uiso   1.00
C267   C     0.75000   0.68846   0.16668   0.00000  Uiso   1.00
C268   C     0.75000   0.97821   0.16666   0.00000  Uiso   1.00
O269   O     0.88219   0.89588   0.23707   0.00000  Uiso   1.00
H270   H     0.89760   0.92791   0.23785   0.00000  Uiso   1.00
O271   O     0.61781   0.77079   0.09627   0.00000  Uiso   1.00
H272   H     0.60240   0.73876   0.09549   0.00000  Uiso   1.00
O273   O     0.88582   0.76648   0.09511   0.00000  Uiso   1.00
H274   H     0.85765   0.75655   0.11317   0.00000  Uiso   1.00
O275   O     0.61418   0.90019   0.23823   0.00000  Uiso   1.00
H276   H     0.64236   0.91012   0.22016   0.00000  Uiso   1.00
O277   O     0.25000   0.09613   0.54759   0.00000  Uiso   1.00
O278   O     0.25000   0.23720   0.45241   0.00000  Uiso   1.00
O279   O     0.25000   0.23720   0.54759   0.00000  Uiso   1.00
O280   O     0.25000   0.09613   0.45241   0.00000  Uiso   1.00
H281   H     0.46008   0.08465   0.39089   0.00000  Uiso   1.00
H282   H     0.03992   0.24868   0.60911   0.00000  Uiso   1.00
H283   H     0.46072   0.24649   0.61124   0.00000  Uiso   1.00
H284   H     0.03928   0.08684   0.38876   0.00000  Uiso   1.00
C285   C     0.25000   0.07335   0.50001   0.00000  Uiso   1.00
C286   C     0.25000   0.25999   0.49999   0.00000  Uiso   1.00
O287   O     0.18513   0.16667   0.54760   0.00000  Uiso   1.00
O288   O     0.31487   0.16667   0.45240   0.00000  Uiso   1.00
O289   O     0.31487   0.16667   0.54760   0.00000  Uiso   1.00
O290   O     0.18513   0.16667   0.45240   0.00000  Uiso   1.00
C291   C     0.16426   0.16735   0.49983   0.00000  Uiso   1.00
C292   C     0.33574   0.16598   0.50017   0.00000  Uiso   1.00
Cu293  Cu    0.25000   0.16667   0.55636   0.00000  Uiso   1.00
Cu294  Cu    0.25000   0.16667   0.44364   0.00000  Uiso   1.00
N295   N     0.25000   0.16667   0.35894   0.00000  Uiso   1.00
N296   N     0.25000   0.16667   0.64106   0.00000  Uiso   1.00
C297   C     0.40666   0.19713   0.53746   0.00000  Uiso   1.00
C298   C     0.09334   0.13621   0.46254   0.00000  Uiso   1.00
C299   C     0.40720   0.13348   0.46322   0.00000  Uiso   1.00
C300   C     0.09280   0.19986   0.53678   0.00000  Uiso   1.00
C301   C     0.38398   0.16479   0.50079   0.00000  Uiso   1.00
C302   C     0.11602   0.16854   0.49921   0.00000  Uiso   1.00
C303   C     0.45344   0.13601   0.46133   0.00000  Uiso   1.00
C304   C     0.04656   0.19733   0.53867   0.00000  Uiso   1.00
C305   C     0.45329   0.19667   0.53887   0.00000  Uiso   1.00
C306   C     0.04671   0.13666   0.46113   0.00000  Uiso   1.00
C307   C     0.47663   0.16658   0.49999   0.00000  Uiso   1.00
C308   C     0.02337   0.16676   0.50001   0.00000  Uiso   1.00
C309   C     0.47701   0.10758   0.42186   0.00000  Uiso   1.00
C310   C     0.02299   0.22575   0.57814   0.00000  Uiso   1.00
C311   C     0.47709   0.22497   0.57875   0.00000  Uiso   1.00
C312   C     0.02291   0.10836   0.42125   0.00000  Uiso   1.00
C313   C     0.25000   0.02179   0.50001   0.00000  Uiso   1.00
C314   C     0.25000   0.31154   0.49999   0.00000  Uiso   1.00
O315   O     0.38219   0.22921   0.57040   0.00000  Uiso   1.00
H316   H     0.39760   0.26124   0.57118   0.00000  Uiso   1.00
O317   O     0.11781   0.10412   0.42960   0.00000  Uiso   1.00
H318   H     0.10240   0.07209   0.42882   0.00000  Uiso   1.00
O319   O     0.38582   0.09981   0.42844   0.00000  Uiso   1.00
H320   H     0.35765   0.08988   0.44650   0.00000  Uiso   1.00
O321   O     0.11418   0.23352   0.57156   0.00000  Uiso   1.00
H322   H     0.14236   0.24345   0.55350   0.00000  Uiso   1.00
O323   O     0.75000   0.09613   0.54759   0.00000  Uiso   1.00
O324   O     0.75000   0.23720   0.45241   0.00000  Uiso   1.00
O325   O     0.75000   0.23720   0.54759   0.00000  Uiso   1.00
O326   O     0.75000   0.09613   0.45241   0.00000  Uiso   1.00
H327   H     0.96008   0.08465   0.39089   0.00000  Uiso   1.00
H328   H     0.53992   0.24868   0.60911   0.00000  Uiso   1.00
H329   H     0.96072   0.24649   0.61124   0.00000  Uiso   1.00
H330   H     0.53928   0.08684   0.38876   0.00000  Uiso   1.00
C331   C     0.75000   0.07335   0.50001   0.00000  Uiso   1.00
C332   C     0.75000   0.25999   0.49999   0.00000  Uiso   1.00
O333   O     0.68513   0.16667   0.54760   0.00000  Uiso   1.00
O334   O     0.81487   0.16667   0.45240   0.00000  Uiso   1.00
O335   O     0.81487   0.16667   0.54760   0.00000  Uiso   1.00
O336   O     0.68513   0.16667   0.45240   0.00000  Uiso   1.00
C337   C     0.66426   0.16735   0.49983   0.00000  Uiso   1.00
C338   C     0.83574   0.16598   0.50017   0.00000  Uiso   1.00
Cu339  Cu    0.75000   0.16667   0.55636   0.00000  Uiso   1.00
Cu340  Cu    0.75000   0.16667   0.44364   0.00000  Uiso   1.00
N341   N     0.75000   0.16667   0.35894   0.00000  Uiso   1.00
N342   N     0.75000   0.16667   0.64106   0.00000  Uiso   1.00
C343   C     0.90666   0.19713   0.53746   0.00000  Uiso   1.00
C344   C     0.59334   0.13621   0.46254   0.00000  Uiso   1.00
C345   C     0.90720   0.13348   0.46322   0.00000  Uiso   1.00
C346   C     0.59280   0.19986   0.53678   0.00000  Uiso   1.00
C347   C     0.88398   0.16479   0.50079   0.00000  Uiso   1.00
C348   C     0.61602   0.16854   0.49921   0.00000  Uiso   1.00
C349   C     0.95344   0.13601   0.46133   0.00000  Uiso   1.00
C350   C     0.54656   0.19733   0.53867   0.00000  Uiso   1.00
C351   C     0.95329   0.19667   0.53887   0.00000  Uiso   1.00
C352   C     0.54671   0.13666   0.46113   0.00000  Uiso   1.00
C353   C     0.97663   0.16658   0.49999   0.00000  Uiso   1.00
C354   C     0.52337   0.16676   0.50001   0.00000  Uiso   1.00
C355   C     0.97701   0.10758   0.42186   0.00000  Uiso   1.00
C356   C     0.52299   0.22575   0.57814   0.00000  Uiso   1.00
C357   C     0.97709   0.22497   0.57875   0.00000  Uiso   1.00
C358   C     0.52291   0.10836   0.42125   0.00000  Uiso   1.00
C359   C     0.75000   0.02179   0.50001   0.00000  Uiso   1.00
C360   C     0.75000   0.31154   0.49999   0.00000  Uiso   1.00
O361   O     0.88219   0.22921   0.57040   0.00000  Uiso   1.00
H362   H     0.89760   0.26124   0.57118   0.00000  Uiso   1.00
O363   O     0.61781   0.10412   0.42960   0.00000  Uiso   1.00
H364   H     0.60240   0.07209   0.42882   0.00000  Uiso   1.00
O365   O     0.88582   0.09981   0.42844   0.00000  Uiso   1.00
H366   H     0.85765   0.08988   0.44650   0.00000  Uiso   1.00
O367   O     0.61418   0.23352   0.57156   0.00000  Uiso   1.00
H368   H     0.64236   0.24345   0.55350   0.00000  Uiso   1.00
O369   O     0.25000   0.42946   0.54759   0.00000  Uiso   1.00
O370   O     0.25000   0.57054   0.45241   0.00000  Uiso   1.00
O371   O     0.25000   0.57054   0.54759   0.00000  Uiso   1.00
O372   O     0.25000   0.42946   0.45241   0.00000  Uiso   1.00
H373   H     0.46008   0.41798   0.39089   0.00000  Uiso   1.00
H374   H     0.03992   0.58202   0.60911   0.00000  Uiso   1.00
H375   H     0.46072   0.57983   0.61124   0.00000  Uiso   1.00
H376   H     0.03928   0.42017   0.38876   0.00000  Uiso   1.00
C377   C     0.25000   0.40668   0.50001   0.00000  Uiso   1.00
C378   C     0.25000   0.59332   0.49999   0.00000  Uiso   1.00
O379   O     0.18513   0.50000   0.54760   0.00000  Uiso   1.00
O380   O     0.31487   0.50000   0.45240   0.00000  Uiso   1.00
O381   O     0.31487   0.50000   0.54760   0.00000  Uiso   1.00
O382   O     0.18513   0.50000   0.45240   0.00000  Uiso   1.00
C383   C     0.16426   0.50069   0.49983   0.00000  Uiso   1.00
C384   C     0.33574   0.49931   0.50017   0.00000  Uiso   1.00
Cu385  Cu    0.25000   0.50000   0.55636   0.00000  Uiso   1.00
Cu386  Cu    0.25000   0.50000   0.44364   0.00000  Uiso   1.00
N387   N     0.25000   0.50000   0.35894   0.00000  Uiso   1.00
N388   N     0.25000   0.50000   0.64106   0.00000  Uiso   1.00
C389   C     0.40666   0.53046   0.53746   0.00000  Uiso   1.00
C390   C     0.09334   0.46954   0.46254   0.00000  Uiso   1.00
C391   C     0.40720   0.46681   0.46322   0.00000  Uiso   1.00
C392   C     0.09280   0.53319   0.53678   0.00000  Uiso   1.00
C393   C     0.38398   0.49812   0.50079   0.00000  Uiso   1.00
C394   C     0.11602   0.50188   0.49921   0.00000  Uiso   1.00
C395   C     0.45344   0.46934   0.46133   0.00000  Uiso   1.00
C396   C     0.04656   0.53066   0.53867   0.00000  Uiso   1.00
C397   C     0.45329   0.53001   0.53887   0.00000  Uiso   1.00
C398   C     0.04671   0.46999   0.46113   0.00000  Uiso   1.00
C399   C     0.47663   0.49991   0.49999   0.00000  Uiso   1.00
C400   C     0.02337   0.50009   0.50001   0.00000  Uiso   1.00
C401   C     0.47701   0.44092   0.42186   0.00000  Uiso   1.00
C402   C     0.02299   0.55908   0.57814   0.00000  Uiso   1.00
C403   C     0.47709   0.55831   0.57875   0.00000  Uiso   1.00
C404   C     0.02291   0.44169   0.42125   0.00000  Uiso   1.00
C405   C     0.25000   0.35513   0.50001   0.00000  Uiso   1.00
C406   C     0.25000   0.64488   0.49999   0.00000  Uiso   1.00
O407   O     0.38219   0.56255   0.57040   0.00000  Uiso   1.00
H408   H     0.39760   0.59457   0.57118   0.00000  Uiso   1.00
O409   O     0.11781   0.43745   0.42960   0.00000  Uiso   1.00
H410   H     0.10240   0.40543   0.42882   0.00000  Uiso   1.00
O411   O     0.38582   0.43315   0.42844   0.00000  Uiso   1.00
H412   H     0.35765   0.42321   0.44650   0.00000  Uiso   1.00
O413   O     0.11418   0.56685   0.57156   0.00000  Uiso   1.00
H414   H     0.14236   0.57679   0.55350   0.00000  Uiso   1.00
O415   O     0.75000   0.42946   0.54759   0.00000  Uiso   1.00
O416   O     0.75000   0.57054   0.45241   0.00000  Uiso   1.00
O417   O     0.75000   0.57054   0.54759   0.00000  Uiso   1.00
O418   O     0.75000   0.42946   0.45241   0.00000  Uiso   1.00
H419   H     0.96008   0.41798   0.39089   0.00000  Uiso   1.00
H420   H     0.53992   0.58202   0.60911   0.00000  Uiso   1.00
H421   H     0.96072   0.57983   0.61124   0.00000  Uiso   1.00
H422   H     0.53928   0.42017   0.38876   0.00000  Uiso   1.00
C423   C     0.75000   0.40668   0.50001   0.00000  Uiso   1.00
C424   C     0.75000   0.59332   0.49999   0.00000  Uiso   1.00
O425   O     0.68513   0.50000   0.54760   0.00000  Uiso   1.00
O426   O     0.81487   0.50000   0.45240   0.00000  Uiso   1.00
O427   O     0.81487   0.50000   0.54760   0.00000  Uiso   1.00
O428   O     0.68513   0.50000   0.45240   0.00000  Uiso   1.00
C429   C     0.66426   0.50069   0.49983   0.00000  Uiso   1.00
C430   C     0.83574   0.49931   0.50017   0.00000  Uiso   1.00
Cu431  Cu    0.75000   0.50000   0.55636   0.00000  Uiso   1.00
Cu432  Cu    0.75000   0.50000   0.44364   0.00000  Uiso   1.00
N433   N     0.75000   0.50000   0.35894   0.00000  Uiso   1.00
N434   N     0.75000   0.50000   0.64106   0.00000  Uiso   1.00
C435   C     0.90666   0.53046   0.53746   0.00000  Uiso   1.00
C436   C     0.59334   0.46954   0.46254   0.00000  Uiso   1.00
C437   C     0.90720   0.46681   0.46322   0.00000  Uiso   1.00
C438   C     0.59280   0.53319   0.53678   0.00000  Uiso   1.00
C439   C     0.88398   0.49812   0.50079   0.00000  Uiso   1.00
C440   C     0.61602   0.50188   0.49921   0.00000  Uiso   1.00
C441   C     0.95344   0.46934   0.46133   0.00000  Uiso   1.00
C442   C     0.54656   0.53066   0.53867   0.00000  Uiso   1.00
C443   C     0.95329   0.53001   0.53887   0.00000  Uiso   1.00
C444   C     0.54671   0.46999   0.46113   0.00000  Uiso   1.00
C445   C     0.97663   0.49991   0.49999   0.00000  Uiso   1.00
C446   C     0.52337   0.50009   0.50001   0.00000  Uiso   1.00
C447   C     0.97701   0.44092   0.42186   0.00000  Uiso   1.00
C448   C     0.52299   0.55908   0.57814   0.00000  Uiso   1.00
C449   C     0.97709   0.55831   0.57875   0.00000  Uiso   1.00
C450   C     0.52291   0.44169   0.42125   0.00000  Uiso   1.00
C451   C     0.75000   0.35513   0.50001   0.00000  Uiso   1.00
C452   C     0.75000   0.64488   0.49999   0.00000  Uiso   1.00
O453   O     0.88219   0.56255   0.57040   0.00000  Uiso   1.00
H454   H     0.89760   0.59457   0.57118   0.00000  Uiso   1.00
O455   O     0.61781   0.43745   0.42960   0.00000  Uiso   1.00
H456   H     0.60240   0.40543   0.42882   0.00000  Uiso   1.00
O457   O     0.88582   0.43315   0.42844   0.00000  Uiso   1.00
H458   H     0.85765   0.42321   0.44650   0.00000  Uiso   1.00
O459   O     0.61418   0.56685   0.57156   0.00000  Uiso   1.00
H460   H     0.64236   0.57679   0.55350   0.00000  Uiso   1.00
O461   O     0.25000   0.76280   0.54759   0.00000  Uiso   1.00
O462   O     0.25000   0.90387   0.45241   0.00000  Uiso   1.00
O463   O     0.25000   0.90387   0.54759   0.00000  Uiso   1.00
O464   O     0.25000   0.76280   0.45241   0.00000  Uiso   1.00
H465   H     0.46008   0.75132   0.39089   0.00000  Uiso   1.00
H466   H     0.03992   0.91535   0.60911   0.00000  Uiso   1.00
H467   H     0.46072   0.91316   0.61124   0.00000  Uiso   1.00
H468   H     0.03928   0.75351   0.38876   0.00000  Uiso   1.00
C469   C     0.25000   0.74001   0.50001   0.00000  Uiso   1.00
C470   C     0.25000   0.92665   0.49999   0.00000  Uiso   1.00
O471   O     0.18513   0.83333   0.54760   0.00000  Uiso   1.00
O472   O     0.31487   0.83333   0.45240   0.00000  Uiso   1.00
O473   O     0.31487   0.83333   0.54760   0.00000  Uiso   1.00
O474   O     0.18513   0.83333   0.45240   0.00000  Uiso   1.00
C475   C     0.16426   0.83402   0.49983   0.00000  Uiso   1.00
C476   C     0.33574   0.83265   0.50017   0.00000  Uiso   1.00
Cu477  Cu    0.25000   0.83333   0.55636   0.00000  Uiso   1.00
Cu478  Cu    0.25000   0.83333   0.44364   0.00000  Uiso   1.00
N479   N     0.25000   0.83333   0.35894   0.00000  Uiso   1.00
N480   N     0.25000   0.83333   0.64106   0.00000  Uiso   1.00
C481   C     0.40666   0.86379   0.53746   0.00000  Uiso   1.00
C482   C     0.09334   0.80288   0.46254   0.00000  Uiso   1.00
C483   C     0.40720   0.80015   0.46322   0.00000  Uiso   1.00
C484   C     0.09280   0.86652   0.53678   0.00000  Uiso   1.00
C485   C     0.38398   0.83146   0.50079   0.00000  Uiso   1.00
C486   C     0.11602   0.83521   0.49921   0.00000  Uiso   1.00
C487   C     0.45344   0.80267   0.46133   0.00000  Uiso   1.00
C488   C     0.04656   0.86399   0.53867   0.00000  Uiso   1.00
C489   C     0.45329   0.86334   0.53887   0.00000  Uiso   1.00
C490   C     0.04671   0.80333   0.46113   0.00000  Uiso   1.00
C491   C     0.47663   0.83324   0.49999   0.00000  Uiso   1.00
C492   C     0.02337   0.83342   0.50001   0.00000  Uiso   1.00
C493   C     0.47701   0.77425   0.42186   0.00000  Uiso   1.00
C494   C     0.02299   0.89242   0.57814   0.00000  Uiso   1.00
C495   C     0.47709   0.89164   0.57875   0.00000  Uiso   1.00
C496   C     0.02291   0.77503   0.42125   0.00000  Uiso   1.00
C497   C     0.25000   0.68846   0.50001   0.00000  Uiso   1.00
C498   C     0.25000   0.97821   0.49999   0.00000  Uiso   1.00
O499   O     0.38219   0.89588   0.57040   0.00000  Uiso   1.00
H500   H     0.39760   0.92791   0.57118   0.00000  Uiso   1.00
O501   O     0.11781   0.77079   0.42960   0.00000  Uiso   1.00
H502   H     0.10240   0.73876   0.42882   0.00000  Uiso   1.00
O503   O     0.38582   0.76648   0.42844   0.00000  Uiso   1.00
H504   H     0.35765   0.75655   0.44650   0.00000  Uiso   1.00
O505   O     0.11418   0.90019   0.57156   0.00000  Uiso   1.00
H506   H     0.14236   0.91012   0.55350   0.00000  Uiso   1.00
O507   O     0.75000   0.76280   0.54759   0.00000  Uiso   1.00
O508   O     0.75000   0.90387   0.45241   0.00000  Uiso   1.00
O509   O     0.75000   0.90387   0.54759   0.00000  Uiso   1.00
O510   O     0.75000   0.76280   0.45241   0.00000  Uiso   1.00
H511   H     0.96008   0.75132   0.39089   0.00000  Uiso   1.00
H512   H     0.53992   0.91535   0.60911   0.00000  Uiso   1.00
H513   H     0.96072   0.91316   0.61124   0.00000  Uiso   1.00
H514   H     0.53928   0.75351   0.38876   0.00000  Uiso   1.00
C515   C     0.75000   0.74001   0.50001   0.00000  Uiso   1.00
C516   C     0.75000   0.92665   0.49999   0.00000  Uiso   1.00
O517   O     0.68513   0.83333   0.54760   0.00000  Uiso   1.00
O518   O     0.81487   0.83333   0.45240   0.00000  Uiso   1.00
O519   O     0.81487   0.83333   0.54760   0.00000  Uiso   1.00
O520   O     0.68513   0.83333   0.45240   0.00000  Uiso   1.00
C521   C     0.66426   0.83402   0.49983   0.00000  Uiso   1.00
C522   C     0.83574   0.83265   0.50017   0.00000  Uiso   1.00
Cu523  Cu    0.75000   0.83333   0.55636   0.00000  Uiso   1.00
Cu524  Cu    0.75000   0.83333   0.44364   0.00000  Uiso   1.00
N525   N     0.75000   0.83333   0.35894   0.00000  Uiso   1.00
N526   N     0.75000   0.83333   0.64106   0.00000  Uiso   1.00
C527   C     0.90666   0.86379   0.53746   0.00000  Uiso   1.00
C528   C     0.59334   0.80288   0.46254   0.00000  Uiso   1.00
C529   C     0.90720   0.80015   0.46322   0.00000  Uiso   1.00
C530   C     0.59280   0.86652   0.53678   0.00000  Uiso   1.00
C531   C     0.88398   0.83146   0.50079   0.00000  Uiso   1.00
C532   C     0.61602   0.83521   0.49921   0.00000  Uiso   1.00
C533   C     0.95344   0.80267   0.46133   0.00000  Uiso   1.00
C534   C     0.54656   0.86399   0.53867   0.00000  Uiso   1.00
C535   C     0.95329   0.86334   0.53887   0.00000  Uiso   1.00
C536   C     0.54671   0.80333   0.46113   0.00000  Uiso   1.00
C537   C     0.97663   0.83324   0.49999   0.00000  Uiso   1.00
C538   C     0.52337   0.83342   0.50001   0.00000  Uiso   1.00
C539   C     0.97701   0.77425   0.42186   0.00000  Uiso   1.00
C540   C     0.52299   0.89242   0.57814   0.00000  Uiso   1.00
C541   C     0.97709   0.89164   0.57875   0.00000  Uiso   1.00
C542   C     0.52291   0.77503   0.42125   0.00000  Uiso   1.00
C543   C     0.75000   0.68846   0.50001   0.00000  Uiso   1.00
C544   C     0.75000   0.97821   0.49999   0.00000  Uiso   1.00
O545   O     0.88219   0.89588   0.57040   0.00000  Uiso   1.00
H546   H     0.89760   0.92791   0.57118   0.00000  Uiso   1.00
O547   O     0.61781   0.77079   0.42960   0.00000  Uiso   1.00
H548   H     0.60240   0.73876   0.42882   0.00000  Uiso   1.00
O549   O     0.88582   0.76648   0.42844   0.00000  Uiso   1.00
H550   H     0.85765   0.75655   0.44650   0.00000  Uiso   1.00
O551   O     0.61418   0.90019   0.57156   0.00000  Uiso   1.00
H552   H     0.64236   0.91012   0.55350   0.00000  Uiso   1.00
O553   O     0.25000   0.09613   0.88092   0.00000  Uiso   1.00
O554   O     0.25000   0.23720   0.78575   0.00000  Uiso   1.00
O555   O     0.25000   0.23720   0.88092   0.00000  Uiso   1.00
O556   O     0.25000   0.09613   0.78575   0.00000  Uiso   1.00
H557   H     0.46008   0.08465   0.72423   0.00000  Uiso   1.00
H558   H     0.03992   0.24868   0.94244   0.00000  Uiso   1.00
H559   H     0.46072   0.24649   0.94457   0.00000  Uiso   1.00
H560   H     0.03928   0.08684   0.72210   0.00000  Uiso   1.00
C561   C     0.25000   0.07335   0.83334   0.00000  Uiso   1.00
C562   C     0.25000   0.25999   0.83333   0.00000  Uiso   1.00
O563   O     0.18513   0.16667   0.88093   0.00000  Uiso   1.00
O564   O     0.31487   0.16667   0.78573   0.00000  Uiso   1.00
O565   O     0.31487   0.16667   0.88093   0.00000  Uiso   1.00
O566   O     0.18513   0.16667   0.78573   0.00000  Uiso   1.00
C567   C     0.16426   0.16735   0.83317   0.00000  Uiso   1.00
C568   C     0.33574   0.16598   0.83350   0.00000  Uiso   1.00
Cu569  Cu    0.25000   0.16667   0.88969   0.00000  Uiso   1.00
Cu570  Cu    0.25000   0.16667   0.77697   0.00000  Uiso   1.00
N571   N     0.25000   0.16667   0.69227   0.00000  Uiso   1.00
N572   N     0.25000   0.16667   0.97439   0.00000  Uiso   1.00
C573   C     0.40666   0.19713   0.87079   0.00000  Uiso   1.00
C574   C     0.09334   0.13621   0.79588   0.00000  Uiso   1.00
C575   C     0.40720   0.13348   0.79656   0.00000  Uiso   1.00
C576   C     0.09280   0.19986   0.87011   0.00000  Uiso   1.00
C577   C     0.38398   0.16479   0.83412   0.00000  Uiso   1.00
C578   C     0.11602   0.16854   0.83254   0.00000  Uiso   1.00
C579   C     0.45344   0.13601   0.79466   0.00000  Uiso   1.00
C580   C     0.04656   0.19733   0.87201   0.00000  Uiso   1.00
C581   C     0.45329   0.19667   0.87221   0.00000  Uiso   1.00
C582   C     0.04671   0.13666   0.79446   0.00000  Uiso   1.00
C583   C     0.47663   0.16658   0.83333   0.00000  Uiso   1.00
C584   C     0.02337   0.16676   0.83334   0.00000  Uiso   1.00
C585   C     0.47701   0.10758   0.75520   0.00000  Uiso   1.00
C586   C     0.02299   0.22575   0.91147   0.00000  Uiso   1.00
C587   C     0.47709   0.22497   0.91208   0.00000  Uiso   1.00
C588   C     0.02291   0.10836   0.75459   0.00000  Uiso   1.00
C589   C     0.25000   0.02179   0.83334   0.00000  Uiso   1.00
C590   C     0.25000   0.31154   0.83332   0.00000  Uiso   1.00
O591   O     0.38219   0.22921   0.90373   0.00000  Uiso   1.00
H592   H     0.39760   0.26124   0.90451   0.00000  Uiso   1.00
O593   O     0.11781   0.10412   0.76293   0.00000  Uiso   1.00
H594   H     0.10240   0.07209   0.76215   0.00000  Uiso   1.00
O595   O     0.38582   0.09981   0.76177   0.00000  Uiso   1.00
H596   H     0.35765   0.08988   0.77984   0.00000  Uiso   1.00
O597   O     0.11418   0.23352   0.90489   0.00000  Uiso   1.00
H598   H     0.14236   0.24345   0.88683   0.00000  Uiso   1.00
O599   O     0.75000   0.09613   0.88092   0.00000  Uiso   1.00
O600   O     0.75000   0.23720   0.78575   0.00000  Uiso   1.00
O601   O     0.75000   0.23720   0.88092   0.00000  Uiso   1.00
O602   O     0.75000   0.09613   0.78575   0.00000  Uiso   1.00
H603   H     0.96008   0.08465   0.72423   0.00000  Uiso   1.00
H604   H     0.53992   0.24868   0.94244   0.00000  Uiso   1.00
H605   H     0.96072   0.24649   0.94457   0.00000  Uiso   1.00
H606   H     0.53928   0.08684   0.72210   0.00000  Uiso   1.00
C607   C     0.75000   0.07335   0.83334   0.00000  Uiso   1.00
C608   C     0.75000   0.25999   0.83333   0.00000  Uiso   1.00
O609   O     0.68513   0.16667   0.88093   0.00000  Uiso   1.00
O610   O     0.81487   0.16667   0.78573   0.00000  Uiso   1.00
O611   O     0.81487   0.16667   0.88093   0.00000  Uiso   1.00
O612   O     0.68513   0.16667   0.78573   0.00000  Uiso   1.00
C613   C     0.66426   0.16735   0.83317   0.00000  Uiso   1.00
C614   C     0.83574   0.16598   0.83350   0.00000  Uiso   1.00
Cu615  Cu    0.75000   0.16667   0.88969   0.00000  Uiso   1.00
Cu616  Cu    0.75000   0.16667   0.77697   0.00000  Uiso   1.00
N617   N     0.75000   0.16667   0.69227   0.00000  Uiso   1.00
N618   N     0.75000   0.16667   0.97439   0.00000  Uiso   1.00
C619   C     0.90666   0.19713   0.87079   0.00000  Uiso   1.00
C620   C     0.59334   0.13621   0.79588   0.00000  Uiso   1.00
C621   C     0.90720   0.13348   0.79656   0.00000  Uiso   1.00
C622   C     0.59280   0.19986   0.87011   0.00000  Uiso   1.00
C623   C     0.88398   0.16479   0.83412   0.00000  Uiso   1.00
C624   C     0.61602   0.16854   0.83254   0.00000  Uiso   1.00
C625   C     0.95344   0.13601   0.79466   0.00000  Uiso   1.00
C626   C     0.54656   0.19733   0.87201   0.00000  Uiso   1.00
C627   C     0.95329   0.19667   0.87221   0.00000  Uiso   1.00
C628   C     0.54671   0.13666   0.79446   0.00000  Uiso   1.00
C629   C     0.97663   0.16658   0.83333   0.00000  Uiso   1.00
C630   C     0.52337   0.16676   0.83334   0.00000  Uiso   1.00
C631   C     0.97701   0.10758   0.75520   0.00000  Uiso   1.00
C632   C     0.52299   0.22575   0.91147   0.00000  Uiso   1.00
C633   C     0.97709   0.22497   0.91208   0.00000  Uiso   1.00
C634   C     0.52291   0.10836   0.75459   0.00000  Uiso   1.00
C635   C     0.75000   0.02179   0.83334   0.00000  Uiso   1.00
C636   C     0.75000   0.31154   0.83332   0.00000  Uiso   1.00
O637   O     0.88219   0.22921   0.90373   0.00000  Uiso   1.00
H638   H     0.89760   0.26124   0.90451   0.00000  Uiso   1.00
O639   O     0.61781   0.10412   0.76293   0.00000  Uiso   1.00
H640   H     0.60240   0.07209   0.76215   0.00000  Uiso   1.00
O641   O     0.88582   0.09981   0.76177   0.00000  Uiso   1.00
H642   H     0.85765   0.08988   0.77984   0.00000  Uiso   1.00
O643   O     0.61418   0.23352   0.90489   0.00000  Uiso   1.00
H644   H     0.64236   0.24345   0.88683   0.00000  Uiso   1.00
O645   O     0.25000   0.42946   0.88092   0.00000  Uiso   1.00
O646   O     0.25000   0.57054   0.78575   0.00000  Uiso   1.00
O647   O     0.25000   0.57054   0.88092   0.00000  Uiso   1.00
O648   O     0.25000   0.42946   0.78575   0.00000  Uiso   1.00
H649   H     0.46008   0.41798   0.72423   0.00000  Uiso   1.00
H650   H     0.03992   0.58202   0.94244   0.00000  Uiso   1.00
H651   H     0.46072   0.57983   0.94457   0.00000  Uiso   1.00
H652   H     0.03928   0.42017   0.72210   0.00000  Uiso   1.00
C653   C     0.25000   0.40668   0.83334   0.00000  Uiso   1.00
C654   C     0.25000   0.59332   0.83333   0.00000  Uiso   1.00
O655   O     0.18513   0.50000   0.88093   0.00000  Uiso   1.00
O656   O     0.31487   0.50000   0.78573   0.00000  Uiso   1.00
O657   O     0.31487   0.50000   0.88093   0.00000  Uiso   1.00
O658   O     0.18513   0.50000   0.78573   0.00000  Uiso   1.00
C659   C     0.16426   0.50069   0.83317   0.00000  Uiso   1.00
C660   C     0.33574   0.49931   0.83350   0.00000  Uiso   1.00
Cu661  Cu    0.25000   0.50000   0.88969   0.00000  Uiso   1.00
Cu662  Cu    0.25000   0.50000   0.77697   0.00000  Uiso   1.00
N663   N     0.25000   0.50000   0.69227   0.00000  Uiso   1.00
N664   N     0.25000   0.50000   0.97439   0.00000  Uiso   1.00
C665   C     0.40666   0.53046   0.87079   0.00000  Uiso   1.00
C666   C     0.09334   0.46954   0.79588   0.00000  Uiso   1.00
C667   C     0.40720   0.46681   0.79656   0.00000  Uiso   1.00
C668   C     0.09280   0.53319   0.87011   0.00000  Uiso   1.00
C669   C     0.38398   0.49812   0.83412   0.00000  Uiso   1.00
C670   C     0.11602   0.50188   0.83254   0.00000  Uiso   1.00
C671   C     0.45344   0.46934   0.79466   0.00000  Uiso   1.00
C672   C     0.04656   0.53066   0.87201   0.00000  Uiso   1.00
C673   C     0.45329   0.53001   0.87221   0.00000  Uiso   1.00
C674   C     0.04671   0.46999   0.79446   0.00000  Uiso   1.00
C675   C     0.47663   0.49991   0.83333   0.00000  Uiso   1.00
C676   C     0.02337   0.50009   0.83334   0.00000  Uiso   1.00
C677   C     0.47701   0.44092   0.75520   0.00000  Uiso   1.00
C678   C     0.02299   0.55908   0.91147   0.00000  Uiso   1.00
C679   C     0.47709   0.55831   0.91208   0.00000  Uiso   1.00
C680   C     0.02291   0.44169   0.75459   0.00000  Uiso   1.00
C681   C     0.25000   0.35513   0.83334   0.00000  Uiso   1.00
C682   C     0.25000   0.64488   0.83332   0.00000  Uiso   1.00
O683   O     0.38219   0.56255   0.90373   0.00000  Uiso   1.00
H684   H     0.39760   0.59457   0.90451   0.00000  Uiso   1.00
O685   O     0.11781   0.43745   0.76293   0.00000  Uiso   1.00
H686   H     0.10240   0.40543   0.76215   0.00000  Uiso   1.00
O687   O     0.38582   0.43315   0.76177   0.00000  Uiso   1.00
H688   H     0.35765   0.42321   0.77984   0.00000  Uiso   1.00
O689   O     0.11418   0.56685   0.90489   0.00000  Uiso   1.00
H690   H     0.14236   0.57679   0.88683   0.00000  Uiso   1.00
O691   O     0.75000   0.42946   0.88092   0.00000  Uiso   1.00
O692   O     0.75000   0.57054   0.78575   0.00000  Uiso   1.00
O693   O     0.75000   0.57054   0.88092   0.00000  Uiso   1.00
O694   O     0.75000   0.42946   0.78575   0.00000  Uiso   1.00
H695   H     0.96008   0.41798   0.72423   0.00000  Uiso   1.00
H696   H     0.53992   0.58202   0.94244   0.00000  Uiso   1.00
H697   H     0.96072   0.57983   0.94457   0.00000  Uiso   1.00
H698   H     0.53928   0.42017   0.72210   0.00000  Uiso   1.00
C699   C     0.75000   0.40668   0.83334   0.00000  Uiso   1.00
C700   C     0.75000   0.59332   0.83333   0.00000  Uiso   1.00
O701   O     0.68513   0.50000   0.88093   0.00000  Uiso   1.00
O702   O     0.81487   0.50000   0.78573   0.00000  Uiso   1.00
O703   O     0.81487   0.50000   0.88093   0.00000  Uiso   1.00
O704   O     0.68513   0.50000   0.78573   0.00000  Uiso   1.00
C705   C     0.66426   0.50069   0.83317   0.00000  Uiso   1.00
C706   C     0.83574   0.49931   0.83350   0.00000  Uiso   1.00
Cu707  Cu    0.75000   0.50000   0.88969   0.00000  Uiso   1.00
Cu708  Cu    0.75000   0.50000   0.77697   0.00000  Uiso   1.00
N709   N     0.75000   0.50000   0.69227   0.00000  Uiso   1.00
N710   N     0.75000   0.50000   0.97439   0.00000  Uiso   1.00
C711   C     0.90666   0.53046   0.87079   0.00000  Uiso   1.00
C712   C     0.59334   0.46954   0.79588   0.00000  Uiso   1.00
C713   C     0.90720   0.46681   0.79656   0.00000  Uiso   1.00
C714   C     0.59280   0.53319   0.87011   0.00000  Uiso   1.00
C715   C     0.88398   0.49812   0.83412   0.00000  Uiso   1.00
C716   C     0.61602   0.50188   0.83254   0.00000  Uiso   1.00
C717   C     0.95344   0.46934   0.79466   0.00000  Uiso   1.00
C718   C     0.54656   0.53066   0.87201   0.00000  Uiso   1.00
C719   C     0.95329   0.53001   0.87221   0.00000  Uiso   1.00
C720   C     0.54671   0.46999   0.79446   0.00000  Uiso   1.00
C721   C     0.97663   0.49991   0.83333   0.00000  Uiso   1.00
C722   C     0.52337   0.50009   0.83334   0.00000  Uiso   1.00
C723   C     0.97701   0.44092   0.75520   0.00000  Uiso   1.00
C724   C     0.52299   0.55908   0.91147   0.00000  Uiso   1.00
C725   C     0.97709   0.55831   0.91208   0.00000  Uiso   1.00
C726   C     0.52291   0.44169   0.75459   0.00000  Uiso   1.00
C727   C     0.75000   0.35513   0.83334   0.00000  Uiso   1.00
C728   C     0.75000   0.64488   0.83332   0.00000  Uiso   1.00
O729   O     0.88219   0.56255   0.90373   0.00000  Uiso   1.00
H730   H     0.89760   0.59457   0.90451   0.00000  Uiso   1.00
O731   O     0.61781   0.43745   0.76293   0.00000  Uiso   1.00
H732   H     0.60240   0.40543   0.76215   0.00000  Uiso   1.00
O733   O     0.88582   0.43315   0.76177   0.00000  Uiso   1.00
H734   H     0.85765   0.42321   0.77984   0.00000  Uiso   1.00
O735   O     0.61418   0.56685   0.90489   0.00000  Uiso   1.00
H736   H     0.64236   0.57679   0.88683   0.00000  Uiso   1.00
O737   O     0.25000   0.76280   0.88092   0.00000  Uiso   1.00
O738   O     0.25000   0.90387   0.78575   0.00000  Uiso   1.00
O739   O     0.25000   0.90387   0.88092   0.00000  Uiso   1.00
O740   O     0.25000   0.76280   0.78575   0.00000  Uiso   1.00
H741   H     0.46008   0.75132   0.72423   0.00000  Uiso   1.00
H742   H     0.03992   0.91535   0.94244   0.00000  Uiso   1.00
H743   H     0.46072   0.91316   0.94457   0.00000  Uiso   1.00
H744   H     0.03928   0.75351   0.72210   0.00000  Uiso   1.00
C745   C     0.25000   0.74001   0.83334   0.00000  Uiso   1.00
C746   C     0.25000   0.92665   0.83333   0.00000  Uiso   1.00
O747   O     0.18513   0.83333   0.88093   0.00000  Uiso   1.00
O748   O     0.31487   0.83333   0.78573   0.00000  Uiso   1.00
O749   O     0.31487   0.83333   0.88093   0.00000  Uiso   1.00
O750   O     0.18513   0.83333   0.78573   0.00000  Uiso   1.00
C751   C     0.16426   0.83402   0.83317   0.00000  Uiso   1.00
C752   C     0.33574   0.83265   0.83350   0.00000  Uiso   1.00
Cu753  Cu    0.25000   0.83333   0.88969   0.00000  Uiso   1.00
Cu754  Cu    0.25000   0.83333   0.77697   0.00000  Uiso   1.00
N755   N     0.25000   0.83333   0.69227   0.00000  Uiso   1.00
N756   N     0.25000   0.83333   0.97439   0.00000  Uiso   1.00
C757   C     0.40666   0.86379   0.87079   0.00000  Uiso   1.00
C758   C     0.09334   0.80288   0.79588   0.00000  Uiso   1.00
C759   C     0.40720   0.80015   0.79656   0.00000  Uiso   1.00
C760   C     0.09280   0.86652   0.87011   0.00000  Uiso   1.00
C761   C     0.38398   0.83146   0.83412   0.00000  Uiso   1.00
C762   C     0.11602   0.83521   0.83254   0.00000  Uiso   1.00
C763   C     0.45344   0.80267   0.79466   0.00000  Uiso   1.00
C764   C     0.04656   0.86399   0.87201   0.00000  Uiso   1.00
C765   C     0.45329   0.86334   0.87221   0.00000  Uiso   1.00
C766   C     0.04671   0.80333   0.79446   0.00000  Uiso   1.00
C767   C     0.47663   0.83324   0.83333   0.00000  Uiso   1.00
C768   C     0.02337   0.83342   0.83334   0.00000  Uiso   1.00
C769   C     0.47701   0.77425   0.75520   0.00000  Uiso   1.00
C770   C     0.02299   0.89242   0.91147   0.00000  Uiso   1.00
C771   C     0.47709   0.89164   0.91208   0.00000  Uiso   1.00
C772   C     0.02291   0.77503   0.75459   0.00000  Uiso   1.00
C773   C     0.25000   0.68846   0.83334   0.00000  Uiso   1.00
C774   C     0.25000   0.97821   0.83332   0.00000  Uiso   1.00
O775   O     0.38219   0.89588   0.90373   0.00000  Uiso   1.00
H776   H     0.39760   0.92791   0.90451   0.00000  Uiso   1.00
O777   O     0.11781   0.77079   0.76293   0.00000  Uiso   1.00
H778   H     0.10240   0.73876   0.76215   0.00000  Uiso   1.00
O779   O     0.38582   0.76648   0.76177   0.00000  Uiso   1.00
H780   H     0.35765   0.75655   0.77984   0.00000  Uiso   1.00
O781   O     0.11418   0.90019   0.90489   0.00000  Uiso   1.00
H782   H     0.14236   0.91012   0.88683   0.00000  Uiso   1.00
O783   O     0.75000   0.76280   0.88092   0.00000  Uiso   1.00
O784   O     0.75000   0.90387   0.78575   0.00000  Uiso   1.00
O785   O     0.75000   0.90387   0.88092   0.00000  Uiso   1.00
O786   O     0.75000   0.76280   0.78575   0.00000  Uiso   1.00
H787   H     0.96008   0.75132   0.72423   0.00000  Uiso   1.00
H788   H     0.53992   0.91535   0.94244   0.00000  Uiso   1.00
H789   H     0.96072   0.91316   0.94457   0.00000  Uiso   1.00
H790   H     0.53928   0.75351   0.72210   0.00000  Uiso   1.00
C791   C     0.75000   0.74001   0.83334   0.00000  Uiso   1.00
C792   C     0.75000   0.92665   0.83333   0.00000  Uiso   1.00
O793   O     0.68513   0.83333   0.88093   0.00000  Uiso   1.00
O794   O     0.81487   0.83333   0.78573   0.00000  Uiso   1.00
O795   O     0.81487   0.83333   0.88093   0.00000  Uiso   1.00
O796   O     0.68513   0.83333   0.78573   0.00000  Uiso   1.00
C797   C     0.66426   0.83402   0.83317   0.00000  Uiso   1.00
C798   C     0.83574   0.83265   0.83350   0.00000  Uiso   1.00
Cu799  Cu    0.75000   0.83333   0.88969   0.00000  Uiso   1.00
Cu800  Cu    0.75000   0.83333   0.77697   0.00000  Uiso   1.00
N801   N     0.75000   0.83333   0.69227   0.00000  Uiso   1.00
N802   N     0.75000   0.83333   0.97439   0.00000  Uiso   1.00
C803   C     0.90666   0.86379   0.87079   0.00000  Uiso   1.00
C804   C     0.59334   0.80288   0.79588   0.00000  Uiso   1.00
C805   C     0.90720   0.80015   0.79656   0.00000  Uiso   1.00
C806   C     0.59280   0.86652   0.87011   0.00000  Uiso   1.00
C807   C     0.88398   0.83146   0.83412   0.00000  Uiso   1.00
C808   C     0.61602   0.83521   0.83254   0.00000  Uiso   1.00
C809   C     0.95344   0.80267   0.79466   0.00000  Uiso   1.00
C810   C     0.54656   0.86399   0.87201   0.00000  Uiso   1.00
C811   C     0.95329   0.86334   0.87221   0.00000  Uiso   1.00
C812   C     0.54671   0.80333   0.79446   0.00000  Uiso   1.00
C813   C     0.97663   0.83324   0.83333   0.00000  Uiso   1.00
C814   C     0.52337   0.83342   0.83334   0.00000  Uiso   1.00
C815   C     0.97701   0.77425   0.75520   0.00000  Uiso   1.00
C816   C     0.52299   0.89242   0.91147   0.00000  Uiso   1.00
C817   C     0.97709   0.89164   0.91208   0.00000  Uiso   1.00
C818   C     0.52291   0.77503   0.75459   0.00000  Uiso   1.00
C819   C     0.75000   0.68846   0.83334   0.00000  Uiso   1.00
C820   C     0.75000   0.97821   0.83332   0.00000  Uiso   1.00
O821   O     0.88219   0.89588   0.90373   0.00000  Uiso   1.00
H822   H     0.89760   0.92791   0.90451   0.00000  Uiso   1.00
O823   O     0.61781   0.77079   0.76293   0.00000  Uiso   1.00
H824   H     0.60240   0.73876   0.76215   0.00000  Uiso   1.00
O825   O     0.88582   0.76648   0.76177   0.00000  Uiso   1.00
H826   H     0.85765   0.75655   0.77984   0.00000  Uiso   1.00
O827   O     0.61418   0.90019   0.90489   0.00000  Uiso   1.00
H828   H     0.64236   0.91012   0.88683   0.00000  Uiso   1.00
loop_
_geom_bond_atom_site_label_1
_geom_bond_atom_site_label_2
_geom_bond_distance
_geom_bond_site_symmetry_2
_ccdc_geom_bond_type
O1     Cu17    1.935   .     S
O1     C9      1.274   .     A
O2     Cu18    1.935   .     S
O2     C10     1.274   .     A
O3     C10     1.274   .     A
O3     Cu17    1.935   .     S
O4     Cu18    1.935   .     S
O4     C9      1.274   .     A
H5     C33     1.083   .     S
H6     C34     1.083   .     S
H7     C35     1.082   .     S
H8     C36     1.082   .     S
C9     C37     1.406   .     S
C10    C38     1.406   .     S
O11    C15     1.279   .     A
O11    Cu17    1.970   .     S
O12    C16     1.279   .     A
O12    Cu18    1.970   .     S
O13    Cu17    1.972   .     S
O13    C16     1.278   .     A
O14    C15     1.278   .     A
O14    Cu18    1.972   .     S
C15    C26     1.458   .     S
C16    C25     1.458   .     S
Cu17   N20     1.979   .     S
Cu17   Cu18    2.634   .     S
Cu18   N19     1.979   .     S
N19    N572    1.197   1_554 S
N20    N295    1.197   .     S
C21    O39     1.383   .     S
C21    C25     1.406   .     A
C21    C29     1.409   .     A
C22    O41     1.383   .     S
C22    C26     1.406   .     A
C22    C30     1.409   .     A
C23    C27     1.400   .     A
C23    C25     1.414   .     A
C23    O43     1.385   .     S
C24    C28     1.400   .     A
C24    O45     1.384   .     S
C24    C26     1.414   .     A
C27    C33     1.402   .     A
C27    C31     1.413   .     A
C28    C34     1.402   .     A
C28    C32     1.413   .     A
C29    C35     1.405   .     A
C29    C31     1.416   .     A
C30    C36     1.405   .     A
C30    C32     1.416   .     A
C31    C78     1.412   .     S
C32    C77     1.412   1_455 S
C33    C82     1.388   .     S
C34    C81     1.388   1_455 S
C35    C80     1.388   .     S
C36    C79     1.388   1_455 S
C37    C222    1.189   1_545 S
C38    C129    1.189   .     S
O39    H40     0.990   .     S
O41    H42     0.990   .     S
O43    H44     0.990   .     S
O45    H46     0.990   .     S
O47    Cu63    1.935   .     S
O47    C55     1.274   .     A
O48    Cu64    1.935   .     S
O48    C56     1.274   .     A
O49    C56     1.274   .     A
O49    Cu63    1.935   .     S
O50    Cu64    1.935   .     S
O50    C55     1.274   .     A
H51    C79     1.083   .     S
H52    C80     1.083   .     S
H53    C81     1.082   .     S
H54    C82     1.082   .     S
C55    C83     1.406   .     S
C56    C84     1.406   .     S
O57    C61     1.279   .     A
O57    Cu63    1.970   .     S
O58    C62     1.279   .     A
O58    Cu64    1.970   .     S
O59    Cu63    1.972   .     S
O59    C62     1.278   .     A
O60    C61     1.278   .     A
O60    Cu64    1.972   .     S
C61    C72     1.458   .     S
C62    C71     1.458   .     S
Cu63   N66     1.979   .     S
Cu63   Cu64    2.634   .     S
Cu64   N65     1.979   .     S
N65    N618    1.197   1_554 S
N66    N341    1.197   .     S
C67    O85     1.383   .     S
C67    C71     1.406   .     A
C67    C75     1.409   .     A
C68    O87     1.383   .     S
C68    C72     1.406   .     A
C68    C76     1.409   .     A
C69    C73     1.400   .     A
C69    C71     1.414   .     A
C69    O89     1.385   .     S
C70    C74     1.400   .     A
C70    O91     1.384   .     S
C70    C72     1.414   .     A
C73    C79     1.402   .     A
C73    C77     1.413   .     A
C74    C80     1.402   .     A
C74    C78     1.413   .     A
C75    C81     1.405   .     A
C75    C77     1.416   .     A
C76    C82     1.405   .     A
C76    C78     1.416   .     A
C77    C32     1.412   1_655 S
C79    C36     1.388   1_655 S
C81    C34     1.388   1_655 S
C83    C268    1.189   1_545 S
C84    C175    1.189   .     S
O85    H86     0.990   .     S
O87    H88     0.990   .     S
O89    H90     0.990   .     S
O91    H92     0.990   .     S
O93    Cu109   1.935   .     S
O93    C101    1.274   .     A
O94    Cu110   1.935   .     S
O94    C102    1.274   .     A
O95    C102    1.274   .     A
O95    Cu109   1.935   .     S
O96    Cu110   1.935   .     S
O96    C101    1.274   .     A
H97    C125    1.083   .     S
H98    C126    1.083   .     S
H99    C127    1.082   .     S
H100   C128    1.082   .     S
C101   C129    1.406   .     S
C102   C130    1.406   .     S
O103   C107    1.279   .     A
O103   Cu109   1.970   .     S
O104   C108    1.279   .     A
O104   Cu110   1.970   .     S
O105   Cu109   1.972   .     S
O105   C108    1.278   .     A
O106   C107    1.278   .     A
O106   Cu110   1.972   .     S
C107   C118    1.458   .     S
C108   C117    1.458   .     S
Cu109  N112    1.979   .     S
Cu109  Cu110   2.634   .     S
Cu110  N111    1.979   .     S
N111   N664    1.197   1_554 S
N112   N387    1.197   .     S
C113   O131    1.383   .     S
C113   C117    1.406   .     A
C113   C121    1.409   .     A
C114   O133    1.383   .     S
C114   C118    1.406   .     A
C114   C122    1.409   .     A
C115   C119    1.400   .     A
C115   C117    1.414   .     A
C115   O135    1.385   .     S
C116   C120    1.400   .     A
C116   O137    1.384   .     S
C116   C118    1.414   .     A
C119   C125    1.402   .     A
C119   C123    1.413   .     A
C120   C126    1.402   .     A
C120   C124    1.413   .     A
C121   C127    1.405   .     A
C121   C123    1.416   .     A
C122   C128    1.405   .     A
C122   C124    1.416   .     A
C123   C170    1.412   .     S
C124   C169    1.412   1_455 S
C125   C174    1.388   .     S
C126   C173    1.388   1_455 S
C127   C172    1.388   .     S
C128   C171    1.388   1_455 S
C130   C221    1.189   .     S
O131   H132    0.990   .     S
O133   H134    0.990   .     S
O135   H136    0.990   .     S
O137   H138    0.990   .     S
O139   Cu155   1.935   .     S
O139   C147    1.274   .     A
O140   Cu156   1.935   .     S
O140   C148    1.274   .     A
O141   C148    1.274   .     A
O141   Cu155   1.935   .     S
O142   Cu156   1.935   .     S
O142   C147    1.274   .     A
H143   C171    1.083   .     S
H144   C172    1.083   .     S
H145   C173    1.082   .     S
H146   C174    1.082   .     S
C147   C175    1.406   .     S
C148   C176    1.406   .     S
O149   C153    1.279   .     A
O149   Cu155   1.970   .     S
O150   C154    1.279   .     A
O150   Cu156   1.970   .     S
O151   Cu155   1.972   .     S
O151   C154    1.278   .     A
O152   C153    1.278   .     A
O152   Cu156   1.972   .     S
C153   C164    1.458   .     S
C154   C163    1.458   .     S
Cu155  N158    1.979   .     S
Cu155  Cu156   2.634   .     S
Cu156  N157    1.979   .     S
N157   N710    1.197   1_554 S
N158   N433    1.197   .     S
C159   O177    1.383   .     S
C159   C163    1.406   .     A
C159   C167    1.409   .     A
C160   O179    1.383   .     S
C160   C164    1.406   .     A
C160   C168    1.409   .     A
C161   C165    1.400   .     A
C161   C163    1.414   .     A
C161   O181    1.385   .     S
C162   C166    1.400   .     A
C162   O183    1.384   .     S
C162   C164    1.414   .     A
C165   C171    1.402   .     A
C165   C169    1.413   .     A
C166   C172    1.402   .     A
C166   C170    1.413   .     A
C167   C173    1.405   .     A
C167   C169    1.416   .     A
C168   C174    1.405   .     A
C168   C170    1.416   .     A
C169   C124    1.412   1_655 S
C171   C128    1.388   1_655 S
C173   C126    1.388   1_655 S
C176   C267    1.189   .     S
O177   H178    0.990   .     S
O179   H180    0.990   .     S
O181   H182    0.990   .     S
O183   H184    0.990   .     S
O185   Cu201   1.935   .     S
O185   C193    1.274   .     A
O186   Cu202   1.935   .     S
O186   C194    1.274   .     A
O187   C194    1.274   .     A
O187   Cu201   1.935   .     S
O188   Cu202   1.935   .     S
O188   C193    1.274   .     A
H189   C217    1.083   .     S
H190   C218    1.083   .     S
H191   C219    1.082   .     S
H192   C220    1.082   .     S
C193   C221    1.406   .     S
C194   C222    1.406   .     S
O195   C199    1.279   .     A
O195   Cu201   1.970   .     S
O196   C200    1.279   .     A
O196   Cu202   1.970   .     S
O197   Cu201   1.972   .     S
O197   C200    1.278   .     A
O198   C199    1.278   .     A
O198   Cu202   1.972   .     S
C199   C210    1.458   .     S
C200   C209    1.458   .     S
Cu201  N204    1.979   .     S
Cu201  Cu202   2.634   .     S
Cu202  N203    1.979   .     S
N203   N756    1.197   1_554 S
N204   N479    1.197   .     S
C205   O223    1.383   .     S
C205   C209    1.406   .     A
C205   C213    1.409   .     A
C206   O225    1.383   .     S
C206   C210    1.406   .     A
C206   C214    1.409   .     A
C207   C211    1.400   .     A
C207   C209    1.414   .     A
C207   O227    1.385   .     S
C208   C212    1.400   .     A
C208   O229    1.384   .     S
C208   C210    1.414   .     A
C211   C217    1.402   .     A
C211   C215    1.413   .     A
C212   C218    1.402   .     A
C212   C216    1.413   .     A
C213   C219    1.405   .     A
C213   C215    1.416   .     A
C214   C220    1.405   .     A
C214   C216    1.416   .     A
C215   C262    1.412   .     S
C216   C261    1.412   1_455 S
C217   C266    1.388   .     S
C218   C265    1.388   1_455 S
C219   C264    1.388   .     S
C220   C263    1.388   1_455 S
C222   C37     1.189   1_565 S
O223   H224    0.990   .     S
O225   H226    0.990   .     S
O227   H228    0.990   .     S
O229   H230    0.990   .     S
O231   Cu247   1.935   .     S
O231   C239    1.274   .     A
O232   Cu248   1.935   .     S
O232   C240    1.274   .     A
O233   C240    1.274   .     A
O233   Cu247   1.935   .     S
O234   Cu248   1.935   .     S
O234   C239    1.274   .     A
H235   C263    1.083   .     S
H236   C264    1.083   .     S
H237   C265    1.082   .     S
H238   C266    1.082   .     S
C239   C267    1.406   .     S
C240   C268    1.406   .     S
O241   C245    1.279   .     A
O241   Cu247   1.970   .     S
O242   C246    1.279   .     A
O242   Cu248   1.970   .     S
O243   Cu247   1.972   .     S
O243   C246    1.278   .     A
O244   C245    1.278   .     A
O244   Cu248   1.972   .     S
C245   C256    1.458   .     S
C246   C255    1.458   .     S
Cu247  N250    1.979   .     S
Cu247  Cu248   2.634   .     S
Cu248  N249    1.979   .     S
N249   N802    1.197   1_554 S
N250   N525    1.197   .     S
C251   O269    1.383   .     S
C251   C255    1.406   .     A
C251   C259    1.409   .     A
C252   O271    1.383   .     S
C252   C256    1.406   .     A
C252   C260    1.409   .     A
C253   C257    1.400   .     A
C253   C255    1.414   .     A
C253   O273    1.385   .     S
C254   C258    1.400   .     A
C254   O275    1.384   .     S
C254   C256    1.414   .     A
C257   C263    1.402   .     A
C257   C261    1.413   .     A
C258   C264    1.402   .     A
C258   C262    1.413   .     A
C259   C265    1.405   .     A
C259   C261    1.416   .     A
C260   C266    1.405   .     A
C260   C262    1.416   .     A
C261   C216    1.412   1_655 S
C263   C220    1.388   1_655 S
C265   C218    1.388   1_655 S
C268   C83     1.189   1_565 S
O269   H270    0.990   .     S
O271   H272    0.990   .     S
O273   H274    0.990   .     S
O275   H276    0.990   .     S
O277   Cu293   1.935   .     S
O277   C285    1.274   .     A
O278   Cu294   1.935   .     S
O278   C286    1.274   .     A
O279   C286    1.274   .     A
O279   Cu293   1.935   .     S
O280   Cu294   1.935   .     S
O280   C285    1.274   .     A
H281   C309    1.083   .     S
H282   C310    1.083   .     S
H283   C311    1.082   .     S
H284   C312    1.082   .     S
C285   C313    1.406   .     S
C286   C314    1.406   .     S
O287   C291    1.279   .     A
O287   Cu293   1.970   .     S
O288   C292    1.279   .     A
O288   Cu294   1.970   .     S
O289   Cu293   1.972   .     S
O289   C292    1.278   .     A
O290   C291    1.278   .     A
O290   Cu294   1.972   .     S
C291   C302    1.458   .     S
C292   C301    1.458   .     S
Cu293  N296    1.979   .     S
Cu293  Cu294   2.634   .     S
Cu294  N295    1.979   .     S
N296   N571    1.197   .     S
C297   O315    1.383   .     S
C297   C301    1.406   .     A
C297   C305    1.409   .     A
C298   O317    1.383   .     S
C298   C302    1.406   .     A
C298   C306    1.409   .     A
C299   C303    1.400   .     A
C299   C301    1.414   .     A
C299   O319    1.385   .     S
C300   C304    1.400   .     A
C300   O321    1.384   .     S
C300   C302    1.414   .     A
C303   C309    1.402   .     A
C303   C307    1.413   .     A
C304   C310    1.402   .     A
C304   C308    1.413   .     A
C305   C311    1.405   .     A
C305   C307    1.416   .     A
C306   C312    1.405   .     A
C306   C308    1.416   .     A
C307   C354    1.412   .     S
C308   C353    1.412   1_455 S
C309   C358    1.388   .     S
C310   C357    1.388   1_455 S
C311   C356    1.388   .     S
C312   C355    1.388   1_455 S
C313   C498    1.189   1_545 S
C314   C405    1.189   .     S
O315   H316    0.990   .     S
O317   H318    0.990   .     S
O319   H320    0.990   .     S
O321   H322    0.990   .     S
O323   Cu339   1.935   .     S
O323   C331    1.274   .     A
O324   Cu340   1.935   .     S
O324   C332    1.274   .     A
O325   C332    1.274   .     A
O325   Cu339   1.935   .     S
O326   Cu340   1.935   .     S
O326   C331    1.274   .     A
H327   C355    1.083   .     S
H328   C356    1.083   .     S
H329   C357    1.082   .     S
H330   C358    1.082   .     S
C331   C359    1.406   .     S
C332   C360    1.406   .     S
O333   C337    1.279   .     A
O333   Cu339   1.970   .     S
O334   C338    1.279   .     A
O334   Cu340   1.970   .     S
O335   Cu339   1.972   .     S
O335   C338    1.278   .     A
O336   C337    1.278   .     A
O336   Cu340   1.972   .     S
C337   C348    1.458   .     S
C338   C347    1.458   .     S
Cu339  N342    1.979   .     S
Cu339  Cu340   2.634   .     S
Cu340  N341    1.979   .     S
N342   N617    1.197   .     S
C343   O361    1.383   .     S
C343   C347    1.406   .     A
C343   C351    1.409   .     A
C344   O363    1.383   .     S
C344   C348    1.406   .     A
C344   C352    1.409   .     A
C345   C349    1.400   .     A
C345   C347    1.414   .     A
C345   O365    1.385   .     S
C346   C350    1.400   .     A
C346   O367    1.384   .     S
C346   C348    1.414   .     A
C349   C355    1.402   .     A
C349   C353    1.413   .     A
C350   C356    1.402   .     A
C350   C354    1.413   .     A
C351   C357    1.405   .     A
C351   C353    1.416   .     A
C352   C358    1.405   .     A
C352   C354    1.416   .     A
C353   C308    1.412   1_655 S
C355   C312    1.388   1_655 S
C357   C310    1.388   1_655 S
C359   C544    1.189   1_545 S
C360   C451    1.189   .     S
O361   H362    0.990   .     S
O363   H364    0.990   .     S
O365   H366    0.990   .     S
O367   H368    0.990   .     S
O369   Cu385   1.935   .     S
O369   C377    1.274   .     A
O370   Cu386   1.935   .     S
O370   C378    1.274   .     A
O371   C378    1.274   .     A
O371   Cu385   1.935   .     S
O372   Cu386   1.935   .     S
O372   C377    1.274   .     A
H373   C401    1.083   .     S
H374   C402    1.083   .     S
H375   C403    1.082   .     S
H376   C404    1.082   .     S
C377   C405    1.406   .     S
C378   C406    1.406   .     S
O379   C383    1.279   .     A
O379   Cu385   1.970   .     S
O380   C384    1.279   .     A
O380   Cu386   1.970   .     S
O381   Cu385   1.972   .     S
O381   C384    1.278   .     A
O382   C383    1.278   .     A
O382   Cu386   1.972   .     S
C383   C394    1.458   .     S
C384   C393    1.458   .     S
Cu385  N388    1.979   .     S
Cu385  Cu386   2.634   .     S
Cu386  N387    1.979   .     S
N388   N663    1.197   .     S
C389   O407    1.383   .     S
C389   C393    1.406   .     A
C389   C397    1.409   .     A
C390   O409    1.383   .     S
C390   C394    1.406   .     A
C390   C398    1.409   .     A
C391   C395    1.400   .     A
C391   C393    1.414   .     A
C391   O411    1.385   .     S
C392   C396    1.400   .     A
C392   O413    1.384   .     S
C392   C394    1.414   .     A
C395   C401    1.402   .     A
C395   C399    1.413   .     A
C396   C402    1.402   .     A
C396   C400    1.413   .     A
C397   C403    1.405   .     A
C397   C399    1.416   .     A
C398   C404    1.405   .     A
C398   C400    1.416   .     A
C399   C446    1.412   .     S
C400   C445    1.412   1_455 S
C401   C450    1.388   .     S
C402   C449    1.388   1_455 S
C403   C448    1.388   .     S
C404   C447    1.388   1_455 S
C406   C497    1.189   .     S
O407   H408    0.990   .     S
O409   H410    0.990   .     S
O411   H412    0.990   .     S
O413   H414    0.990   .     S
O415   Cu431   1.935   .     S
O415   C423    1.274   .     A
O416   Cu432   1.935   .     S
O416   C424    1.274   .     A
O417   C424    1.274   .     A
O417   Cu431   1.935   .     S
O418   Cu432   1.935   .     S
O418   C423    1.274   .     A
H419   C447    1.083   .     S
H420   C448    1.083   .     S
H421   C449    1.082   .     S
H422   C450    1.082   .     S
C423   C451    1.406   .     S
C424   C452    1.406   .     S
O425   C429    1.279   .     A
O425   Cu431   1.970   .     S
O426   C430    1.279   .     A
O426   Cu432   1.970   .     S
O427   Cu431   1.972   .     S
O427   C430    1.278   .     A
O428   C429    1.278   .     A
O428   Cu432   1.972   .     S
C429   C440    1.458   .     S
C430   C439    1.458   .     S
Cu431  N434    1.979   .     S
Cu431  Cu432   2.634   .     S
Cu432  N433    1.979   .     S
N434   N709    1.197   .     S
C435   O453    1.383   .     S
C435   C439    1.406   .     A
C435   C443    1.409   .     A
C436   O455    1.383   .     S
C436   C440    1.406   .     A
C436   C444    1.409   .     A
C437   C441    1.400   .     A
C437   C439    1.414   .     A
C437   O457    1.385   .     S
C438   C442    1.400   .     A
C438   O459    1.384   .     S
C438   C440    1.414   .     A
C441   C447    1.402   .     A
C441   C445    1.413   .     A
C442   C448    1.402   .     A
C442   C446    1.413   .     A
C443   C449    1.405   .     A
C443   C445    1.416   .     A
C444   C450    1.405   .     A
C444   C446    1.416   .     A
C445   C400    1.412   1_655 S
C447   C404    1.388   1_655 S
C449   C402    1.388   1_655 S
C452   C543    1.189   .     S
O453   H454    0.990   .     S
O455   H456    0.990   .     S
O457   H458    0.990   .     S
O459   H460    0.990   .     S
O461   Cu477   1.935   .     S
O461   C469    1.274   .     A
O462   Cu478   1.935   .     S
O462   C470    1.274   .     A
O463   C470    1.274   .     A
O463   Cu477   1.935   .     S
O464   Cu478   1.935   .     S
O464   C469    1.274   .     A
H465   C493    1.083   .     S
H466   C494    1.083   .     S
H467   C495    1.082   .     S
H468   C496    1.082   .     S
C469   C497    1.406   .     S
C470   C498    1.406   .     S
O471   C475    1.279   .     A
O471   Cu477   1.970   .     S
O472   C476    1.279   .     A
O472   Cu478   1.970   .     S
O473   Cu477   1.972   .     S
O473   C476    1.278   .     A
O474   C475    1.278   .     A
O474   Cu478   1.972   .     S
C475   C486    1.458   .     S
C476   C485    1.458   .     S
Cu477  N480    1.979   .     S
Cu477  Cu478   2.634   .     S
Cu478  N479    1.979   .     S
N480   N755    1.197   .     S
C481   O499    1.383   .     S
C481   C485    1.406   .     A
C481   C489    1.409   .     A
C482   O501    1.383   .     S
C482   C486    1.406   .     A
C482   C490    1.409   .     A
C483   C487    1.400   .     A
C483   C485    1.414   .     A
C483   O503    1.385   .     S
C484   C488    1.400   .     A
C484   O505    1.384   .     S
C484   C486    1.414   .     A
C487   C493    1.402   .     A
C487   C491    1.413   .     A
C488   C494    1.402   .     A
C488   C492    1.413   .     A
C489   C495    1.405   .     A
C489   C491    1.416   .     A
C490   C496    1.405   .     A
C490   C492    1.416   .     A
C491   C538    1.412   .     S
C492   C537    1.412   1_455 S
C493   C542    1.388   .     S
C494   C541    1.388   1_455 S
C495   C540    1.388   .     S
C496   C539    1.388   1_455 S
C498   C313    1.189   1_565 S
O499   H500    0.990   .     S
O501   H502    0.990   .     S
O503   H504    0.990   .     S
O505   H506    0.990   .     S
O507   Cu523   1.935   .     S
O507   C515    1.274   .     A
O508   Cu524   1.935   .     S
O508   C516    1.274   .     A
O509   C516    1.274   .     A
O509   Cu523   1.935   .     S
O510   Cu524   1.935   .     S
O510   C515    1.274   .     A
H511   C539    1.083   .     S
H512   C540    1.083   .     S
H513   C541    1.082   .     S
H514   C542    1.082   .     S
C515   C543    1.406   .     S
C516   C544    1.406   .     S
O517   C521    1.279   .     A
O517   Cu523   1.970   .     S
O518   C522    1.279   .     A
O518   Cu524   1.970   .     S
O519   Cu523   1.972   .     S
O519   C522    1.278   .     A
O520   C521    1.278   .     A
O520   Cu524   1.972   .     S
C521   C532    1.458   .     S
C522   C531    1.458   .     S
Cu523  N526    1.979   .     S
Cu523  Cu524   2.634   .     S
Cu524  N525    1.979   .     S
N526   N801    1.197   .     S
C527   O545    1.383   .     S
C527   C531    1.406   .     A
C527   C535    1.409   .     A
C528   O547    1.383   .     S
C528   C532    1.406   .     A
C528   C536    1.409   .     A
C529   C533    1.400   .     A
C529   C531    1.414   .     A
C529   O549    1.385   .     S
C530   C534    1.400   .     A
C530   O551    1.384   .     S
C530   C532    1.414   .     A
C533   C539    1.402   .     A
C533   C537    1.413   .     A
C534   C540    1.402   .     A
C534   C538    1.413   .     A
C535   C541    1.405   .     A
C535   C537    1.416   .     A
C536   C542    1.405   .     A
C536   C538    1.416   .     A
C537   C492    1.412   1_655 S
C539   C496    1.388   1_655 S
C541   C494    1.388   1_655 S
C544   C359    1.189   1_565 S
O545   H546    0.990   .     S
O547   H548    0.990   .     S
O549   H550    0.990   .     S
O551   H552    0.990   .     S
O553   Cu569   1.935   .     S
O553   C561    1.274   .     A
O554   Cu570   1.935   .     S
O554   C562    1.274   .     A
O555   C562    1.274   .     A
O555   Cu569   1.935   .     S
O556   Cu570   1.935   .     S
O556   C561    1.274   .     A
H557   C585    1.083   .     S
H558   C586    1.083   .     S
H559   C587    1.082   .     S
H560   C588    1.082   .     S
C561   C589    1.406   .     S
C562   C590    1.406   .     S
O563   C567    1.279   .     A
O563   Cu569   1.970   .     S
O564   C568    1.279   .     A
O564   Cu570   1.970   .     S
O565   Cu569   1.972   .     S
O565   C568    1.278   .     A
O566   C567    1.278   .     A
O566   Cu570   1.972   .     S
C567   C578    1.458   .     S
C568   C577    1.458   .     S
Cu569  N572    1.979   .     S
Cu569  Cu570   2.634   .     S
Cu570  N571    1.979   .     S
N572   N19     1.197   1_556 S
C573   O591    1.383   .     S
C573   C577    1.406   .     A
C573   C581    1.409   .     A
C574   O593    1.383   .     S
C574   C578    1.406   .     A
C574   C582    1.409   .     A
C575   C579    1.400   .     A
C575   C577    1.414   .     A
C575   O595    1.385   .     S
C576   C580    1.400   .     A
C576   O597    1.384   .     S
C576   C578    1.414   .     A
C579   C585    1.402   .     A
C579   C583    1.413   .     A
C580   C586    1.402   .     A
C580   C584    1.413   .     A
C581   C587    1.405   .     A
C581   C583    1.416   .     A
C582   C588    1.405   .     A
C582   C584    1.416   .     A
C583   C630    1.412   .     S
C584   C629    1.412   1_455 S
C585   C634    1.388   .     S
C586   C633    1.388   1_455 S
C587   C632    1.388   .     S
C588   C631    1.388   1_455 S
C589   C774    1.189   1_545 S
C590   C681    1.189   .     S
O591   H592    0.990   .     S
O593   H594    0.990   .     S
O595   H596    0.990   .     S
O597   H598    0.990   .     S
O599   Cu615   1.935   .     S
O599   C607    1.274   .     A
O600   Cu616   1.935   .     S
O600   C608    1.274   .     A
O601   C608    1.274   .     A
O601   Cu615   1.935   .     S
O602   Cu616   1.935   .     S
O602   C607    1.274   .     A
H603   C631    1.083   .     S
H604   C632    1.083   .     S
H605   C633    1.082   .     S
H606   C634    1.082   .     S
C607   C635    1.406   .     S
C608   C636    1.406   .     S
O609   C613    1.279   .     A
O609   Cu615   1.970   .     S
O610   C614    1.279   .     A
O610   Cu616   1.970   .     S
O611   Cu615   1.972   .     S
O611   C614    1.278   .     A
O612   C613    1.278   .     A
O612   Cu616   1.972   .     S
C613   C624    1.458   .     S
C614   C623    1.458   .     S
Cu615  N618    1.979   .     S
Cu615  Cu616   2.634   .     S
Cu616  N617    1.979   .     S
N618   N65     1.197   1_556 S
C619   O637    1.383   .     S
C619   C623    1.406   .     A
C619   C627    1.409   .     A
C620   O639    1.383   .     S
C620   C624    1.406   .     A
C620   C628    1.409   .     A
C621   C625    1.400   .     A
C621   C623    1.414   .     A
C621   O641    1.385   .     S
C622   C626    1.400   .     A
C622   O643    1.384   .     S
C622   C624    1.414   .     A
C625   C631    1.402   .     A
C625   C629    1.413   .     A
C626   C632    1.402   .     A
C626   C630    1.413   .     A
C627   C633    1.405   .     A
C627   C629    1.416   .     A
C628   C634    1.405   .     A
C628   C630    1.416   .     A
C629   C584    1.412   1_655 S
C631   C588    1.388   1_655 S
C633   C586    1.388   1_655 S
C635   C820    1.189   1_545 S
C636   C727    1.189   .     S
O637   H638    0.990   .     S
O639   H640    0.990   .     S
O641   H642    0.990   .     S
O643   H644    0.990   .     S
O645   Cu661   1.935   .     S
O645   C653    1.274   .     A
O646   Cu662   1.935   .     S
O646   C654    1.274   .     A
O647   C654    1.274   .     A
O647   Cu661   1.935   .     S
O648   Cu662   1.935   .     S
O648   C653    1.274   .     A
H649   C677    1.083   .     S
H650   C678    1.083   .     S
H651   C679    1.082   .     S
H652   C680    1.082   .     S
C653   C681    1.406   .     S
C654   C682    1.406   .     S
O655   C659    1.279   .     A
O655   Cu661   1.970   .     S
O656   C660    1.279   .     A
O656   Cu662   1.970   .     S
O657   Cu661   1.972   .     S
O657   C660    1.278   .     A
O658   C659    1.278   .     A
O658   Cu662   1.972   .     S
C659   C670    1.458   .     S
C660   C669    1.458   .     S
Cu661  N664    1.979   .     S
Cu661  Cu662   2.634   .     S
Cu662  N663    1.979   .     S
N664   N111    1.197   1_556 S
C665   O683    1.383   .     S
C665   C669    1.406   .     A
C665   C673    1.409   .     A
C666   O685    1.383   .     S
C666   C670    1.406   .     A
C666   C674    1.409   .     A
C667   C671    1.400   .     A
C667   C669    1.414   .     A
C667   O687    1.385   .     S
C668   C672    1.400   .     A
C668   O689    1.384   .     S
C668   C670    1.414   .     A
C671   C677    1.402   .     A
C671   C675    1.413   .     A
C672   C678    1.402   .     A
C672   C676    1.413   .     A
C673   C679    1.405   .     A
C673   C675    1.416   .     A
C674   C680    1.405   .     A
C674   C676    1.416   .     A
C675   C722    1.412   .     S
C676   C721    1.412   1_455 S
C677   C726    1.388   .     S
C678   C725    1.388   1_455 S
C679   C724    1.388   .     S
C680   C723    1.388   1_455 S
C682   C773    1.189   .     S
O683   H684    0.990   .     S
O685   H686    0.990   .     S
O687   H688    0.990   .     S
O689   H690    0.990   .     S
O691   Cu707   1.935   .     S
O691   C699    1.274   .     A
O692   Cu708   1.935   .     S
O692   C700    1.274   .     A
O693   C700    1.274   .     A
O693   Cu707   1.935   .     S
O694   Cu708   1.935   .     S
O694   C699    1.274   .     A
H695   C723    1.083   .     S
H696   C724    1.083   .     S
H697   C725    1.082   .     S
H698   C726    1.082   .     S
C699   C727    1.406   .     S
C700   C728    1.406   .     S
O701   C705    1.279   .     A
O701   Cu707   1.970   .     S
O702   C706    1.279   .     A
O702   Cu708   1.970   .     S
O703   Cu707   1.972   .     S
O703   C706    1.278   .     A
O704   C705    1.278   .     A
O704   Cu708   1.972   .     S
C705   C716    1.458   .     S
C706   C715    1.458   .     S
Cu707  N710    1.979   .     S
Cu707  Cu708   2.634   .     S
Cu708  N709    1.979   .     S
N710   N157    1.197   1_556 S
C711   O729    1.383   .     S
C711   C715    1.406   .     A
C711   C719    1.409   .     A
C712   O731    1.383   .     S
C712   C716    1.406   .     A
C712   C720    1.409   .     A
C713   C717    1.400   .     A
C713   C715    1.414   .     A
C713   O733    1.385   .     S
C714   C718    1.400   .     A
C714   O735    1.384   .     S
C714   C716    1.414   .     A
C717   C723    1.402   .     A
C717   C721    1.413   .     A
C718   C724    1.402   .     A
C718   C722    1.413   .     A
C719   C725    1.405   .     A
C719   C721    1.416   .     A
C720   C726    1.405   .     A
C720   C722    1.416   .     A
C721   C676    1.412   1_655 S
C723   C680    1.388   1_655 S
C725   C678    1.388   1_655 S
C728   C819    1.189   .     S
O729   H730    0.990   .     S
O731   H732    0.990   .     S
O733   H734    0.990   .     S
O735   H736    0.990   .     S
O737   Cu753   1.935   .     S
O737   C745    1.274   .     A
O738   Cu754   1.935   .     S
O738   C746    1.274   .     A
O739   C746    1.274   .     A
O739   Cu753   1.935   .     S
O740   Cu754   1.935   .     S
O740   C745    1.274   .     A
H741   C769    1.083   .     S
H742   C770    1.083   .     S
H743   C771    1.082   .     S
H744   C772    1.082   .     S
C745   C773    1.406   .     S
C746   C774    1.406   .     S
O747   C751    1.279   .     A
O747   Cu753   1.970   .     S
O748   C752    1.279   .     A
O748   Cu754   1.970   .     S
O749   Cu753   1.972   .     S
O749   C752    1.278   .     A
O750   C751    1.278   .     A
O750   Cu754   1.972   .     S
C751   C762    1.458   .     S
C752   C761    1.458   .     S
Cu753  N756    1.979   .     S
Cu753  Cu754   2.634   .     S
Cu754  N755    1.979   .     S
N756   N203    1.197   1_556 S
C757   O775    1.383   .     S
C757   C761    1.406   .     A
C757   C765    1.409   .     A
C758   O777    1.383   .     S
C758   C762    1.406   .     A
C758   C766    1.409   .     A
C759   C763    1.400   .     A
C759   C761    1.414   .     A
C759   O779    1.385   .     S
C760   C764    1.400   .     A
C760   O781    1.384   .     S
C760   C762    1.414   .     A
C763   C769    1.402   .     A
C763   C767    1.413   .     A
C764   C770    1.402   .     A
C764   C768    1.413   .     A
C765   C771    1.405   .     A
C765   C767    1.416   .     A
C766   C772    1.405   .     A
C766   C768    1.416   .     A
C767   C814    1.412   .     S
C768   C813    1.412   1_455 S
C769   C818    1.388   .     S
C770   C817    1.388   1_455 S
C771   C816    1.388   .     S
C772   C815    1.388   1_455 S
C774   C589    1.189   1_565 S
O775   H776    0.990   .     S
O777   H778    0.990   .     S
O779   H780    0.990   .     S
O781   H782    0.990   .     S
O783   Cu799   1.935   .     S
O783   C791    1.274   .     A
O784   Cu800   1.935   .     S
O784   C792    1.274   .     A
O785   C792    1.274   .     A
O785   Cu799   1.935   .     S
O786   Cu800   1.935   .     S
O786   C791    1.274   .     A
H787   C815    1.083   .     S
H788   C816    1.083   .     S
H789   C817    1.082   .     S
H790   C818    1.082   .     S
C791   C819    1.406   .     S
C792   C820    1.406   .     S
O793   C797    1.279   .     A
O793   Cu799   1.970   .     S
O794   C798    1.279   .     A
O794   Cu800   1.970   .     S
O795   Cu799   1.972   .     S
O795   C798    1.278   .     A
O796   C797    1.278   .     A
O796   Cu800   1.972   .     S
C797   C808    1.458   .     S
C798   C807    1.458   .     S
Cu799  N802    1.979   .     S
Cu799  Cu800   2.634   .     S
Cu800  N801    1.979   .     S
N802   N249    1.197   1_556 S
C803   O821    1.383   .     S
C803   C807    1.406   .     A
C803   C811    1.409   .     A
C804   O823    1.383   .     S
C804   C808    1.406   .     A
C804   C812    1.409   .     A
C805   C809    1.400   .     A
C805   C807    1.414   .     A
C805   O825    1.385   .     S
C806   C810    1.400   .     A
C806   O827    1.384   .     S
C806   C808    1.414   .     A
C809   C815    1.402   .     A
C809   C813    1.413   .     A
C810   C816    1.402   .     A
C810   C814    1.413   .     A
C811   C817    1.405   .     A
C811   C813    1.416   .     A
C812   C818    1.405   .     A
C812   C814    1.416   .     A
C813   C768    1.412   1_655 S
C815   C772    1.388   1_655 S
C817   C770    1.388   1_655 S
C820   C635    1.189   1_565 S
O821   H822    0.990   .     S
O823   H824    0.990   .     S
O825   H826    0.990   .     S
O827   H828    0.990   .     S
