data_str_m2_o10_o18_pcu_sym.108
_audit_creation_date              2020-01-03
_audit_creation_method            'Materials Studio'
_symmetry_space_group_name_H-M    'P1'
_symmetry_Int_Tables_number       1
_symmetry_cell_setting            triclinic
loop_
_symmetry_equiv_pos_as_xyz
  x,y,z
_cell_length_a                    22.2667
_cell_length_b                    26.2113
_cell_length_c                    31.6772
_cell_angle_alpha                 94.3138
_cell_angle_beta                  74.9747
_cell_angle_gamma                 103.0929
loop_
_atom_site_label
_atom_site_type_symbol
_atom_site_fract_x
_atom_site_fract_y
_atom_site_fract_z
_atom_site_U_iso_or_equiv
_atom_site_adp_type
_atom_site_occupancy
C1     C     0.18158   0.26660   0.25129   0.00000  Uiso   1.00
C2     C     0.15175   0.06673   0.24872   0.00000  Uiso   1.00
C3     C     0.09736   0.12301   0.03647   0.00000  Uiso   1.00
C4     C     0.23593   0.21056   0.46356   0.00000  Uiso   1.00
C5     C     0.05207   0.11512   0.01228   0.00000  Uiso   1.00
C6     C     0.28121   0.21846   0.48776   0.00000  Uiso   1.00
C7     C     0.19015   0.32228   0.25186   0.00000  Uiso   1.00
C8     C     0.14318   0.01105   0.24814   0.00000  Uiso   1.00
C9     C     0.12786   0.16265   0.33321   0.00000  Uiso   1.00
C10    C     0.20548   0.17069   0.16679   0.00000  Uiso   1.00
C11    C     0.10418   0.15747   0.38098   0.00000  Uiso   1.00
C12    C     0.22914   0.17593   0.11902   0.00000  Uiso   1.00
C13    C     0.02261   0.12386   0.44515   0.00000  Uiso   1.00
C14    C     0.31069   0.20967   0.05488   0.00000  Uiso   1.00
C15    C     0.04023   0.13622   0.40099   0.00000  Uiso   1.00
C16    C     0.29309   0.19719   0.09901   0.00000  Uiso   1.00
C17    C     0.14851   0.17019   0.40653   0.00000  Uiso   1.00
C18    C     0.18480   0.16330   0.09349   0.00000  Uiso   1.00
C19    C     0.13085   0.16214   0.45181   0.00000  Uiso   1.00
C20    C     0.20244   0.17141   0.04822   0.00000  Uiso   1.00
C21    C     0.06786   0.13473   0.47023   0.00000  Uiso   1.00
C22    C     0.26544   0.19883   0.02980   0.00000  Uiso   1.00
C23    C     0.17526   0.17664   0.47838   0.00000  Uiso   1.00
C24    C     0.15803   0.15694   0.02165   0.00000  Uiso   1.00
Cu25   Cu    0.10737   0.16108   0.24516   0.00000  Uiso   1.00
Cu26   Cu    0.22596   0.17225   0.25484   0.00000  Uiso   1.00
N27    N     0.31506   0.18068   0.26212   0.00000  Uiso   1.00
N28    N     0.01827   0.15265   0.23788   0.00000  Uiso   1.00
O29    O     0.12815   0.23809   0.24686   0.00000  Uiso   1.00
O30    O     0.20518   0.09524   0.25314   0.00000  Uiso   1.00
O31    O     0.22829   0.24753   0.25503   0.00000  Uiso   1.00
O32    O     0.10504   0.08580   0.24498   0.00000  Uiso   1.00
O33    O     0.08851   0.15930   0.30854   0.00000  Uiso   1.00
O34    O     0.24482   0.17403   0.19146   0.00000  Uiso   1.00
O35    O     0.18866   0.16874   0.31671   0.00000  Uiso   1.00
O36    O     0.14468   0.16460   0.18329   0.00000  Uiso   1.00
F37    F     0.32696   0.08461   0.02898   0.00000  Uiso   1.00
F38    F     0.00632   0.24896   0.47105   0.00000  Uiso   1.00
H39    H     0.13552   0.15098   0.11027   0.00000  Uiso   1.00
H40    H     0.19778   0.18253   0.38975   0.00000  Uiso   1.00
F41    F     0.00426   0.20961   0.12253   0.00000  Uiso   1.00
F42    F     0.32911   0.12364   0.37746   0.00000  Uiso   1.00
H43    H     0.30714   0.10435   0.45936   0.00000  Uiso   1.00
H44    H     0.02615   0.22919   0.04068   0.00000  Uiso   1.00
F45    F     0.08206   0.09344   0.07262   0.00000  Uiso   1.00
F46    F     0.25124   0.24009   0.42740   0.00000  Uiso   1.00
F47    F     0.24755   0.01769   0.25623   0.00000  Uiso   1.00
F48    F     0.08578   0.31564   0.24377   0.00000  Uiso   1.00
H49    H     0.00135   0.20486   0.28442   0.00000  Uiso   1.00
H50    H     0.33198   0.12847   0.21558   0.00000  Uiso   1.00
C51    C     0.51492   0.26660   0.25129   0.00000  Uiso   1.00
C52    C     0.48508   0.06673   0.24872   0.00000  Uiso   1.00
C53    C     0.43069   0.12301   0.03647   0.00000  Uiso   1.00
C54    C     0.56926   0.21056   0.46356   0.00000  Uiso   1.00
C55    C     0.38541   0.11512   0.01228   0.00000  Uiso   1.00
C56    C     0.61454   0.21846   0.48776   0.00000  Uiso   1.00
C57    C     0.52349   0.32228   0.25186   0.00000  Uiso   1.00
C58    C     0.47651   0.01105   0.24814   0.00000  Uiso   1.00
C59    C     0.46119   0.16265   0.33321   0.00000  Uiso   1.00
C60    C     0.53881   0.17069   0.16679   0.00000  Uiso   1.00
C61    C     0.43752   0.15747   0.38098   0.00000  Uiso   1.00
C62    C     0.56247   0.17593   0.11902   0.00000  Uiso   1.00
C63    C     0.35595   0.12386   0.44515   0.00000  Uiso   1.00
C64    C     0.64402   0.20967   0.05488   0.00000  Uiso   1.00
C65    C     0.37357   0.13622   0.40099   0.00000  Uiso   1.00
C66    C     0.62642   0.19719   0.09901   0.00000  Uiso   1.00
C67    C     0.48184   0.17019   0.40653   0.00000  Uiso   1.00
C68    C     0.51813   0.16330   0.09349   0.00000  Uiso   1.00
C69    C     0.46418   0.16214   0.45181   0.00000  Uiso   1.00
C70    C     0.53578   0.17141   0.04822   0.00000  Uiso   1.00
C71    C     0.40119   0.13473   0.47023   0.00000  Uiso   1.00
C72    C     0.59877   0.19883   0.02980   0.00000  Uiso   1.00
C73    C     0.50859   0.17664   0.47838   0.00000  Uiso   1.00
C74    C     0.49136   0.15694   0.02165   0.00000  Uiso   1.00
Cu75   Cu    0.44071   0.16108   0.24516   0.00000  Uiso   1.00
Cu76   Cu    0.55929   0.17225   0.25484   0.00000  Uiso   1.00
N77    N     0.64839   0.18068   0.26212   0.00000  Uiso   1.00
N78    N     0.35161   0.15265   0.23788   0.00000  Uiso   1.00
O79    O     0.46148   0.23809   0.24686   0.00000  Uiso   1.00
O80    O     0.53852   0.09524   0.25314   0.00000  Uiso   1.00
O81    O     0.56163   0.24753   0.25503   0.00000  Uiso   1.00
O82    O     0.43837   0.08580   0.24498   0.00000  Uiso   1.00
O83    O     0.42185   0.15930   0.30854   0.00000  Uiso   1.00
O84    O     0.57815   0.17403   0.19146   0.00000  Uiso   1.00
O85    O     0.52199   0.16874   0.31671   0.00000  Uiso   1.00
O86    O     0.47801   0.16460   0.18329   0.00000  Uiso   1.00
F87    F     0.66029   0.08461   0.02898   0.00000  Uiso   1.00
F88    F     0.33966   0.24896   0.47105   0.00000  Uiso   1.00
H89    H     0.46885   0.15098   0.11027   0.00000  Uiso   1.00
H90    H     0.53112   0.18253   0.38975   0.00000  Uiso   1.00
F91    F     0.33759   0.20961   0.12253   0.00000  Uiso   1.00
F92    F     0.66244   0.12364   0.37746   0.00000  Uiso   1.00
H93    H     0.64047   0.10435   0.45936   0.00000  Uiso   1.00
H94    H     0.35949   0.22919   0.04068   0.00000  Uiso   1.00
F95    F     0.41539   0.09344   0.07262   0.00000  Uiso   1.00
F96    F     0.58457   0.24009   0.42740   0.00000  Uiso   1.00
F97    F     0.58088   0.01769   0.25623   0.00000  Uiso   1.00
F98    F     0.41912   0.31564   0.24377   0.00000  Uiso   1.00
H99    H     0.33468   0.20486   0.28442   0.00000  Uiso   1.00
H100   H     0.66532   0.12847   0.21558   0.00000  Uiso   1.00
C101   C     0.84825   0.26660   0.25129   0.00000  Uiso   1.00
C102   C     0.81842   0.06673   0.24872   0.00000  Uiso   1.00
C103   C     0.76402   0.12301   0.03647   0.00000  Uiso   1.00
C104   C     0.90260   0.21056   0.46356   0.00000  Uiso   1.00
C105   C     0.71874   0.11512   0.01228   0.00000  Uiso   1.00
C106   C     0.94788   0.21846   0.48776   0.00000  Uiso   1.00
C107   C     0.85682   0.32228   0.25186   0.00000  Uiso   1.00
C108   C     0.80985   0.01105   0.24814   0.00000  Uiso   1.00
C109   C     0.79452   0.16265   0.33321   0.00000  Uiso   1.00
C110   C     0.87214   0.17069   0.16679   0.00000  Uiso   1.00
C111   C     0.77085   0.15747   0.38098   0.00000  Uiso   1.00
C112   C     0.89581   0.17593   0.11902   0.00000  Uiso   1.00
C113   C     0.68928   0.12386   0.44515   0.00000  Uiso   1.00
C114   C     0.97735   0.20967   0.05488   0.00000  Uiso   1.00
C115   C     0.70690   0.13622   0.40099   0.00000  Uiso   1.00
C116   C     0.95976   0.19719   0.09901   0.00000  Uiso   1.00
C117   C     0.81517   0.17019   0.40653   0.00000  Uiso   1.00
C118   C     0.85147   0.16330   0.09349   0.00000  Uiso   1.00
C119   C     0.79752   0.16214   0.45181   0.00000  Uiso   1.00
C120   C     0.86911   0.17141   0.04822   0.00000  Uiso   1.00
C121   C     0.73452   0.13473   0.47023   0.00000  Uiso   1.00
C122   C     0.93210   0.19883   0.02980   0.00000  Uiso   1.00
C123   C     0.84192   0.17664   0.47838   0.00000  Uiso   1.00
C124   C     0.82470   0.15694   0.02165   0.00000  Uiso   1.00
Cu125  Cu    0.77404   0.16108   0.24516   0.00000  Uiso   1.00
Cu126  Cu    0.89263   0.17225   0.25484   0.00000  Uiso   1.00
N127   N     0.98173   0.18068   0.26212   0.00000  Uiso   1.00
N128   N     0.68494   0.15265   0.23788   0.00000  Uiso   1.00
O129   O     0.79482   0.23809   0.24686   0.00000  Uiso   1.00
O130   O     0.87185   0.09524   0.25314   0.00000  Uiso   1.00
O131   O     0.89496   0.24753   0.25503   0.00000  Uiso   1.00
O132   O     0.77171   0.08580   0.24498   0.00000  Uiso   1.00
O133   O     0.75518   0.15930   0.30854   0.00000  Uiso   1.00
O134   O     0.91149   0.17403   0.19146   0.00000  Uiso   1.00
O135   O     0.85532   0.16874   0.31671   0.00000  Uiso   1.00
O136   O     0.81134   0.16460   0.18329   0.00000  Uiso   1.00
F137   F     0.99363   0.08461   0.02898   0.00000  Uiso   1.00
F138   F     0.67299   0.24896   0.47105   0.00000  Uiso   1.00
H139   H     0.80219   0.15098   0.11027   0.00000  Uiso   1.00
H140   H     0.86445   0.18253   0.38975   0.00000  Uiso   1.00
F141   F     0.67093   0.20961   0.12253   0.00000  Uiso   1.00
F142   F     0.99578   0.12364   0.37746   0.00000  Uiso   1.00
H143   H     0.97381   0.10435   0.45936   0.00000  Uiso   1.00
H144   H     0.69282   0.22919   0.04068   0.00000  Uiso   1.00
F145   F     0.74873   0.09344   0.07262   0.00000  Uiso   1.00
F146   F     0.91790   0.24009   0.42740   0.00000  Uiso   1.00
F147   F     0.91422   0.01769   0.25623   0.00000  Uiso   1.00
F148   F     0.75245   0.31564   0.24377   0.00000  Uiso   1.00
H149   H     0.66802   0.20486   0.28442   0.00000  Uiso   1.00
H150   H     0.99865   0.12847   0.21558   0.00000  Uiso   1.00
C151   C     0.18158   0.59994   0.25129   0.00000  Uiso   1.00
C152   C     0.15175   0.40006   0.24872   0.00000  Uiso   1.00
C153   C     0.09736   0.45635   0.03647   0.00000  Uiso   1.00
C154   C     0.23593   0.54389   0.46356   0.00000  Uiso   1.00
C155   C     0.05207   0.44846   0.01228   0.00000  Uiso   1.00
C156   C     0.28121   0.55179   0.48776   0.00000  Uiso   1.00
C157   C     0.19015   0.65562   0.25186   0.00000  Uiso   1.00
C158   C     0.14318   0.34438   0.24814   0.00000  Uiso   1.00
C159   C     0.12786   0.49599   0.33321   0.00000  Uiso   1.00
C160   C     0.20548   0.50402   0.16679   0.00000  Uiso   1.00
C161   C     0.10418   0.49080   0.38098   0.00000  Uiso   1.00
C162   C     0.22914   0.50926   0.11902   0.00000  Uiso   1.00
C163   C     0.02261   0.45719   0.44515   0.00000  Uiso   1.00
C164   C     0.31069   0.54300   0.05488   0.00000  Uiso   1.00
C165   C     0.04023   0.46955   0.40099   0.00000  Uiso   1.00
C166   C     0.29309   0.53052   0.09901   0.00000  Uiso   1.00
C167   C     0.14851   0.50352   0.40653   0.00000  Uiso   1.00
C168   C     0.18480   0.49664   0.09349   0.00000  Uiso   1.00
C169   C     0.13085   0.49547   0.45181   0.00000  Uiso   1.00
C170   C     0.20244   0.50475   0.04822   0.00000  Uiso   1.00
C171   C     0.06786   0.46807   0.47023   0.00000  Uiso   1.00
C172   C     0.26544   0.53216   0.02980   0.00000  Uiso   1.00
C173   C     0.17526   0.50997   0.47838   0.00000  Uiso   1.00
C174   C     0.15803   0.49027   0.02165   0.00000  Uiso   1.00
Cu175  Cu    0.10737   0.49441   0.24516   0.00000  Uiso   1.00
Cu176  Cu    0.22596   0.50559   0.25484   0.00000  Uiso   1.00
N177   N     0.31506   0.51401   0.26212   0.00000  Uiso   1.00
N178   N     0.01827   0.48599   0.23788   0.00000  Uiso   1.00
O179   O     0.12815   0.57142   0.24686   0.00000  Uiso   1.00
O180   O     0.20518   0.42858   0.25314   0.00000  Uiso   1.00
O181   O     0.22829   0.58086   0.25503   0.00000  Uiso   1.00
O182   O     0.10504   0.41914   0.24498   0.00000  Uiso   1.00
O183   O     0.08851   0.49263   0.30854   0.00000  Uiso   1.00
O184   O     0.24482   0.50737   0.19146   0.00000  Uiso   1.00
O185   O     0.18866   0.50207   0.31671   0.00000  Uiso   1.00
O186   O     0.14468   0.49793   0.18329   0.00000  Uiso   1.00
F187   F     0.32696   0.41795   0.02898   0.00000  Uiso   1.00
F188   F     0.00632   0.58230   0.47105   0.00000  Uiso   1.00
H189   H     0.13552   0.48431   0.11027   0.00000  Uiso   1.00
H190   H     0.19778   0.51587   0.38975   0.00000  Uiso   1.00
F191   F     0.00426   0.54295   0.12253   0.00000  Uiso   1.00
F192   F     0.32911   0.45698   0.37746   0.00000  Uiso   1.00
H193   H     0.30714   0.43769   0.45936   0.00000  Uiso   1.00
H194   H     0.02615   0.56252   0.04068   0.00000  Uiso   1.00
F195   F     0.08206   0.42678   0.07262   0.00000  Uiso   1.00
F196   F     0.25124   0.57343   0.42740   0.00000  Uiso   1.00
F197   F     0.24755   0.35102   0.25623   0.00000  Uiso   1.00
F198   F     0.08578   0.64898   0.24377   0.00000  Uiso   1.00
H199   H     0.00135   0.53820   0.28442   0.00000  Uiso   1.00
H200   H     0.33198   0.46180   0.21558   0.00000  Uiso   1.00
C201   C     0.51492   0.59994   0.25129   0.00000  Uiso   1.00
C202   C     0.48508   0.40006   0.24872   0.00000  Uiso   1.00
C203   C     0.43069   0.45635   0.03647   0.00000  Uiso   1.00
C204   C     0.56926   0.54389   0.46356   0.00000  Uiso   1.00
C205   C     0.38541   0.44846   0.01228   0.00000  Uiso   1.00
C206   C     0.61454   0.55179   0.48776   0.00000  Uiso   1.00
C207   C     0.52349   0.65562   0.25186   0.00000  Uiso   1.00
C208   C     0.47651   0.34438   0.24814   0.00000  Uiso   1.00
C209   C     0.46119   0.49599   0.33321   0.00000  Uiso   1.00
C210   C     0.53881   0.50402   0.16679   0.00000  Uiso   1.00
C211   C     0.43752   0.49080   0.38098   0.00000  Uiso   1.00
C212   C     0.56247   0.50926   0.11902   0.00000  Uiso   1.00
C213   C     0.35595   0.45719   0.44515   0.00000  Uiso   1.00
C214   C     0.64402   0.54300   0.05488   0.00000  Uiso   1.00
C215   C     0.37357   0.46955   0.40099   0.00000  Uiso   1.00
C216   C     0.62642   0.53052   0.09901   0.00000  Uiso   1.00
C217   C     0.48184   0.50352   0.40653   0.00000  Uiso   1.00
C218   C     0.51813   0.49664   0.09349   0.00000  Uiso   1.00
C219   C     0.46418   0.49547   0.45181   0.00000  Uiso   1.00
C220   C     0.53578   0.50475   0.04822   0.00000  Uiso   1.00
C221   C     0.40119   0.46807   0.47023   0.00000  Uiso   1.00
C222   C     0.59877   0.53216   0.02980   0.00000  Uiso   1.00
C223   C     0.50859   0.50997   0.47838   0.00000  Uiso   1.00
C224   C     0.49136   0.49027   0.02165   0.00000  Uiso   1.00
Cu225  Cu    0.44071   0.49441   0.24516   0.00000  Uiso   1.00
Cu226  Cu    0.55929   0.50559   0.25484   0.00000  Uiso   1.00
N227   N     0.64839   0.51401   0.26212   0.00000  Uiso   1.00
N228   N     0.35161   0.48599   0.23788   0.00000  Uiso   1.00
O229   O     0.46148   0.57142   0.24686   0.00000  Uiso   1.00
O230   O     0.53852   0.42858   0.25314   0.00000  Uiso   1.00
O231   O     0.56163   0.58086   0.25503   0.00000  Uiso   1.00
O232   O     0.43837   0.41914   0.24498   0.00000  Uiso   1.00
O233   O     0.42185   0.49263   0.30854   0.00000  Uiso   1.00
O234   O     0.57815   0.50737   0.19146   0.00000  Uiso   1.00
O235   O     0.52199   0.50207   0.31671   0.00000  Uiso   1.00
O236   O     0.47801   0.49793   0.18329   0.00000  Uiso   1.00
F237   F     0.66029   0.41795   0.02898   0.00000  Uiso   1.00
F238   F     0.33966   0.58230   0.47105   0.00000  Uiso   1.00
H239   H     0.46885   0.48431   0.11027   0.00000  Uiso   1.00
H240   H     0.53112   0.51587   0.38975   0.00000  Uiso   1.00
F241   F     0.33759   0.54295   0.12253   0.00000  Uiso   1.00
F242   F     0.66244   0.45698   0.37746   0.00000  Uiso   1.00
H243   H     0.64047   0.43769   0.45936   0.00000  Uiso   1.00
H244   H     0.35949   0.56252   0.04068   0.00000  Uiso   1.00
F245   F     0.41539   0.42678   0.07262   0.00000  Uiso   1.00
F246   F     0.58457   0.57343   0.42740   0.00000  Uiso   1.00
F247   F     0.58088   0.35102   0.25623   0.00000  Uiso   1.00
F248   F     0.41912   0.64898   0.24377   0.00000  Uiso   1.00
H249   H     0.33468   0.53820   0.28442   0.00000  Uiso   1.00
H250   H     0.66532   0.46180   0.21558   0.00000  Uiso   1.00
C251   C     0.84825   0.59994   0.25129   0.00000  Uiso   1.00
C252   C     0.81842   0.40006   0.24872   0.00000  Uiso   1.00
C253   C     0.76402   0.45635   0.03647   0.00000  Uiso   1.00
C254   C     0.90260   0.54389   0.46356   0.00000  Uiso   1.00
C255   C     0.71874   0.44846   0.01228   0.00000  Uiso   1.00
C256   C     0.94788   0.55179   0.48776   0.00000  Uiso   1.00
C257   C     0.85682   0.65562   0.25186   0.00000  Uiso   1.00
C258   C     0.80985   0.34438   0.24814   0.00000  Uiso   1.00
C259   C     0.79452   0.49599   0.33321   0.00000  Uiso   1.00
C260   C     0.87214   0.50402   0.16679   0.00000  Uiso   1.00
C261   C     0.77085   0.49080   0.38098   0.00000  Uiso   1.00
C262   C     0.89581   0.50926   0.11902   0.00000  Uiso   1.00
C263   C     0.68928   0.45719   0.44515   0.00000  Uiso   1.00
C264   C     0.97735   0.54300   0.05488   0.00000  Uiso   1.00
C265   C     0.70690   0.46955   0.40099   0.00000  Uiso   1.00
C266   C     0.95976   0.53052   0.09901   0.00000  Uiso   1.00
C267   C     0.81517   0.50352   0.40653   0.00000  Uiso   1.00
C268   C     0.85147   0.49664   0.09349   0.00000  Uiso   1.00
C269   C     0.79752   0.49547   0.45181   0.00000  Uiso   1.00
C270   C     0.86911   0.50475   0.04822   0.00000  Uiso   1.00
C271   C     0.73452   0.46807   0.47023   0.00000  Uiso   1.00
C272   C     0.93210   0.53216   0.02980   0.00000  Uiso   1.00
C273   C     0.84192   0.50997   0.47838   0.00000  Uiso   1.00
C274   C     0.82470   0.49027   0.02165   0.00000  Uiso   1.00
Cu275  Cu    0.77404   0.49441   0.24516   0.00000  Uiso   1.00
Cu276  Cu    0.89263   0.50559   0.25484   0.00000  Uiso   1.00
N277   N     0.98173   0.51401   0.26212   0.00000  Uiso   1.00
N278   N     0.68494   0.48599   0.23788   0.00000  Uiso   1.00
O279   O     0.79482   0.57142   0.24686   0.00000  Uiso   1.00
O280   O     0.87185   0.42858   0.25314   0.00000  Uiso   1.00
O281   O     0.89496   0.58086   0.25503   0.00000  Uiso   1.00
O282   O     0.77171   0.41914   0.24498   0.00000  Uiso   1.00
O283   O     0.75518   0.49263   0.30854   0.00000  Uiso   1.00
O284   O     0.91149   0.50737   0.19146   0.00000  Uiso   1.00
O285   O     0.85532   0.50207   0.31671   0.00000  Uiso   1.00
O286   O     0.81134   0.49793   0.18329   0.00000  Uiso   1.00
F287   F     0.99363   0.41795   0.02898   0.00000  Uiso   1.00
F288   F     0.67299   0.58230   0.47105   0.00000  Uiso   1.00
H289   H     0.80219   0.48431   0.11027   0.00000  Uiso   1.00
H290   H     0.86445   0.51587   0.38975   0.00000  Uiso   1.00
F291   F     0.67093   0.54295   0.12253   0.00000  Uiso   1.00
F292   F     0.99578   0.45698   0.37746   0.00000  Uiso   1.00
H293   H     0.97381   0.43769   0.45936   0.00000  Uiso   1.00
H294   H     0.69282   0.56252   0.04068   0.00000  Uiso   1.00
F295   F     0.74873   0.42678   0.07262   0.00000  Uiso   1.00
F296   F     0.91790   0.57343   0.42740   0.00000  Uiso   1.00
F297   F     0.91422   0.35102   0.25623   0.00000  Uiso   1.00
F298   F     0.75245   0.64898   0.24377   0.00000  Uiso   1.00
H299   H     0.66802   0.53820   0.28442   0.00000  Uiso   1.00
H300   H     0.99865   0.46180   0.21558   0.00000  Uiso   1.00
C301   C     0.18158   0.93327   0.25129   0.00000  Uiso   1.00
C302   C     0.15175   0.73340   0.24872   0.00000  Uiso   1.00
C303   C     0.09736   0.78968   0.03647   0.00000  Uiso   1.00
C304   C     0.23593   0.87722   0.46356   0.00000  Uiso   1.00
C305   C     0.05207   0.78179   0.01228   0.00000  Uiso   1.00
C306   C     0.28121   0.88512   0.48776   0.00000  Uiso   1.00
C307   C     0.19015   0.98895   0.25186   0.00000  Uiso   1.00
C308   C     0.14318   0.67772   0.24814   0.00000  Uiso   1.00
C309   C     0.12786   0.82932   0.33321   0.00000  Uiso   1.00
C310   C     0.20548   0.83735   0.16679   0.00000  Uiso   1.00
C311   C     0.10418   0.82413   0.38098   0.00000  Uiso   1.00
C312   C     0.22914   0.84259   0.11902   0.00000  Uiso   1.00
C313   C     0.02261   0.79052   0.44515   0.00000  Uiso   1.00
C314   C     0.31069   0.87633   0.05488   0.00000  Uiso   1.00
C315   C     0.04023   0.80288   0.40099   0.00000  Uiso   1.00
C316   C     0.29309   0.86386   0.09901   0.00000  Uiso   1.00
C317   C     0.14851   0.83686   0.40653   0.00000  Uiso   1.00
C318   C     0.18480   0.82997   0.09349   0.00000  Uiso   1.00
C319   C     0.13085   0.82880   0.45181   0.00000  Uiso   1.00
C320   C     0.20244   0.83808   0.04822   0.00000  Uiso   1.00
C321   C     0.06786   0.80140   0.47023   0.00000  Uiso   1.00
C322   C     0.26544   0.86550   0.02980   0.00000  Uiso   1.00
C323   C     0.17526   0.84330   0.47838   0.00000  Uiso   1.00
C324   C     0.15803   0.82360   0.02165   0.00000  Uiso   1.00
Cu325  Cu    0.10737   0.82775   0.24516   0.00000  Uiso   1.00
Cu326  Cu    0.22596   0.83892   0.25484   0.00000  Uiso   1.00
N327   N     0.31506   0.84735   0.26212   0.00000  Uiso   1.00
N328   N     0.01827   0.81932   0.23788   0.00000  Uiso   1.00
O329   O     0.12815   0.90476   0.24686   0.00000  Uiso   1.00
O330   O     0.20518   0.76191   0.25314   0.00000  Uiso   1.00
O331   O     0.22829   0.91420   0.25503   0.00000  Uiso   1.00
O332   O     0.10504   0.75247   0.24498   0.00000  Uiso   1.00
O333   O     0.08851   0.82597   0.30854   0.00000  Uiso   1.00
O334   O     0.24482   0.84070   0.19146   0.00000  Uiso   1.00
O335   O     0.18866   0.83540   0.31671   0.00000  Uiso   1.00
O336   O     0.14468   0.83126   0.18329   0.00000  Uiso   1.00
F337   F     0.32696   0.75128   0.02898   0.00000  Uiso   1.00
F338   F     0.00632   0.91563   0.47105   0.00000  Uiso   1.00
H339   H     0.13552   0.81764   0.11027   0.00000  Uiso   1.00
H340   H     0.19778   0.84920   0.38975   0.00000  Uiso   1.00
F341   F     0.00426   0.87628   0.12253   0.00000  Uiso   1.00
F342   F     0.32911   0.79031   0.37746   0.00000  Uiso   1.00
H343   H     0.30714   0.77102   0.45936   0.00000  Uiso   1.00
H344   H     0.02615   0.89585   0.04068   0.00000  Uiso   1.00
F345   F     0.08206   0.76011   0.07262   0.00000  Uiso   1.00
F346   F     0.25124   0.90676   0.42740   0.00000  Uiso   1.00
F347   F     0.24755   0.68436   0.25623   0.00000  Uiso   1.00
F348   F     0.08578   0.98231   0.24377   0.00000  Uiso   1.00
H349   H     0.00135   0.87153   0.28442   0.00000  Uiso   1.00
H350   H     0.33198   0.79514   0.21558   0.00000  Uiso   1.00
C351   C     0.51492   0.93327   0.25129   0.00000  Uiso   1.00
C352   C     0.48508   0.73340   0.24872   0.00000  Uiso   1.00
C353   C     0.43069   0.78968   0.03647   0.00000  Uiso   1.00
C354   C     0.56926   0.87722   0.46356   0.00000  Uiso   1.00
C355   C     0.38541   0.78179   0.01228   0.00000  Uiso   1.00
C356   C     0.61454   0.88512   0.48776   0.00000  Uiso   1.00
C357   C     0.52349   0.98895   0.25186   0.00000  Uiso   1.00
C358   C     0.47651   0.67772   0.24814   0.00000  Uiso   1.00
C359   C     0.46119   0.82932   0.33321   0.00000  Uiso   1.00
C360   C     0.53881   0.83735   0.16679   0.00000  Uiso   1.00
C361   C     0.43752   0.82413   0.38098   0.00000  Uiso   1.00
C362   C     0.56247   0.84259   0.11902   0.00000  Uiso   1.00
C363   C     0.35595   0.79052   0.44515   0.00000  Uiso   1.00
C364   C     0.64402   0.87633   0.05488   0.00000  Uiso   1.00
C365   C     0.37357   0.80288   0.40099   0.00000  Uiso   1.00
C366   C     0.62642   0.86386   0.09901   0.00000  Uiso   1.00
C367   C     0.48184   0.83686   0.40653   0.00000  Uiso   1.00
C368   C     0.51813   0.82997   0.09349   0.00000  Uiso   1.00
C369   C     0.46418   0.82880   0.45181   0.00000  Uiso   1.00
C370   C     0.53578   0.83808   0.04822   0.00000  Uiso   1.00
C371   C     0.40119   0.80140   0.47023   0.00000  Uiso   1.00
C372   C     0.59877   0.86550   0.02980   0.00000  Uiso   1.00
C373   C     0.50859   0.84330   0.47838   0.00000  Uiso   1.00
C374   C     0.49136   0.82360   0.02165   0.00000  Uiso   1.00
Cu375  Cu    0.44071   0.82775   0.24516   0.00000  Uiso   1.00
Cu376  Cu    0.55929   0.83892   0.25484   0.00000  Uiso   1.00
N377   N     0.64839   0.84735   0.26212   0.00000  Uiso   1.00
N378   N     0.35161   0.81932   0.23788   0.00000  Uiso   1.00
O379   O     0.46148   0.90476   0.24686   0.00000  Uiso   1.00
O380   O     0.53852   0.76191   0.25314   0.00000  Uiso   1.00
O381   O     0.56163   0.91420   0.25503   0.00000  Uiso   1.00
O382   O     0.43837   0.75247   0.24498   0.00000  Uiso   1.00
O383   O     0.42185   0.82597   0.30854   0.00000  Uiso   1.00
O384   O     0.57815   0.84070   0.19146   0.00000  Uiso   1.00
O385   O     0.52199   0.83540   0.31671   0.00000  Uiso   1.00
O386   O     0.47801   0.83126   0.18329   0.00000  Uiso   1.00
F387   F     0.66029   0.75128   0.02898   0.00000  Uiso   1.00
F388   F     0.33966   0.91563   0.47105   0.00000  Uiso   1.00
H389   H     0.46885   0.81764   0.11027   0.00000  Uiso   1.00
H390   H     0.53112   0.84920   0.38975   0.00000  Uiso   1.00
F391   F     0.33759   0.87628   0.12253   0.00000  Uiso   1.00
F392   F     0.66244   0.79031   0.37746   0.00000  Uiso   1.00
H393   H     0.64047   0.77102   0.45936   0.00000  Uiso   1.00
H394   H     0.35949   0.89585   0.04068   0.00000  Uiso   1.00
F395   F     0.41539   0.76011   0.07262   0.00000  Uiso   1.00
F396   F     0.58457   0.90676   0.42740   0.00000  Uiso   1.00
F397   F     0.58088   0.68436   0.25623   0.00000  Uiso   1.00
F398   F     0.41912   0.98231   0.24377   0.00000  Uiso   1.00
H399   H     0.33468   0.87153   0.28442   0.00000  Uiso   1.00
H400   H     0.66532   0.79514   0.21558   0.00000  Uiso   1.00
C401   C     0.84825   0.93327   0.25129   0.00000  Uiso   1.00
C402   C     0.81842   0.73340   0.24872   0.00000  Uiso   1.00
C403   C     0.76402   0.78968   0.03647   0.00000  Uiso   1.00
C404   C     0.90260   0.87722   0.46356   0.00000  Uiso   1.00
C405   C     0.71874   0.78179   0.01228   0.00000  Uiso   1.00
C406   C     0.94788   0.88512   0.48776   0.00000  Uiso   1.00
C407   C     0.85682   0.98895   0.25186   0.00000  Uiso   1.00
C408   C     0.80985   0.67772   0.24814   0.00000  Uiso   1.00
C409   C     0.79452   0.82932   0.33321   0.00000  Uiso   1.00
C410   C     0.87214   0.83735   0.16679   0.00000  Uiso   1.00
C411   C     0.77085   0.82413   0.38098   0.00000  Uiso   1.00
C412   C     0.89581   0.84259   0.11902   0.00000  Uiso   1.00
C413   C     0.68928   0.79052   0.44515   0.00000  Uiso   1.00
C414   C     0.97735   0.87633   0.05488   0.00000  Uiso   1.00
C415   C     0.70690   0.80288   0.40099   0.00000  Uiso   1.00
C416   C     0.95976   0.86386   0.09901   0.00000  Uiso   1.00
C417   C     0.81517   0.83686   0.40653   0.00000  Uiso   1.00
C418   C     0.85147   0.82997   0.09349   0.00000  Uiso   1.00
C419   C     0.79752   0.82880   0.45181   0.00000  Uiso   1.00
C420   C     0.86911   0.83808   0.04822   0.00000  Uiso   1.00
C421   C     0.73452   0.80140   0.47023   0.00000  Uiso   1.00
C422   C     0.93210   0.86550   0.02980   0.00000  Uiso   1.00
C423   C     0.84192   0.84330   0.47838   0.00000  Uiso   1.00
C424   C     0.82470   0.82360   0.02165   0.00000  Uiso   1.00
Cu425  Cu    0.77404   0.82775   0.24516   0.00000  Uiso   1.00
Cu426  Cu    0.89263   0.83892   0.25484   0.00000  Uiso   1.00
N427   N     0.98173   0.84735   0.26212   0.00000  Uiso   1.00
N428   N     0.68494   0.81932   0.23788   0.00000  Uiso   1.00
O429   O     0.79482   0.90476   0.24686   0.00000  Uiso   1.00
O430   O     0.87185   0.76191   0.25314   0.00000  Uiso   1.00
O431   O     0.89496   0.91420   0.25503   0.00000  Uiso   1.00
O432   O     0.77171   0.75247   0.24498   0.00000  Uiso   1.00
O433   O     0.75518   0.82597   0.30854   0.00000  Uiso   1.00
O434   O     0.91149   0.84070   0.19146   0.00000  Uiso   1.00
O435   O     0.85532   0.83540   0.31671   0.00000  Uiso   1.00
O436   O     0.81134   0.83126   0.18329   0.00000  Uiso   1.00
F437   F     0.99363   0.75128   0.02898   0.00000  Uiso   1.00
F438   F     0.67299   0.91563   0.47105   0.00000  Uiso   1.00
H439   H     0.80219   0.81764   0.11027   0.00000  Uiso   1.00
H440   H     0.86445   0.84920   0.38975   0.00000  Uiso   1.00
F441   F     0.67093   0.87628   0.12253   0.00000  Uiso   1.00
F442   F     0.99578   0.79031   0.37746   0.00000  Uiso   1.00
H443   H     0.97381   0.77102   0.45936   0.00000  Uiso   1.00
H444   H     0.69282   0.89585   0.04068   0.00000  Uiso   1.00
F445   F     0.74873   0.76011   0.07262   0.00000  Uiso   1.00
F446   F     0.91790   0.90676   0.42740   0.00000  Uiso   1.00
F447   F     0.91422   0.68436   0.25623   0.00000  Uiso   1.00
F448   F     0.75245   0.98231   0.24377   0.00000  Uiso   1.00
H449   H     0.66802   0.87153   0.28442   0.00000  Uiso   1.00
H450   H     0.99865   0.79514   0.21558   0.00000  Uiso   1.00
C451   C     0.18158   0.26660   0.75129   0.00000  Uiso   1.00
C452   C     0.15175   0.06673   0.74872   0.00000  Uiso   1.00
C453   C     0.09736   0.12301   0.53647   0.00000  Uiso   1.00
C454   C     0.23593   0.21056   0.96356   0.00000  Uiso   1.00
C455   C     0.05207   0.11512   0.51228   0.00000  Uiso   1.00
C456   C     0.28121   0.21846   0.98776   0.00000  Uiso   1.00
C457   C     0.19015   0.32228   0.75186   0.00000  Uiso   1.00
C458   C     0.14318   0.01105   0.74814   0.00000  Uiso   1.00
C459   C     0.12786   0.16265   0.83321   0.00000  Uiso   1.00
C460   C     0.20548   0.17069   0.66679   0.00000  Uiso   1.00
C461   C     0.10418   0.15747   0.88098   0.00000  Uiso   1.00
C462   C     0.22914   0.17593   0.61902   0.00000  Uiso   1.00
C463   C     0.02261   0.12386   0.94515   0.00000  Uiso   1.00
C464   C     0.31069   0.20967   0.55488   0.00000  Uiso   1.00
C465   C     0.04023   0.13622   0.90099   0.00000  Uiso   1.00
C466   C     0.29309   0.19719   0.59901   0.00000  Uiso   1.00
C467   C     0.14851   0.17019   0.90653   0.00000  Uiso   1.00
C468   C     0.18480   0.16330   0.59349   0.00000  Uiso   1.00
C469   C     0.13085   0.16214   0.95181   0.00000  Uiso   1.00
C470   C     0.20244   0.17141   0.54822   0.00000  Uiso   1.00
C471   C     0.06786   0.13473   0.97023   0.00000  Uiso   1.00
C472   C     0.26544   0.19883   0.52980   0.00000  Uiso   1.00
C473   C     0.17526   0.17664   0.97838   0.00000  Uiso   1.00
C474   C     0.15803   0.15694   0.52165   0.00000  Uiso   1.00
Cu475  Cu    0.10737   0.16108   0.74516   0.00000  Uiso   1.00
Cu476  Cu    0.22596   0.17225   0.75484   0.00000  Uiso   1.00
N477   N     0.31506   0.18068   0.76212   0.00000  Uiso   1.00
N478   N     0.01827   0.15265   0.73788   0.00000  Uiso   1.00
O479   O     0.12815   0.23809   0.74686   0.00000  Uiso   1.00
O480   O     0.20518   0.09524   0.75314   0.00000  Uiso   1.00
O481   O     0.22829   0.24753   0.75503   0.00000  Uiso   1.00
O482   O     0.10504   0.08580   0.74498   0.00000  Uiso   1.00
O483   O     0.08851   0.15930   0.80854   0.00000  Uiso   1.00
O484   O     0.24482   0.17403   0.69146   0.00000  Uiso   1.00
O485   O     0.18866   0.16874   0.81671   0.00000  Uiso   1.00
O486   O     0.14468   0.16460   0.68329   0.00000  Uiso   1.00
F487   F     0.32696   0.08461   0.52898   0.00000  Uiso   1.00
F488   F     0.00632   0.24896   0.97105   0.00000  Uiso   1.00
H489   H     0.13552   0.15098   0.61027   0.00000  Uiso   1.00
H490   H     0.19778   0.18253   0.88975   0.00000  Uiso   1.00
F491   F     0.00426   0.20961   0.62253   0.00000  Uiso   1.00
F492   F     0.32911   0.12364   0.87746   0.00000  Uiso   1.00
H493   H     0.30714   0.10435   0.95936   0.00000  Uiso   1.00
H494   H     0.02615   0.22919   0.54068   0.00000  Uiso   1.00
F495   F     0.08206   0.09344   0.57262   0.00000  Uiso   1.00
F496   F     0.25124   0.24009   0.92740   0.00000  Uiso   1.00
F497   F     0.24755   0.01769   0.75623   0.00000  Uiso   1.00
F498   F     0.08578   0.31564   0.74377   0.00000  Uiso   1.00
H499   H     0.00135   0.20486   0.78442   0.00000  Uiso   1.00
H500   H     0.33198   0.12847   0.71558   0.00000  Uiso   1.00
C501   C     0.51492   0.26660   0.75129   0.00000  Uiso   1.00
C502   C     0.48508   0.06673   0.74872   0.00000  Uiso   1.00
C503   C     0.43069   0.12301   0.53647   0.00000  Uiso   1.00
C504   C     0.56926   0.21056   0.96356   0.00000  Uiso   1.00
C505   C     0.38541   0.11512   0.51228   0.00000  Uiso   1.00
C506   C     0.61454   0.21846   0.98776   0.00000  Uiso   1.00
C507   C     0.52349   0.32228   0.75186   0.00000  Uiso   1.00
C508   C     0.47651   0.01105   0.74814   0.00000  Uiso   1.00
C509   C     0.46119   0.16265   0.83321   0.00000  Uiso   1.00
C510   C     0.53881   0.17069   0.66679   0.00000  Uiso   1.00
C511   C     0.43752   0.15747   0.88098   0.00000  Uiso   1.00
C512   C     0.56247   0.17593   0.61902   0.00000  Uiso   1.00
C513   C     0.35595   0.12386   0.94515   0.00000  Uiso   1.00
C514   C     0.64402   0.20967   0.55488   0.00000  Uiso   1.00
C515   C     0.37357   0.13622   0.90099   0.00000  Uiso   1.00
C516   C     0.62642   0.19719   0.59901   0.00000  Uiso   1.00
C517   C     0.48184   0.17019   0.90653   0.00000  Uiso   1.00
C518   C     0.51813   0.16330   0.59349   0.00000  Uiso   1.00
C519   C     0.46418   0.16214   0.95181   0.00000  Uiso   1.00
C520   C     0.53578   0.17141   0.54822   0.00000  Uiso   1.00
C521   C     0.40119   0.13473   0.97023   0.00000  Uiso   1.00
C522   C     0.59877   0.19883   0.52980   0.00000  Uiso   1.00
C523   C     0.50859   0.17664   0.97838   0.00000  Uiso   1.00
C524   C     0.49136   0.15694   0.52165   0.00000  Uiso   1.00
Cu525  Cu    0.44071   0.16108   0.74516   0.00000  Uiso   1.00
Cu526  Cu    0.55929   0.17225   0.75484   0.00000  Uiso   1.00
N527   N     0.64839   0.18068   0.76212   0.00000  Uiso   1.00
N528   N     0.35161   0.15265   0.73788   0.00000  Uiso   1.00
O529   O     0.46148   0.23809   0.74686   0.00000  Uiso   1.00
O530   O     0.53852   0.09524   0.75314   0.00000  Uiso   1.00
O531   O     0.56163   0.24753   0.75503   0.00000  Uiso   1.00
O532   O     0.43837   0.08580   0.74498   0.00000  Uiso   1.00
O533   O     0.42185   0.15930   0.80854   0.00000  Uiso   1.00
O534   O     0.57815   0.17403   0.69146   0.00000  Uiso   1.00
O535   O     0.52199   0.16874   0.81671   0.00000  Uiso   1.00
O536   O     0.47801   0.16460   0.68329   0.00000  Uiso   1.00
F537   F     0.66029   0.08461   0.52898   0.00000  Uiso   1.00
F538   F     0.33966   0.24896   0.97105   0.00000  Uiso   1.00
H539   H     0.46885   0.15098   0.61027   0.00000  Uiso   1.00
H540   H     0.53112   0.18253   0.88975   0.00000  Uiso   1.00
F541   F     0.33759   0.20961   0.62253   0.00000  Uiso   1.00
F542   F     0.66244   0.12364   0.87746   0.00000  Uiso   1.00
H543   H     0.64047   0.10435   0.95936   0.00000  Uiso   1.00
H544   H     0.35949   0.22919   0.54068   0.00000  Uiso   1.00
F545   F     0.41539   0.09344   0.57262   0.00000  Uiso   1.00
F546   F     0.58457   0.24009   0.92740   0.00000  Uiso   1.00
F547   F     0.58088   0.01769   0.75623   0.00000  Uiso   1.00
F548   F     0.41912   0.31564   0.74377   0.00000  Uiso   1.00
H549   H     0.33468   0.20486   0.78442   0.00000  Uiso   1.00
H550   H     0.66532   0.12847   0.71558   0.00000  Uiso   1.00
C551   C     0.84825   0.26660   0.75129   0.00000  Uiso   1.00
C552   C     0.81842   0.06673   0.74872   0.00000  Uiso   1.00
C553   C     0.76402   0.12301   0.53647   0.00000  Uiso   1.00
C554   C     0.90260   0.21056   0.96356   0.00000  Uiso   1.00
C555   C     0.71874   0.11512   0.51228   0.00000  Uiso   1.00
C556   C     0.94788   0.21846   0.98776   0.00000  Uiso   1.00
C557   C     0.85682   0.32228   0.75186   0.00000  Uiso   1.00
C558   C     0.80985   0.01105   0.74814   0.00000  Uiso   1.00
C559   C     0.79452   0.16265   0.83321   0.00000  Uiso   1.00
C560   C     0.87214   0.17069   0.66679   0.00000  Uiso   1.00
C561   C     0.77085   0.15747   0.88098   0.00000  Uiso   1.00
C562   C     0.89581   0.17593   0.61902   0.00000  Uiso   1.00
C563   C     0.68928   0.12386   0.94515   0.00000  Uiso   1.00
C564   C     0.97735   0.20967   0.55488   0.00000  Uiso   1.00
C565   C     0.70690   0.13622   0.90099   0.00000  Uiso   1.00
C566   C     0.95976   0.19719   0.59901   0.00000  Uiso   1.00
C567   C     0.81517   0.17019   0.90653   0.00000  Uiso   1.00
C568   C     0.85147   0.16330   0.59349   0.00000  Uiso   1.00
C569   C     0.79752   0.16214   0.95181   0.00000  Uiso   1.00
C570   C     0.86911   0.17141   0.54822   0.00000  Uiso   1.00
C571   C     0.73452   0.13473   0.97023   0.00000  Uiso   1.00
C572   C     0.93210   0.19883   0.52980   0.00000  Uiso   1.00
C573   C     0.84192   0.17664   0.97838   0.00000  Uiso   1.00
C574   C     0.82470   0.15694   0.52165   0.00000  Uiso   1.00
Cu575  Cu    0.77404   0.16108   0.74516   0.00000  Uiso   1.00
Cu576  Cu    0.89263   0.17225   0.75484   0.00000  Uiso   1.00
N577   N     0.98173   0.18068   0.76212   0.00000  Uiso   1.00
N578   N     0.68494   0.15265   0.73788   0.00000  Uiso   1.00
O579   O     0.79482   0.23809   0.74686   0.00000  Uiso   1.00
O580   O     0.87185   0.09524   0.75314   0.00000  Uiso   1.00
O581   O     0.89496   0.24753   0.75503   0.00000  Uiso   1.00
O582   O     0.77171   0.08580   0.74498   0.00000  Uiso   1.00
O583   O     0.75518   0.15930   0.80854   0.00000  Uiso   1.00
O584   O     0.91149   0.17403   0.69146   0.00000  Uiso   1.00
O585   O     0.85532   0.16874   0.81671   0.00000  Uiso   1.00
O586   O     0.81134   0.16460   0.68329   0.00000  Uiso   1.00
F587   F     0.99363   0.08461   0.52898   0.00000  Uiso   1.00
F588   F     0.67299   0.24896   0.97105   0.00000  Uiso   1.00
H589   H     0.80219   0.15098   0.61027   0.00000  Uiso   1.00
H590   H     0.86445   0.18253   0.88975   0.00000  Uiso   1.00
F591   F     0.67093   0.20961   0.62253   0.00000  Uiso   1.00
F592   F     0.99578   0.12364   0.87746   0.00000  Uiso   1.00
H593   H     0.97381   0.10435   0.95936   0.00000  Uiso   1.00
H594   H     0.69282   0.22919   0.54068   0.00000  Uiso   1.00
F595   F     0.74873   0.09344   0.57262   0.00000  Uiso   1.00
F596   F     0.91790   0.24009   0.92740   0.00000  Uiso   1.00
F597   F     0.91422   0.01769   0.75623   0.00000  Uiso   1.00
F598   F     0.75245   0.31564   0.74377   0.00000  Uiso   1.00
H599   H     0.66802   0.20486   0.78442   0.00000  Uiso   1.00
H600   H     0.99865   0.12847   0.71558   0.00000  Uiso   1.00
C601   C     0.18158   0.59994   0.75129   0.00000  Uiso   1.00
C602   C     0.15175   0.40006   0.74872   0.00000  Uiso   1.00
C603   C     0.09736   0.45635   0.53647   0.00000  Uiso   1.00
C604   C     0.23593   0.54389   0.96356   0.00000  Uiso   1.00
C605   C     0.05207   0.44846   0.51228   0.00000  Uiso   1.00
C606   C     0.28121   0.55179   0.98776   0.00000  Uiso   1.00
C607   C     0.19015   0.65562   0.75186   0.00000  Uiso   1.00
C608   C     0.14318   0.34438   0.74814   0.00000  Uiso   1.00
C609   C     0.12786   0.49599   0.83321   0.00000  Uiso   1.00
C610   C     0.20548   0.50402   0.66679   0.00000  Uiso   1.00
C611   C     0.10418   0.49080   0.88098   0.00000  Uiso   1.00
C612   C     0.22914   0.50926   0.61902   0.00000  Uiso   1.00
C613   C     0.02261   0.45719   0.94515   0.00000  Uiso   1.00
C614   C     0.31069   0.54300   0.55488   0.00000  Uiso   1.00
C615   C     0.04023   0.46955   0.90099   0.00000  Uiso   1.00
C616   C     0.29309   0.53052   0.59901   0.00000  Uiso   1.00
C617   C     0.14851   0.50352   0.90653   0.00000  Uiso   1.00
C618   C     0.18480   0.49664   0.59349   0.00000  Uiso   1.00
C619   C     0.13085   0.49547   0.95181   0.00000  Uiso   1.00
C620   C     0.20244   0.50475   0.54822   0.00000  Uiso   1.00
C621   C     0.06786   0.46807   0.97023   0.00000  Uiso   1.00
C622   C     0.26544   0.53216   0.52980   0.00000  Uiso   1.00
C623   C     0.17526   0.50997   0.97838   0.00000  Uiso   1.00
C624   C     0.15803   0.49027   0.52165   0.00000  Uiso   1.00
Cu625  Cu    0.10737   0.49441   0.74516   0.00000  Uiso   1.00
Cu626  Cu    0.22596   0.50559   0.75484   0.00000  Uiso   1.00
N627   N     0.31506   0.51401   0.76212   0.00000  Uiso   1.00
N628   N     0.01827   0.48599   0.73788   0.00000  Uiso   1.00
O629   O     0.12815   0.57142   0.74686   0.00000  Uiso   1.00
O630   O     0.20518   0.42858   0.75314   0.00000  Uiso   1.00
O631   O     0.22829   0.58086   0.75503   0.00000  Uiso   1.00
O632   O     0.10504   0.41914   0.74498   0.00000  Uiso   1.00
O633   O     0.08851   0.49263   0.80854   0.00000  Uiso   1.00
O634   O     0.24482   0.50737   0.69146   0.00000  Uiso   1.00
O635   O     0.18866   0.50207   0.81671   0.00000  Uiso   1.00
O636   O     0.14468   0.49793   0.68329   0.00000  Uiso   1.00
F637   F     0.32696   0.41795   0.52898   0.00000  Uiso   1.00
F638   F     0.00632   0.58230   0.97105   0.00000  Uiso   1.00
H639   H     0.13552   0.48431   0.61027   0.00000  Uiso   1.00
H640   H     0.19778   0.51587   0.88975   0.00000  Uiso   1.00
F641   F     0.00426   0.54295   0.62253   0.00000  Uiso   1.00
F642   F     0.32911   0.45698   0.87746   0.00000  Uiso   1.00
H643   H     0.30714   0.43769   0.95936   0.00000  Uiso   1.00
H644   H     0.02615   0.56252   0.54068   0.00000  Uiso   1.00
F645   F     0.08206   0.42678   0.57262   0.00000  Uiso   1.00
F646   F     0.25124   0.57343   0.92740   0.00000  Uiso   1.00
F647   F     0.24755   0.35102   0.75623   0.00000  Uiso   1.00
F648   F     0.08578   0.64898   0.74377   0.00000  Uiso   1.00
H649   H     0.00135   0.53820   0.78442   0.00000  Uiso   1.00
H650   H     0.33198   0.46180   0.71558   0.00000  Uiso   1.00
C651   C     0.51492   0.59994   0.75129   0.00000  Uiso   1.00
C652   C     0.48508   0.40006   0.74872   0.00000  Uiso   1.00
C653   C     0.43069   0.45635   0.53647   0.00000  Uiso   1.00
C654   C     0.56926   0.54389   0.96356   0.00000  Uiso   1.00
C655   C     0.38541   0.44846   0.51228   0.00000  Uiso   1.00
C656   C     0.61454   0.55179   0.98776   0.00000  Uiso   1.00
C657   C     0.52349   0.65562   0.75186   0.00000  Uiso   1.00
C658   C     0.47651   0.34438   0.74814   0.00000  Uiso   1.00
C659   C     0.46119   0.49599   0.83321   0.00000  Uiso   1.00
C660   C     0.53881   0.50402   0.66679   0.00000  Uiso   1.00
C661   C     0.43752   0.49080   0.88098   0.00000  Uiso   1.00
C662   C     0.56247   0.50926   0.61902   0.00000  Uiso   1.00
C663   C     0.35595   0.45719   0.94515   0.00000  Uiso   1.00
C664   C     0.64402   0.54300   0.55488   0.00000  Uiso   1.00
C665   C     0.37357   0.46955   0.90099   0.00000  Uiso   1.00
C666   C     0.62642   0.53052   0.59901   0.00000  Uiso   1.00
C667   C     0.48184   0.50352   0.90653   0.00000  Uiso   1.00
C668   C     0.51813   0.49664   0.59349   0.00000  Uiso   1.00
C669   C     0.46418   0.49547   0.95181   0.00000  Uiso   1.00
C670   C     0.53578   0.50475   0.54822   0.00000  Uiso   1.00
C671   C     0.40119   0.46807   0.97023   0.00000  Uiso   1.00
C672   C     0.59877   0.53216   0.52980   0.00000  Uiso   1.00
C673   C     0.50859   0.50997   0.97838   0.00000  Uiso   1.00
C674   C     0.49136   0.49027   0.52165   0.00000  Uiso   1.00
Cu675  Cu    0.44071   0.49441   0.74516   0.00000  Uiso   1.00
Cu676  Cu    0.55929   0.50559   0.75484   0.00000  Uiso   1.00
N677   N     0.64839   0.51401   0.76212   0.00000  Uiso   1.00
N678   N     0.35161   0.48599   0.73788   0.00000  Uiso   1.00
O679   O     0.46148   0.57142   0.74686   0.00000  Uiso   1.00
O680   O     0.53852   0.42858   0.75314   0.00000  Uiso   1.00
O681   O     0.56163   0.58086   0.75503   0.00000  Uiso   1.00
O682   O     0.43837   0.41914   0.74498   0.00000  Uiso   1.00
O683   O     0.42185   0.49263   0.80854   0.00000  Uiso   1.00
O684   O     0.57815   0.50737   0.69146   0.00000  Uiso   1.00
O685   O     0.52199   0.50207   0.81671   0.00000  Uiso   1.00
O686   O     0.47801   0.49793   0.68329   0.00000  Uiso   1.00
F687   F     0.66029   0.41795   0.52898   0.00000  Uiso   1.00
F688   F     0.33966   0.58230   0.97105   0.00000  Uiso   1.00
H689   H     0.46885   0.48431   0.61027   0.00000  Uiso   1.00
H690   H     0.53112   0.51587   0.88975   0.00000  Uiso   1.00
F691   F     0.33759   0.54295   0.62253   0.00000  Uiso   1.00
F692   F     0.66244   0.45698   0.87746   0.00000  Uiso   1.00
H693   H     0.64047   0.43769   0.95936   0.00000  Uiso   1.00
H694   H     0.35949   0.56252   0.54068   0.00000  Uiso   1.00
F695   F     0.41539   0.42678   0.57262   0.00000  Uiso   1.00
F696   F     0.58457   0.57343   0.92740   0.00000  Uiso   1.00
F697   F     0.58088   0.35102   0.75623   0.00000  Uiso   1.00
F698   F     0.41912   0.64898   0.74377   0.00000  Uiso   1.00
H699   H     0.33468   0.53820   0.78442   0.00000  Uiso   1.00
H700   H     0.66532   0.46180   0.71558   0.00000  Uiso   1.00
C701   C     0.84825   0.59994   0.75129   0.00000  Uiso   1.00
C702   C     0.81842   0.40006   0.74872   0.00000  Uiso   1.00
C703   C     0.76402   0.45635   0.53647   0.00000  Uiso   1.00
C704   C     0.90260   0.54389   0.96356   0.00000  Uiso   1.00
C705   C     0.71874   0.44846   0.51228   0.00000  Uiso   1.00
C706   C     0.94788   0.55179   0.98776   0.00000  Uiso   1.00
C707   C     0.85682   0.65562   0.75186   0.00000  Uiso   1.00
C708   C     0.80985   0.34438   0.74814   0.00000  Uiso   1.00
C709   C     0.79452   0.49599   0.83321   0.00000  Uiso   1.00
C710   C     0.87214   0.50402   0.66679   0.00000  Uiso   1.00
C711   C     0.77085   0.49080   0.88098   0.00000  Uiso   1.00
C712   C     0.89581   0.50926   0.61902   0.00000  Uiso   1.00
C713   C     0.68928   0.45719   0.94515   0.00000  Uiso   1.00
C714   C     0.97735   0.54300   0.55488   0.00000  Uiso   1.00
C715   C     0.70690   0.46955   0.90099   0.00000  Uiso   1.00
C716   C     0.95976   0.53052   0.59901   0.00000  Uiso   1.00
C717   C     0.81517   0.50352   0.90653   0.00000  Uiso   1.00
C718   C     0.85147   0.49664   0.59349   0.00000  Uiso   1.00
C719   C     0.79752   0.49547   0.95181   0.00000  Uiso   1.00
C720   C     0.86911   0.50475   0.54822   0.00000  Uiso   1.00
C721   C     0.73452   0.46807   0.97023   0.00000  Uiso   1.00
C722   C     0.93210   0.53216   0.52980   0.00000  Uiso   1.00
C723   C     0.84192   0.50997   0.97838   0.00000  Uiso   1.00
C724   C     0.82470   0.49027   0.52165   0.00000  Uiso   1.00
Cu725  Cu    0.77404   0.49441   0.74516   0.00000  Uiso   1.00
Cu726  Cu    0.89263   0.50559   0.75484   0.00000  Uiso   1.00
N727   N     0.98173   0.51401   0.76212   0.00000  Uiso   1.00
N728   N     0.68494   0.48599   0.73788   0.00000  Uiso   1.00
O729   O     0.79482   0.57142   0.74686   0.00000  Uiso   1.00
O730   O     0.87185   0.42858   0.75314   0.00000  Uiso   1.00
O731   O     0.89496   0.58086   0.75503   0.00000  Uiso   1.00
O732   O     0.77171   0.41914   0.74498   0.00000  Uiso   1.00
O733   O     0.75518   0.49263   0.80854   0.00000  Uiso   1.00
O734   O     0.91149   0.50737   0.69146   0.00000  Uiso   1.00
O735   O     0.85532   0.50207   0.81671   0.00000  Uiso   1.00
O736   O     0.81134   0.49793   0.68329   0.00000  Uiso   1.00
F737   F     0.99363   0.41795   0.52898   0.00000  Uiso   1.00
F738   F     0.67299   0.58230   0.97105   0.00000  Uiso   1.00
H739   H     0.80219   0.48431   0.61027   0.00000  Uiso   1.00
H740   H     0.86445   0.51587   0.88975   0.00000  Uiso   1.00
F741   F     0.67093   0.54295   0.62253   0.00000  Uiso   1.00
F742   F     0.99578   0.45698   0.87746   0.00000  Uiso   1.00
H743   H     0.97381   0.43769   0.95936   0.00000  Uiso   1.00
H744   H     0.69282   0.56252   0.54068   0.00000  Uiso   1.00
F745   F     0.74873   0.42678   0.57262   0.00000  Uiso   1.00
F746   F     0.91790   0.57343   0.92740   0.00000  Uiso   1.00
F747   F     0.91422   0.35102   0.75623   0.00000  Uiso   1.00
F748   F     0.75245   0.64898   0.74377   0.00000  Uiso   1.00
H749   H     0.66802   0.53820   0.78442   0.00000  Uiso   1.00
H750   H     0.99865   0.46180   0.71558   0.00000  Uiso   1.00
C751   C     0.18158   0.93327   0.75129   0.00000  Uiso   1.00
C752   C     0.15175   0.73340   0.74872   0.00000  Uiso   1.00
C753   C     0.09736   0.78968   0.53647   0.00000  Uiso   1.00
C754   C     0.23593   0.87722   0.96356   0.00000  Uiso   1.00
C755   C     0.05207   0.78179   0.51228   0.00000  Uiso   1.00
C756   C     0.28121   0.88512   0.98776   0.00000  Uiso   1.00
C757   C     0.19015   0.98895   0.75186   0.00000  Uiso   1.00
C758   C     0.14318   0.67772   0.74814   0.00000  Uiso   1.00
C759   C     0.12786   0.82932   0.83321   0.00000  Uiso   1.00
C760   C     0.20548   0.83735   0.66679   0.00000  Uiso   1.00
C761   C     0.10418   0.82413   0.88098   0.00000  Uiso   1.00
C762   C     0.22914   0.84259   0.61902   0.00000  Uiso   1.00
C763   C     0.02261   0.79052   0.94515   0.00000  Uiso   1.00
C764   C     0.31069   0.87633   0.55488   0.00000  Uiso   1.00
C765   C     0.04023   0.80288   0.90099   0.00000  Uiso   1.00
C766   C     0.29309   0.86386   0.59901   0.00000  Uiso   1.00
C767   C     0.14851   0.83686   0.90653   0.00000  Uiso   1.00
C768   C     0.18480   0.82997   0.59349   0.00000  Uiso   1.00
C769   C     0.13085   0.82880   0.95181   0.00000  Uiso   1.00
C770   C     0.20244   0.83808   0.54822   0.00000  Uiso   1.00
C771   C     0.06786   0.80140   0.97023   0.00000  Uiso   1.00
C772   C     0.26544   0.86550   0.52980   0.00000  Uiso   1.00
C773   C     0.17526   0.84330   0.97838   0.00000  Uiso   1.00
C774   C     0.15803   0.82360   0.52165   0.00000  Uiso   1.00
Cu775  Cu    0.10737   0.82775   0.74516   0.00000  Uiso   1.00
Cu776  Cu    0.22596   0.83892   0.75484   0.00000  Uiso   1.00
N777   N     0.31506   0.84735   0.76212   0.00000  Uiso   1.00
N778   N     0.01827   0.81932   0.73788   0.00000  Uiso   1.00
O779   O     0.12815   0.90476   0.74686   0.00000  Uiso   1.00
O780   O     0.20518   0.76191   0.75314   0.00000  Uiso   1.00
O781   O     0.22829   0.91420   0.75503   0.00000  Uiso   1.00
O782   O     0.10504   0.75247   0.74498   0.00000  Uiso   1.00
O783   O     0.08851   0.82597   0.80854   0.00000  Uiso   1.00
O784   O     0.24482   0.84070   0.69146   0.00000  Uiso   1.00
O785   O     0.18866   0.83540   0.81671   0.00000  Uiso   1.00
O786   O     0.14468   0.83126   0.68329   0.00000  Uiso   1.00
F787   F     0.32696   0.75128   0.52898   0.00000  Uiso   1.00
F788   F     0.00632   0.91563   0.97105   0.00000  Uiso   1.00
H789   H     0.13552   0.81764   0.61027   0.00000  Uiso   1.00
H790   H     0.19778   0.84920   0.88975   0.00000  Uiso   1.00
F791   F     0.00426   0.87628   0.62253   0.00000  Uiso   1.00
F792   F     0.32911   0.79031   0.87746   0.00000  Uiso   1.00
H793   H     0.30714   0.77102   0.95936   0.00000  Uiso   1.00
H794   H     0.02615   0.89585   0.54068   0.00000  Uiso   1.00
F795   F     0.08206   0.76011   0.57262   0.00000  Uiso   1.00
F796   F     0.25124   0.90676   0.92740   0.00000  Uiso   1.00
F797   F     0.24755   0.68436   0.75623   0.00000  Uiso   1.00
F798   F     0.08578   0.98231   0.74377   0.00000  Uiso   1.00
H799   H     0.00135   0.87153   0.78442   0.00000  Uiso   1.00
H800   H     0.33198   0.79514   0.71558   0.00000  Uiso   1.00
C801   C     0.51492   0.93327   0.75129   0.00000  Uiso   1.00
C802   C     0.48508   0.73340   0.74872   0.00000  Uiso   1.00
C803   C     0.43069   0.78968   0.53647   0.00000  Uiso   1.00
C804   C     0.56926   0.87722   0.96356   0.00000  Uiso   1.00
C805   C     0.38541   0.78179   0.51228   0.00000  Uiso   1.00
C806   C     0.61454   0.88512   0.98776   0.00000  Uiso   1.00
C807   C     0.52349   0.98895   0.75186   0.00000  Uiso   1.00
C808   C     0.47651   0.67772   0.74814   0.00000  Uiso   1.00
C809   C     0.46119   0.82932   0.83321   0.00000  Uiso   1.00
C810   C     0.53881   0.83735   0.66679   0.00000  Uiso   1.00
C811   C     0.43752   0.82413   0.88098   0.00000  Uiso   1.00
C812   C     0.56247   0.84259   0.61902   0.00000  Uiso   1.00
C813   C     0.35595   0.79052   0.94515   0.00000  Uiso   1.00
C814   C     0.64402   0.87633   0.55488   0.00000  Uiso   1.00
C815   C     0.37357   0.80288   0.90099   0.00000  Uiso   1.00
C816   C     0.62642   0.86386   0.59901   0.00000  Uiso   1.00
C817   C     0.48184   0.83686   0.90653   0.00000  Uiso   1.00
C818   C     0.51813   0.82997   0.59349   0.00000  Uiso   1.00
C819   C     0.46418   0.82880   0.95181   0.00000  Uiso   1.00
C820   C     0.53578   0.83808   0.54822   0.00000  Uiso   1.00
C821   C     0.40119   0.80140   0.97023   0.00000  Uiso   1.00
C822   C     0.59877   0.86550   0.52980   0.00000  Uiso   1.00
C823   C     0.50859   0.84330   0.97838   0.00000  Uiso   1.00
C824   C     0.49136   0.82360   0.52165   0.00000  Uiso   1.00
Cu825  Cu    0.44071   0.82775   0.74516   0.00000  Uiso   1.00
Cu826  Cu    0.55929   0.83892   0.75484   0.00000  Uiso   1.00
N827   N     0.64839   0.84735   0.76212   0.00000  Uiso   1.00
N828   N     0.35161   0.81932   0.73788   0.00000  Uiso   1.00
O829   O     0.46148   0.90476   0.74686   0.00000  Uiso   1.00
O830   O     0.53852   0.76191   0.75314   0.00000  Uiso   1.00
O831   O     0.56163   0.91420   0.75503   0.00000  Uiso   1.00
O832   O     0.43837   0.75247   0.74498   0.00000  Uiso   1.00
O833   O     0.42185   0.82597   0.80854   0.00000  Uiso   1.00
O834   O     0.57815   0.84070   0.69146   0.00000  Uiso   1.00
O835   O     0.52199   0.83540   0.81671   0.00000  Uiso   1.00
O836   O     0.47801   0.83126   0.68329   0.00000  Uiso   1.00
F837   F     0.66029   0.75128   0.52898   0.00000  Uiso   1.00
F838   F     0.33966   0.91563   0.97105   0.00000  Uiso   1.00
H839   H     0.46885   0.81764   0.61027   0.00000  Uiso   1.00
H840   H     0.53112   0.84920   0.88975   0.00000  Uiso   1.00
F841   F     0.33759   0.87628   0.62253   0.00000  Uiso   1.00
F842   F     0.66244   0.79031   0.87746   0.00000  Uiso   1.00
H843   H     0.64047   0.77102   0.95936   0.00000  Uiso   1.00
H844   H     0.35949   0.89585   0.54068   0.00000  Uiso   1.00
F845   F     0.41539   0.76011   0.57262   0.00000  Uiso   1.00
F846   F     0.58457   0.90676   0.92740   0.00000  Uiso   1.00
F847   F     0.58088   0.68436   0.75623   0.00000  Uiso   1.00
F848   F     0.41912   0.98231   0.74377   0.00000  Uiso   1.00
H849   H     0.33468   0.87153   0.78442   0.00000  Uiso   1.00
H850   H     0.66532   0.79514   0.71558   0.00000  Uiso   1.00
C851   C     0.84825   0.93327   0.75129   0.00000  Uiso   1.00
C852   C     0.81842   0.73340   0.74872   0.00000  Uiso   1.00
C853   C     0.76402   0.78968   0.53647   0.00000  Uiso   1.00
C854   C     0.90260   0.87722   0.96356   0.00000  Uiso   1.00
C855   C     0.71874   0.78179   0.51228   0.00000  Uiso   1.00
C856   C     0.94788   0.88512   0.98776   0.00000  Uiso   1.00
C857   C     0.85682   0.98895   0.75186   0.00000  Uiso   1.00
C858   C     0.80985   0.67772   0.74814   0.00000  Uiso   1.00
C859   C     0.79452   0.82932   0.83321   0.00000  Uiso   1.00
C860   C     0.87214   0.83735   0.66679   0.00000  Uiso   1.00
C861   C     0.77085   0.82413   0.88098   0.00000  Uiso   1.00
C862   C     0.89581   0.84259   0.61902   0.00000  Uiso   1.00
C863   C     0.68928   0.79052   0.94515   0.00000  Uiso   1.00
C864   C     0.97735   0.87633   0.55488   0.00000  Uiso   1.00
C865   C     0.70690   0.80288   0.90099   0.00000  Uiso   1.00
C866   C     0.95976   0.86386   0.59901   0.00000  Uiso   1.00
C867   C     0.81517   0.83686   0.90653   0.00000  Uiso   1.00
C868   C     0.85147   0.82997   0.59349   0.00000  Uiso   1.00
C869   C     0.79752   0.82880   0.95181   0.00000  Uiso   1.00
C870   C     0.86911   0.83808   0.54822   0.00000  Uiso   1.00
C871   C     0.73452   0.80140   0.97023   0.00000  Uiso   1.00
C872   C     0.93210   0.86550   0.52980   0.00000  Uiso   1.00
C873   C     0.84192   0.84330   0.97838   0.00000  Uiso   1.00
C874   C     0.82470   0.82360   0.52165   0.00000  Uiso   1.00
Cu875  Cu    0.77404   0.82775   0.74516   0.00000  Uiso   1.00
Cu876  Cu    0.89263   0.83892   0.75484   0.00000  Uiso   1.00
N877   N     0.98173   0.84735   0.76212   0.00000  Uiso   1.00
N878   N     0.68494   0.81932   0.73788   0.00000  Uiso   1.00
O879   O     0.79482   0.90476   0.74686   0.00000  Uiso   1.00
O880   O     0.87185   0.76191   0.75314   0.00000  Uiso   1.00
O881   O     0.89496   0.91420   0.75503   0.00000  Uiso   1.00
O882   O     0.77171   0.75247   0.74498   0.00000  Uiso   1.00
O883   O     0.75518   0.82597   0.80854   0.00000  Uiso   1.00
O884   O     0.91149   0.84070   0.69146   0.00000  Uiso   1.00
O885   O     0.85532   0.83540   0.81671   0.00000  Uiso   1.00
O886   O     0.81134   0.83126   0.68329   0.00000  Uiso   1.00
F887   F     0.99363   0.75128   0.52898   0.00000  Uiso   1.00
F888   F     0.67299   0.91563   0.97105   0.00000  Uiso   1.00
H889   H     0.80219   0.81764   0.61027   0.00000  Uiso   1.00
H890   H     0.86445   0.84920   0.88975   0.00000  Uiso   1.00
F891   F     0.67093   0.87628   0.62253   0.00000  Uiso   1.00
F892   F     0.99578   0.79031   0.87746   0.00000  Uiso   1.00
H893   H     0.97381   0.77102   0.95936   0.00000  Uiso   1.00
H894   H     0.69282   0.89585   0.54068   0.00000  Uiso   1.00
F895   F     0.74873   0.76011   0.57262   0.00000  Uiso   1.00
F896   F     0.91790   0.90676   0.92740   0.00000  Uiso   1.00
F897   F     0.91422   0.68436   0.75623   0.00000  Uiso   1.00
F898   F     0.75245   0.98231   0.74377   0.00000  Uiso   1.00
H899   H     0.66802   0.87153   0.78442   0.00000  Uiso   1.00
H900   H     0.99865   0.79514   0.71558   0.00000  Uiso   1.00
loop_
_geom_bond_atom_site_label_1
_geom_bond_atom_site_label_2
_geom_bond_distance
_geom_bond_site_symmetry_2
_ccdc_geom_bond_type
C1     O31     1.286   .     A
C1     O29     1.289   .     A
C1     C7      1.428   .     S
C2     O30     1.289   .     A
C2     O32     1.286   .     A
C2     C8      1.428   .     S
C3     C24     1.423   .     A
C3     F45     1.356   .     S
C3     C5      1.389   .     A
C4     F46     1.356   .     S
C4     C6      1.389   .     A
C4     C23     1.423   .     A
C5     C471    1.393   1_554 S
C5     F137    1.360   1_455 S
C6     C472    1.393   .     S
C6     F88     1.360   .     S
C7     C158    1.339   .     S
C7     F197    1.364   .     S
C8     C307    1.339   1_545 S
C8     F348    1.364   1_545 S
C9     O33     1.302   .     A
C9     C11     1.473   .     S
C9     O35     1.296   .     A
C10    O34     1.302   .     A
C10    C12     1.473   .     S
C10    O36     1.296   .     A
C11    C17     1.402   .     A
C11    C15     1.402   .     A
C12    C16     1.402   .     A
C12    C18     1.402   .     A
C13    C21     1.406   .     A
C13    C15     1.394   .     A
C13    H143    1.084   1_455 S
C14    C22     1.407   .     A
C14    C16     1.394   .     A
C14    H94     1.084   .     S
C15    F142    1.357   1_455 S
C16    F91     1.358   .     S
C17    C19     1.404   .     A
C17    H40     1.074   .     S
C18    C20     1.404   .     A
C18    H39     1.074   .     S
C19    C23     1.430   .     A
C19    C21     1.416   .     A
C20    C22     1.416   .     A
C20    C24     1.430   .     A
C21    C455    1.393   .     S
C22    C456    1.393   1_554 S
C23    C474    1.427   .     S
C24    C473    1.427   1_554 S
Cu25   O32     1.962   .     S
Cu25   N28     2.017   .     S
Cu25   O29     1.966   .     S
Cu25   O36     1.921   .     S
Cu25   Cu26    2.685   .     S
Cu25   O33     1.944   .     S
Cu26   N27     2.017   .     S
Cu26   O31     1.962   .     S
Cu26   O30     1.966   .     S
Cu26   O35     1.921   .     S
Cu26   O34     1.944   .     S
N27    N78     1.286   .     S
N27    H99     1.029   .     S
N28    N127    1.286   1_455 S
N28    H150    1.029   1_455 S
F37    C55     1.360   .     S
F38    C106    1.360   1_455 S
F41    C116    1.358   1_455 S
F42    C65     1.357   .     S
H43    C63     1.084   .     S
H44    C114    1.084   1_455 S
F47    C307    1.364   1_545 S
F48    C158    1.364   .     S
H49    N127    1.029   1_455 S
H50    N78     1.029   .     S
C51    O81     1.286   .     A
C51    O79     1.289   .     A
C51    C57     1.428   .     S
C52    O80     1.289   .     A
C52    O82     1.286   .     A
C52    C58     1.428   .     S
C53    C74     1.423   .     A
C53    F95     1.356   .     S
C53    C55     1.389   .     A
C54    F96     1.356   .     S
C54    C56     1.389   .     A
C54    C73     1.423   .     A
C55    C521    1.393   1_554 S
C56    C522    1.393   .     S
C56    F138    1.360   .     S
C57    C208    1.339   .     S
C57    F247    1.364   .     S
C58    C357    1.339   1_545 S
C58    F398    1.364   1_545 S
C59    O83     1.302   .     A
C59    C61     1.473   .     S
C59    O85     1.296   .     A
C60    O84     1.302   .     A
C60    C62     1.473   .     S
C60    O86     1.296   .     A
C61    C67     1.402   .     A
C61    C65     1.402   .     A
C62    C66     1.402   .     A
C62    C68     1.402   .     A
C63    C71     1.406   .     A
C63    C65     1.394   .     A
C64    C72     1.407   .     A
C64    C66     1.394   .     A
C64    H144    1.084   .     S
C66    F141    1.358   .     S
C67    C69     1.404   .     A
C67    H90     1.074   .     S
C68    C70     1.404   .     A
C68    H89     1.074   .     S
C69    C73     1.430   .     A
C69    C71     1.416   .     A
C70    C72     1.416   .     A
C70    C74     1.430   .     A
C71    C505    1.393   .     S
C72    C506    1.393   1_554 S
C73    C524    1.427   .     S
C74    C523    1.427   1_554 S
Cu75   O82     1.962   .     S
Cu75   N78     2.017   .     S
Cu75   O79     1.966   .     S
Cu75   O86     1.921   .     S
Cu75   Cu76    2.685   .     S
Cu75   O83     1.944   .     S
Cu76   N77     2.017   .     S
Cu76   O81     1.962   .     S
Cu76   O80     1.966   .     S
Cu76   O85     1.921   .     S
Cu76   O84     1.944   .     S
N77    N128    1.286   .     S
N77    H149    1.029   .     S
F87    C105    1.360   .     S
F92    C115    1.357   .     S
H93    C113    1.084   .     S
F97    C357    1.364   1_545 S
F98    C208    1.364   .     S
H100   N128    1.029   .     S
C101   O131    1.286   .     A
C101   O129    1.289   .     A
C101   C107    1.428   .     S
C102   O130    1.289   .     A
C102   O132    1.286   .     A
C102   C108    1.428   .     S
C103   C124    1.423   .     A
C103   F145    1.356   .     S
C103   C105    1.389   .     A
C104   F146    1.356   .     S
C104   C106    1.389   .     A
C104   C123    1.423   .     A
C105   C571    1.393   1_554 S
C106   C572    1.393   .     S
C106   F38     1.360   1_655 S
C107   C258    1.339   .     S
C107   F297    1.364   .     S
C108   C407    1.339   1_545 S
C108   F448    1.364   1_545 S
C109   O133    1.302   .     A
C109   C111    1.473   .     S
C109   O135    1.296   .     A
C110   O134    1.302   .     A
C110   C112    1.473   .     S
C110   O136    1.296   .     A
C111   C117    1.402   .     A
C111   C115    1.402   .     A
C112   C116    1.402   .     A
C112   C118    1.402   .     A
C113   C121    1.406   .     A
C113   C115    1.394   .     A
C114   C122    1.407   .     A
C114   C116    1.394   .     A
C114   H44     1.084   1_655 S
C116   F41     1.358   1_655 S
C117   C119    1.404   .     A
C117   H140    1.074   .     S
C118   C120    1.404   .     A
C118   H139    1.074   .     S
C119   C123    1.430   .     A
C119   C121    1.416   .     A
C120   C122    1.416   .     A
C120   C124    1.430   .     A
C121   C555    1.393   .     S
C122   C556    1.393   1_554 S
C123   C574    1.427   .     S
C124   C573    1.427   1_554 S
Cu125  O132    1.962   .     S
Cu125  N128    2.017   .     S
Cu125  O129    1.966   .     S
Cu125  O136    1.921   .     S
Cu125  Cu126   2.685   .     S
Cu125  O133    1.944   .     S
Cu126  N127    2.017   .     S
Cu126  O131    1.962   .     S
Cu126  O130    1.966   .     S
Cu126  O135    1.921   .     S
Cu126  O134    1.944   .     S
N127   N28     1.286   1_655 S
N127   H49     1.029   1_655 S
F137   C5      1.360   1_655 S
F142   C15     1.357   1_655 S
H143   C13     1.084   1_655 S
F147   C407    1.364   1_545 S
F148   C258    1.364   .     S
H150   N28     1.029   1_655 S
C151   O181    1.286   .     A
C151   O179    1.289   .     A
C151   C157    1.428   .     S
C152   O180    1.289   .     A
C152   O182    1.286   .     A
C152   C158    1.428   .     S
C153   C174    1.423   .     A
C153   F195    1.356   .     S
C153   C155    1.389   .     A
C154   F196    1.356   .     S
C154   C156    1.389   .     A
C154   C173    1.423   .     A
C155   C621    1.393   1_554 S
C155   F287    1.360   1_455 S
C156   C622    1.393   .     S
C156   F238    1.360   .     S
C157   C308    1.339   .     S
C157   F347    1.364   .     S
C159   O183    1.302   .     A
C159   C161    1.473   .     S
C159   O185    1.296   .     A
C160   O184    1.302   .     A
C160   C162    1.473   .     S
C160   O186    1.296   .     A
C161   C167    1.402   .     A
C161   C165    1.402   .     A
C162   C166    1.402   .     A
C162   C168    1.402   .     A
C163   C171    1.406   .     A
C163   C165    1.394   .     A
C163   H293    1.084   1_455 S
C164   C172    1.407   .     A
C164   C166    1.394   .     A
C164   H244    1.084   .     S
C165   F292    1.357   1_455 S
C166   F241    1.358   .     S
C167   C169    1.404   .     A
C167   H190    1.074   .     S
C168   C170    1.404   .     A
C168   H189    1.074   .     S
C169   C173    1.430   .     A
C169   C171    1.416   .     A
C170   C172    1.416   .     A
C170   C174    1.430   .     A
C171   C605    1.393   .     S
C172   C606    1.393   1_554 S
C173   C624    1.427   .     S
C174   C623    1.427   1_554 S
Cu175  O182    1.962   .     S
Cu175  N178    2.017   .     S
Cu175  O179    1.966   .     S
Cu175  O186    1.921   .     S
Cu175  Cu176   2.685   .     S
Cu175  O183    1.944   .     S
Cu176  N177    2.017   .     S
Cu176  O181    1.962   .     S
Cu176  O180    1.966   .     S
Cu176  O185    1.921   .     S
Cu176  O184    1.944   .     S
N177   N228    1.286   .     S
N177   H249    1.029   .     S
N178   N277    1.286   1_455 S
N178   H300    1.029   1_455 S
F187   C205    1.360   .     S
F188   C256    1.360   1_455 S
F191   C266    1.358   1_455 S
F192   C215    1.357   .     S
H193   C213    1.084   .     S
H194   C264    1.084   1_455 S
F198   C308    1.364   .     S
H199   N277    1.029   1_455 S
H200   N228    1.029   .     S
C201   O231    1.286   .     A
C201   O229    1.289   .     A
C201   C207    1.428   .     S
C202   O230    1.289   .     A
C202   O232    1.286   .     A
C202   C208    1.428   .     S
C203   C224    1.423   .     A
C203   F245    1.356   .     S
C203   C205    1.389   .     A
C204   F246    1.356   .     S
C204   C206    1.389   .     A
C204   C223    1.423   .     A
C205   C671    1.393   1_554 S
C206   C672    1.393   .     S
C206   F288    1.360   .     S
C207   C358    1.339   .     S
C207   F397    1.364   .     S
C209   O233    1.302   .     A
C209   C211    1.473   .     S
C209   O235    1.296   .     A
C210   O234    1.302   .     A
C210   C212    1.473   .     S
C210   O236    1.296   .     A
C211   C217    1.402   .     A
C211   C215    1.402   .     A
C212   C216    1.402   .     A
C212   C218    1.402   .     A
C213   C221    1.406   .     A
C213   C215    1.394   .     A
C214   C222    1.407   .     A
C214   C216    1.394   .     A
C214   H294    1.084   .     S
C216   F291    1.358   .     S
C217   C219    1.404   .     A
C217   H240    1.074   .     S
C218   C220    1.404   .     A
C218   H239    1.074   .     S
C219   C223    1.430   .     A
C219   C221    1.416   .     A
C220   C222    1.416   .     A
C220   C224    1.430   .     A
C221   C655    1.393   .     S
C222   C656    1.393   1_554 S
C223   C674    1.427   .     S
C224   C673    1.427   1_554 S
Cu225  O232    1.962   .     S
Cu225  N228    2.017   .     S
Cu225  O229    1.966   .     S
Cu225  O236    1.921   .     S
Cu225  Cu226   2.685   .     S
Cu225  O233    1.944   .     S
Cu226  N227    2.017   .     S
Cu226  O231    1.962   .     S
Cu226  O230    1.966   .     S
Cu226  O235    1.921   .     S
Cu226  O234    1.944   .     S
N227   N278    1.286   .     S
N227   H299    1.029   .     S
F237   C255    1.360   .     S
F242   C265    1.357   .     S
H243   C263    1.084   .     S
F248   C358    1.364   .     S
H250   N278    1.029   .     S
C251   O281    1.286   .     A
C251   O279    1.289   .     A
C251   C257    1.428   .     S
C252   O280    1.289   .     A
C252   O282    1.286   .     A
C252   C258    1.428   .     S
C253   C274    1.423   .     A
C253   F295    1.356   .     S
C253   C255    1.389   .     A
C254   F296    1.356   .     S
C254   C256    1.389   .     A
C254   C273    1.423   .     A
C255   C721    1.393   1_554 S
C256   C722    1.393   .     S
C256   F188    1.360   1_655 S
C257   C408    1.339   .     S
C257   F447    1.364   .     S
C259   O283    1.302   .     A
C259   C261    1.473   .     S
C259   O285    1.296   .     A
C260   O284    1.302   .     A
C260   C262    1.473   .     S
C260   O286    1.296   .     A
C261   C267    1.402   .     A
C261   C265    1.402   .     A
C262   C266    1.402   .     A
C262   C268    1.402   .     A
C263   C271    1.406   .     A
C263   C265    1.394   .     A
C264   C272    1.407   .     A
C264   C266    1.394   .     A
C264   H194    1.084   1_655 S
C266   F191    1.358   1_655 S
C267   C269    1.404   .     A
C267   H290    1.074   .     S
C268   C270    1.404   .     A
C268   H289    1.074   .     S
C269   C273    1.430   .     A
C269   C271    1.416   .     A
C270   C272    1.416   .     A
C270   C274    1.430   .     A
C271   C705    1.393   .     S
C272   C706    1.393   1_554 S
C273   C724    1.427   .     S
C274   C723    1.427   1_554 S
Cu275  O282    1.962   .     S
Cu275  N278    2.017   .     S
Cu275  O279    1.966   .     S
Cu275  O286    1.921   .     S
Cu275  Cu276   2.685   .     S
Cu275  O283    1.944   .     S
Cu276  N277    2.017   .     S
Cu276  O281    1.962   .     S
Cu276  O280    1.966   .     S
Cu276  O285    1.921   .     S
Cu276  O284    1.944   .     S
N277   N178    1.286   1_655 S
N277   H199    1.029   1_655 S
F287   C155    1.360   1_655 S
F292   C165    1.357   1_655 S
H293   C163    1.084   1_655 S
F298   C408    1.364   .     S
H300   N178    1.029   1_655 S
C301   O331    1.286   .     A
C301   O329    1.289   .     A
C301   C307    1.428   .     S
C302   O330    1.289   .     A
C302   O332    1.286   .     A
C302   C308    1.428   .     S
C303   C324    1.423   .     A
C303   F345    1.356   .     S
C303   C305    1.389   .     A
C304   F346    1.356   .     S
C304   C306    1.389   .     A
C304   C323    1.423   .     A
C305   C771    1.393   1_554 S
C305   F437    1.360   1_455 S
C306   C772    1.393   .     S
C306   F388    1.360   .     S
C307   C8      1.339   1_565 S
C307   F47     1.364   1_565 S
C309   O333    1.302   .     A
C309   C311    1.473   .     S
C309   O335    1.296   .     A
C310   O334    1.302   .     A
C310   C312    1.473   .     S
C310   O336    1.296   .     A
C311   C317    1.402   .     A
C311   C315    1.402   .     A
C312   C316    1.402   .     A
C312   C318    1.402   .     A
C313   C321    1.406   .     A
C313   C315    1.394   .     A
C313   H443    1.084   1_455 S
C314   C322    1.407   .     A
C314   C316    1.394   .     A
C314   H394    1.084   .     S
C315   F442    1.357   1_455 S
C316   F391    1.358   .     S
C317   C319    1.404   .     A
C317   H340    1.074   .     S
C318   C320    1.404   .     A
C318   H339    1.074   .     S
C319   C323    1.430   .     A
C319   C321    1.416   .     A
C320   C322    1.416   .     A
C320   C324    1.430   .     A
C321   C755    1.393   .     S
C322   C756    1.393   1_554 S
C323   C774    1.427   .     S
C324   C773    1.427   1_554 S
Cu325  O332    1.962   .     S
Cu325  N328    2.017   .     S
Cu325  O329    1.966   .     S
Cu325  O336    1.921   .     S
Cu325  Cu326   2.685   .     S
Cu325  O333    1.944   .     S
Cu326  N327    2.017   .     S
Cu326  O331    1.962   .     S
Cu326  O330    1.966   .     S
Cu326  O335    1.921   .     S
Cu326  O334    1.944   .     S
N327   N378    1.286   .     S
N327   H399    1.029   .     S
N328   N427    1.286   1_455 S
N328   H450    1.029   1_455 S
F337   C355    1.360   .     S
F338   C406    1.360   1_455 S
F341   C416    1.358   1_455 S
F342   C365    1.357   .     S
H343   C363    1.084   .     S
H344   C414    1.084   1_455 S
F348   C8      1.364   1_565 S
H349   N427    1.029   1_455 S
H350   N378    1.029   .     S
C351   O381    1.286   .     A
C351   O379    1.289   .     A
C351   C357    1.428   .     S
C352   O380    1.289   .     A
C352   O382    1.286   .     A
C352   C358    1.428   .     S
C353   C374    1.423   .     A
C353   F395    1.356   .     S
C353   C355    1.389   .     A
C354   F396    1.356   .     S
C354   C356    1.389   .     A
C354   C373    1.423   .     A
C355   C821    1.393   1_554 S
C356   C822    1.393   .     S
C356   F438    1.360   .     S
C357   C58     1.339   1_565 S
C357   F97     1.364   1_565 S
C359   O383    1.302   .     A
C359   C361    1.473   .     S
C359   O385    1.296   .     A
C360   O384    1.302   .     A
C360   C362    1.473   .     S
C360   O386    1.296   .     A
C361   C367    1.402   .     A
C361   C365    1.402   .     A
C362   C366    1.402   .     A
C362   C368    1.402   .     A
C363   C371    1.406   .     A
C363   C365    1.394   .     A
C364   C372    1.407   .     A
C364   C366    1.394   .     A
C364   H444    1.084   .     S
C366   F441    1.358   .     S
C367   C369    1.404   .     A
C367   H390    1.074   .     S
C368   C370    1.404   .     A
C368   H389    1.074   .     S
C369   C373    1.430   .     A
C369   C371    1.416   .     A
C370   C372    1.416   .     A
C370   C374    1.430   .     A
C371   C805    1.393   .     S
C372   C806    1.393   1_554 S
C373   C824    1.427   .     S
C374   C823    1.427   1_554 S
Cu375  O382    1.962   .     S
Cu375  N378    2.017   .     S
Cu375  O379    1.966   .     S
Cu375  O386    1.921   .     S
Cu375  Cu376   2.685   .     S
Cu375  O383    1.944   .     S
Cu376  N377    2.017   .     S
Cu376  O381    1.962   .     S
Cu376  O380    1.966   .     S
Cu376  O385    1.921   .     S
Cu376  O384    1.944   .     S
N377   N428    1.286   .     S
N377   H449    1.029   .     S
F387   C405    1.360   .     S
F392   C415    1.357   .     S
H393   C413    1.084   .     S
F398   C58     1.364   1_565 S
H400   N428    1.029   .     S
C401   O431    1.286   .     A
C401   O429    1.289   .     A
C401   C407    1.428   .     S
C402   O430    1.289   .     A
C402   O432    1.286   .     A
C402   C408    1.428   .     S
C403   C424    1.423   .     A
C403   F445    1.356   .     S
C403   C405    1.389   .     A
C404   F446    1.356   .     S
C404   C406    1.389   .     A
C404   C423    1.423   .     A
C405   C871    1.393   1_554 S
C406   C872    1.393   .     S
C406   F338    1.360   1_655 S
C407   C108    1.339   1_565 S
C407   F147    1.364   1_565 S
C409   O433    1.302   .     A
C409   C411    1.473   .     S
C409   O435    1.296   .     A
C410   O434    1.302   .     A
C410   C412    1.473   .     S
C410   O436    1.296   .     A
C411   C417    1.402   .     A
C411   C415    1.402   .     A
C412   C416    1.402   .     A
C412   C418    1.402   .     A
C413   C421    1.406   .     A
C413   C415    1.394   .     A
C414   C422    1.407   .     A
C414   C416    1.394   .     A
C414   H344    1.084   1_655 S
C416   F341    1.358   1_655 S
C417   C419    1.404   .     A
C417   H440    1.074   .     S
C418   C420    1.404   .     A
C418   H439    1.074   .     S
C419   C423    1.430   .     A
C419   C421    1.416   .     A
C420   C422    1.416   .     A
C420   C424    1.430   .     A
C421   C855    1.393   .     S
C422   C856    1.393   1_554 S
C423   C874    1.427   .     S
C424   C873    1.427   1_554 S
Cu425  O432    1.962   .     S
Cu425  N428    2.017   .     S
Cu425  O429    1.966   .     S
Cu425  O436    1.921   .     S
Cu425  Cu426   2.685   .     S
Cu425  O433    1.944   .     S
Cu426  N427    2.017   .     S
Cu426  O431    1.962   .     S
Cu426  O430    1.966   .     S
Cu426  O435    1.921   .     S
Cu426  O434    1.944   .     S
N427   N328    1.286   1_655 S
N427   H349    1.029   1_655 S
F437   C305    1.360   1_655 S
F442   C315    1.357   1_655 S
H443   C313    1.084   1_655 S
F448   C108    1.364   1_565 S
H450   N328    1.029   1_655 S
C451   O481    1.286   .     A
C451   O479    1.289   .     A
C451   C457    1.428   .     S
C452   O480    1.289   .     A
C452   O482    1.286   .     A
C452   C458    1.428   .     S
C453   C474    1.423   .     A
C453   F495    1.356   .     S
C453   C455    1.389   .     A
C454   F496    1.356   .     S
C454   C456    1.389   .     A
C454   C473    1.423   .     A
C455   F587    1.360   1_455 S
C456   C22     1.393   1_556 S
C456   F538    1.360   .     S
C457   C608    1.339   .     S
C457   F647    1.364   .     S
C458   C757    1.339   1_545 S
C458   F798    1.364   1_545 S
C459   O483    1.302   .     A
C459   C461    1.473   .     S
C459   O485    1.296   .     A
C460   O484    1.302   .     A
C460   C462    1.473   .     S
C460   O486    1.296   .     A
C461   C467    1.402   .     A
C461   C465    1.402   .     A
C462   C466    1.402   .     A
C462   C468    1.402   .     A
C463   C471    1.406   .     A
C463   C465    1.394   .     A
C463   H593    1.084   1_455 S
C464   C472    1.407   .     A
C464   C466    1.394   .     A
C464   H544    1.084   .     S
C465   F592    1.357   1_455 S
C466   F541    1.358   .     S
C467   C469    1.404   .     A
C467   H490    1.074   .     S
C468   C470    1.404   .     A
C468   H489    1.074   .     S
C469   C473    1.430   .     A
C469   C471    1.416   .     A
C470   C472    1.416   .     A
C470   C474    1.430   .     A
C471   C5      1.393   1_556 S
C473   C24     1.427   1_556 S
Cu475  O482    1.962   .     S
Cu475  N478    2.017   .     S
Cu475  O479    1.966   .     S
Cu475  O486    1.921   .     S
Cu475  Cu476   2.685   .     S
Cu475  O483    1.944   .     S
Cu476  N477    2.017   .     S
Cu476  O481    1.962   .     S
Cu476  O480    1.966   .     S
Cu476  O485    1.921   .     S
Cu476  O484    1.944   .     S
N477   N528    1.286   .     S
N477   H549    1.029   .     S
N478   N577    1.286   1_455 S
N478   H600    1.029   1_455 S
F487   C505    1.360   .     S
F488   C556    1.360   1_455 S
F491   C566    1.358   1_455 S
F492   C515    1.357   .     S
H493   C513    1.084   .     S
H494   C564    1.084   1_455 S
F497   C757    1.364   1_545 S
F498   C608    1.364   .     S
H499   N577    1.029   1_455 S
H500   N528    1.029   .     S
C501   O531    1.286   .     A
C501   O529    1.289   .     A
C501   C507    1.428   .     S
C502   O530    1.289   .     A
C502   O532    1.286   .     A
C502   C508    1.428   .     S
C503   C524    1.423   .     A
C503   F545    1.356   .     S
C503   C505    1.389   .     A
C504   F546    1.356   .     S
C504   C506    1.389   .     A
C504   C523    1.423   .     A
C506   C72     1.393   1_556 S
C506   F588    1.360   .     S
C507   C658    1.339   .     S
C507   F697    1.364   .     S
C508   C807    1.339   1_545 S
C508   F848    1.364   1_545 S
C509   O533    1.302   .     A
C509   C511    1.473   .     S
C509   O535    1.296   .     A
C510   O534    1.302   .     A
C510   C512    1.473   .     S
C510   O536    1.296   .     A
C511   C517    1.402   .     A
C511   C515    1.402   .     A
C512   C516    1.402   .     A
C512   C518    1.402   .     A
C513   C521    1.406   .     A
C513   C515    1.394   .     A
C514   C522    1.407   .     A
C514   C516    1.394   .     A
C514   H594    1.084   .     S
C516   F591    1.358   .     S
C517   C519    1.404   .     A
C517   H540    1.074   .     S
C518   C520    1.404   .     A
C518   H539    1.074   .     S
C519   C523    1.430   .     A
C519   C521    1.416   .     A
C520   C522    1.416   .     A
C520   C524    1.430   .     A
C521   C55     1.393   1_556 S
C523   C74     1.427   1_556 S
Cu525  O532    1.962   .     S
Cu525  N528    2.017   .     S
Cu525  O529    1.966   .     S
Cu525  O536    1.921   .     S
Cu525  Cu526   2.685   .     S
Cu525  O533    1.944   .     S
Cu526  N527    2.017   .     S
Cu526  O531    1.962   .     S
Cu526  O530    1.966   .     S
Cu526  O535    1.921   .     S
Cu526  O534    1.944   .     S
N527   N578    1.286   .     S
N527   H599    1.029   .     S
F537   C555    1.360   .     S
F542   C565    1.357   .     S
H543   C563    1.084   .     S
F547   C807    1.364   1_545 S
F548   C658    1.364   .     S
H550   N578    1.029   .     S
C551   O581    1.286   .     A
C551   O579    1.289   .     A
C551   C557    1.428   .     S
C552   O580    1.289   .     A
C552   O582    1.286   .     A
C552   C558    1.428   .     S
C553   C574    1.423   .     A
C553   F595    1.356   .     S
C553   C555    1.389   .     A
C554   F596    1.356   .     S
C554   C556    1.389   .     A
C554   C573    1.423   .     A
C556   C122    1.393   1_556 S
C556   F488    1.360   1_655 S
C557   C708    1.339   .     S
C557   F747    1.364   .     S
C558   C857    1.339   1_545 S
C558   F898    1.364   1_545 S
C559   O583    1.302   .     A
C559   C561    1.473   .     S
C559   O585    1.296   .     A
C560   O584    1.302   .     A
C560   C562    1.473   .     S
C560   O586    1.296   .     A
C561   C567    1.402   .     A
C561   C565    1.402   .     A
C562   C566    1.402   .     A
C562   C568    1.402   .     A
C563   C571    1.406   .     A
C563   C565    1.394   .     A
C564   C572    1.407   .     A
C564   C566    1.394   .     A
C564   H494    1.084   1_655 S
C566   F491    1.358   1_655 S
C567   C569    1.404   .     A
C567   H590    1.074   .     S
C568   C570    1.404   .     A
C568   H589    1.074   .     S
C569   C573    1.430   .     A
C569   C571    1.416   .     A
C570   C572    1.416   .     A
C570   C574    1.430   .     A
C571   C105    1.393   1_556 S
C573   C124    1.427   1_556 S
Cu575  O582    1.962   .     S
Cu575  N578    2.017   .     S
Cu575  O579    1.966   .     S
Cu575  O586    1.921   .     S
Cu575  Cu576   2.685   .     S
Cu575  O583    1.944   .     S
Cu576  N577    2.017   .     S
Cu576  O581    1.962   .     S
Cu576  O580    1.966   .     S
Cu576  O585    1.921   .     S
Cu576  O584    1.944   .     S
N577   N478    1.286   1_655 S
N577   H499    1.029   1_655 S
F587   C455    1.360   1_655 S
F592   C465    1.357   1_655 S
H593   C463    1.084   1_655 S
F597   C857    1.364   1_545 S
F598   C708    1.364   .     S
H600   N478    1.029   1_655 S
C601   O631    1.286   .     A
C601   O629    1.289   .     A
C601   C607    1.428   .     S
C602   O630    1.289   .     A
C602   O632    1.286   .     A
C602   C608    1.428   .     S
C603   C624    1.423   .     A
C603   F645    1.356   .     S
C603   C605    1.389   .     A
C604   F646    1.356   .     S
C604   C606    1.389   .     A
C604   C623    1.423   .     A
C605   F737    1.360   1_455 S
C606   C172    1.393   1_556 S
C606   F688    1.360   .     S
C607   C758    1.339   .     S
C607   F797    1.364   .     S
C609   O633    1.302   .     A
C609   C611    1.473   .     S
C609   O635    1.296   .     A
C610   O634    1.302   .     A
C610   C612    1.473   .     S
C610   O636    1.296   .     A
C611   C617    1.402   .     A
C611   C615    1.402   .     A
C612   C616    1.402   .     A
C612   C618    1.402   .     A
C613   C621    1.406   .     A
C613   C615    1.394   .     A
C613   H743    1.084   1_455 S
C614   C622    1.407   .     A
C614   C616    1.394   .     A
C614   H694    1.084   .     S
C615   F742    1.357   1_455 S
C616   F691    1.358   .     S
C617   C619    1.404   .     A
C617   H640    1.074   .     S
C618   C620    1.404   .     A
C618   H639    1.074   .     S
C619   C623    1.430   .     A
C619   C621    1.416   .     A
C620   C622    1.416   .     A
C620   C624    1.430   .     A
C621   C155    1.393   1_556 S
C623   C174    1.427   1_556 S
Cu625  O632    1.962   .     S
Cu625  N628    2.017   .     S
Cu625  O629    1.966   .     S
Cu625  O636    1.921   .     S
Cu625  Cu626   2.685   .     S
Cu625  O633    1.944   .     S
Cu626  N627    2.017   .     S
Cu626  O631    1.962   .     S
Cu626  O630    1.966   .     S
Cu626  O635    1.921   .     S
Cu626  O634    1.944   .     S
N627   N678    1.286   .     S
N627   H699    1.029   .     S
N628   N727    1.286   1_455 S
N628   H750    1.029   1_455 S
F637   C655    1.360   .     S
F638   C706    1.360   1_455 S
F641   C716    1.358   1_455 S
F642   C665    1.357   .     S
H643   C663    1.084   .     S
H644   C714    1.084   1_455 S
F648   C758    1.364   .     S
H649   N727    1.029   1_455 S
H650   N678    1.029   .     S
C651   O681    1.286   .     A
C651   O679    1.289   .     A
C651   C657    1.428   .     S
C652   O680    1.289   .     A
C652   O682    1.286   .     A
C652   C658    1.428   .     S
C653   C674    1.423   .     A
C653   F695    1.356   .     S
C653   C655    1.389   .     A
C654   F696    1.356   .     S
C654   C656    1.389   .     A
C654   C673    1.423   .     A
C656   C222    1.393   1_556 S
C656   F738    1.360   .     S
C657   C808    1.339   .     S
C657   F847    1.364   .     S
C659   O683    1.302   .     A
C659   C661    1.473   .     S
C659   O685    1.296   .     A
C660   O684    1.302   .     A
C660   C662    1.473   .     S
C660   O686    1.296   .     A
C661   C667    1.402   .     A
C661   C665    1.402   .     A
C662   C666    1.402   .     A
C662   C668    1.402   .     A
C663   C671    1.406   .     A
C663   C665    1.394   .     A
C664   C672    1.407   .     A
C664   C666    1.394   .     A
C664   H744    1.084   .     S
C666   F741    1.358   .     S
C667   C669    1.404   .     A
C667   H690    1.074   .     S
C668   C670    1.404   .     A
C668   H689    1.074   .     S
C669   C673    1.430   .     A
C669   C671    1.416   .     A
C670   C672    1.416   .     A
C670   C674    1.430   .     A
C671   C205    1.393   1_556 S
C673   C224    1.427   1_556 S
Cu675  O682    1.962   .     S
Cu675  N678    2.017   .     S
Cu675  O679    1.966   .     S
Cu675  O686    1.921   .     S
Cu675  Cu676   2.685   .     S
Cu675  O683    1.944   .     S
Cu676  N677    2.017   .     S
Cu676  O681    1.962   .     S
Cu676  O680    1.966   .     S
Cu676  O685    1.921   .     S
Cu676  O684    1.944   .     S
N677   N728    1.286   .     S
N677   H749    1.029   .     S
F687   C705    1.360   .     S
F692   C715    1.357   .     S
H693   C713    1.084   .     S
F698   C808    1.364   .     S
H700   N728    1.029   .     S
C701   O731    1.286   .     A
C701   O729    1.289   .     A
C701   C707    1.428   .     S
C702   O730    1.289   .     A
C702   O732    1.286   .     A
C702   C708    1.428   .     S
C703   C724    1.423   .     A
C703   F745    1.356   .     S
C703   C705    1.389   .     A
C704   F746    1.356   .     S
C704   C706    1.389   .     A
C704   C723    1.423   .     A
C706   C272    1.393   1_556 S
C706   F638    1.360   1_655 S
C707   C858    1.339   .     S
C707   F897    1.364   .     S
C709   O733    1.302   .     A
C709   C711    1.473   .     S
C709   O735    1.296   .     A
C710   O734    1.302   .     A
C710   C712    1.473   .     S
C710   O736    1.296   .     A
C711   C717    1.402   .     A
C711   C715    1.402   .     A
C712   C716    1.402   .     A
C712   C718    1.402   .     A
C713   C721    1.406   .     A
C713   C715    1.394   .     A
C714   C722    1.407   .     A
C714   C716    1.394   .     A
C714   H644    1.084   1_655 S
C716   F641    1.358   1_655 S
C717   C719    1.404   .     A
C717   H740    1.074   .     S
C718   C720    1.404   .     A
C718   H739    1.074   .     S
C719   C723    1.430   .     A
C719   C721    1.416   .     A
C720   C722    1.416   .     A
C720   C724    1.430   .     A
C721   C255    1.393   1_556 S
C723   C274    1.427   1_556 S
Cu725  O732    1.962   .     S
Cu725  N728    2.017   .     S
Cu725  O729    1.966   .     S
Cu725  O736    1.921   .     S
Cu725  Cu726   2.685   .     S
Cu725  O733    1.944   .     S
Cu726  N727    2.017   .     S
Cu726  O731    1.962   .     S
Cu726  O730    1.966   .     S
Cu726  O735    1.921   .     S
Cu726  O734    1.944   .     S
N727   N628    1.286   1_655 S
N727   H649    1.029   1_655 S
F737   C605    1.360   1_655 S
F742   C615    1.357   1_655 S
H743   C613    1.084   1_655 S
F748   C858    1.364   .     S
H750   N628    1.029   1_655 S
C751   O781    1.286   .     A
C751   O779    1.289   .     A
C751   C757    1.428   .     S
C752   O780    1.289   .     A
C752   O782    1.286   .     A
C752   C758    1.428   .     S
C753   C774    1.423   .     A
C753   F795    1.356   .     S
C753   C755    1.389   .     A
C754   F796    1.356   .     S
C754   C756    1.389   .     A
C754   C773    1.423   .     A
C755   F887    1.360   1_455 S
C756   C322    1.393   1_556 S
C756   F838    1.360   .     S
C757   C458    1.339   1_565 S
C757   F497    1.364   1_565 S
C759   O783    1.302   .     A
C759   C761    1.473   .     S
C759   O785    1.296   .     A
C760   O784    1.302   .     A
C760   C762    1.473   .     S
C760   O786    1.296   .     A
C761   C767    1.402   .     A
C761   C765    1.402   .     A
C762   C766    1.402   .     A
C762   C768    1.402   .     A
C763   C771    1.406   .     A
C763   C765    1.394   .     A
C763   H893    1.084   1_455 S
C764   C772    1.407   .     A
C764   C766    1.394   .     A
C764   H844    1.084   .     S
C765   F892    1.357   1_455 S
C766   F841    1.358   .     S
C767   C769    1.404   .     A
C767   H790    1.074   .     S
C768   C770    1.404   .     A
C768   H789    1.074   .     S
C769   C773    1.430   .     A
C769   C771    1.416   .     A
C770   C772    1.416   .     A
C770   C774    1.430   .     A
C771   C305    1.393   1_556 S
C773   C324    1.427   1_556 S
Cu775  O782    1.962   .     S
Cu775  N778    2.017   .     S
Cu775  O779    1.966   .     S
Cu775  O786    1.921   .     S
Cu775  Cu776   2.685   .     S
Cu775  O783    1.944   .     S
Cu776  N777    2.017   .     S
Cu776  O781    1.962   .     S
Cu776  O780    1.966   .     S
Cu776  O785    1.921   .     S
Cu776  O784    1.944   .     S
N777   N828    1.286   .     S
N777   H849    1.029   .     S
N778   N877    1.286   1_455 S
N778   H900    1.029   1_455 S
F787   C805    1.360   .     S
F788   C856    1.360   1_455 S
F791   C866    1.358   1_455 S
F792   C815    1.357   .     S
H793   C813    1.084   .     S
H794   C864    1.084   1_455 S
F798   C458    1.364   1_565 S
H799   N877    1.029   1_455 S
H800   N828    1.029   .     S
C801   O831    1.286   .     A
C801   O829    1.289   .     A
C801   C807    1.428   .     S
C802   O830    1.289   .     A
C802   O832    1.286   .     A
C802   C808    1.428   .     S
C803   C824    1.423   .     A
C803   F845    1.356   .     S
C803   C805    1.389   .     A
C804   F846    1.356   .     S
C804   C806    1.389   .     A
C804   C823    1.423   .     A
C806   C372    1.393   1_556 S
C806   F888    1.360   .     S
C807   C508    1.339   1_565 S
C807   F547    1.364   1_565 S
C809   O833    1.302   .     A
C809   C811    1.473   .     S
C809   O835    1.296   .     A
C810   O834    1.302   .     A
C810   C812    1.473   .     S
C810   O836    1.296   .     A
C811   C817    1.402   .     A
C811   C815    1.402   .     A
C812   C816    1.402   .     A
C812   C818    1.402   .     A
C813   C821    1.406   .     A
C813   C815    1.394   .     A
C814   C822    1.407   .     A
C814   C816    1.394   .     A
C814   H894    1.084   .     S
C816   F891    1.358   .     S
C817   C819    1.404   .     A
C817   H840    1.074   .     S
C818   C820    1.404   .     A
C818   H839    1.074   .     S
C819   C823    1.430   .     A
C819   C821    1.416   .     A
C820   C822    1.416   .     A
C820   C824    1.430   .     A
C821   C355    1.393   1_556 S
C823   C374    1.427   1_556 S
Cu825  O832    1.962   .     S
Cu825  N828    2.017   .     S
Cu825  O829    1.966   .     S
Cu825  O836    1.921   .     S
Cu825  Cu826   2.685   .     S
Cu825  O833    1.944   .     S
Cu826  N827    2.017   .     S
Cu826  O831    1.962   .     S
Cu826  O830    1.966   .     S
Cu826  O835    1.921   .     S
Cu826  O834    1.944   .     S
N827   N878    1.286   .     S
N827   H899    1.029   .     S
F837   C855    1.360   .     S
F842   C865    1.357   .     S
H843   C863    1.084   .     S
F848   C508    1.364   1_565 S
H850   N878    1.029   .     S
C851   O881    1.286   .     A
C851   O879    1.289   .     A
C851   C857    1.428   .     S
C852   O880    1.289   .     A
C852   O882    1.286   .     A
C852   C858    1.428   .     S
C853   C874    1.423   .     A
C853   F895    1.356   .     S
C853   C855    1.389   .     A
C854   F896    1.356   .     S
C854   C856    1.389   .     A
C854   C873    1.423   .     A
C856   C422    1.393   1_556 S
C856   F788    1.360   1_655 S
C857   C558    1.339   1_565 S
C857   F597    1.364   1_565 S
C859   O883    1.302   .     A
C859   C861    1.473   .     S
C859   O885    1.296   .     A
C860   O884    1.302   .     A
C860   C862    1.473   .     S
C860   O886    1.296   .     A
C861   C867    1.402   .     A
C861   C865    1.402   .     A
C862   C866    1.402   .     A
C862   C868    1.402   .     A
C863   C871    1.406   .     A
C863   C865    1.394   .     A
C864   C872    1.407   .     A
C864   C866    1.394   .     A
C864   H794    1.084   1_655 S
C866   F791    1.358   1_655 S
C867   C869    1.404   .     A
C867   H890    1.074   .     S
C868   C870    1.404   .     A
C868   H889    1.074   .     S
C869   C873    1.430   .     A
C869   C871    1.416   .     A
C870   C872    1.416   .     A
C870   C874    1.430   .     A
C871   C405    1.393   1_556 S
C873   C424    1.427   1_556 S
Cu875  O882    1.962   .     S
Cu875  N878    2.017   .     S
Cu875  O879    1.966   .     S
Cu875  O886    1.921   .     S
Cu875  Cu876   2.685   .     S
Cu875  O883    1.944   .     S
Cu876  N877    2.017   .     S
Cu876  O881    1.962   .     S
Cu876  O880    1.966   .     S
Cu876  O885    1.921   .     S
Cu876  O884    1.944   .     S
N877   N778    1.286   1_655 S
N877   H799    1.029   1_655 S
F887   C755    1.360   1_655 S
F892   C765    1.357   1_655 S
H893   C763    1.084   1_655 S
F898   C558    1.364   1_565 S
H900   N778    1.029   1_655 S
