data_str_m2_o10_o16_pcu_sym.113
_audit_creation_date              2020-01-03
_audit_creation_method            'Materials Studio'
_symmetry_space_group_name_H-M    'P1'
_symmetry_Int_Tables_number       1
_symmetry_cell_setting            triclinic
loop_
_symmetry_equiv_pos_as_xyz
  x,y,z
_cell_length_a                    22.7538
_cell_length_b                    26.2618
_cell_length_c                    26.9497
_cell_angle_alpha                 100.3883
_cell_angle_beta                  78.7152
_cell_angle_gamma                 103.7915
loop_
_atom_site_label
_atom_site_type_symbol
_atom_site_fract_x
_atom_site_fract_y
_atom_site_fract_z
_atom_site_U_iso_or_equiv
_atom_site_adp_type
_atom_site_occupancy
C1     C     0.18192   0.26680   0.25187   0.00000  Uiso   1.00
C2     C     0.14014   0.17058   0.48789   0.00000  Uiso   1.00
C3     C     0.15683   0.18455   0.43775   0.00000  Uiso   1.00
C4     C     0.18565   0.18272   0.02018   0.00000  Uiso   1.00
C5     C     0.24510   0.21220   0.00365   0.00000  Uiso   1.00
C6     C     0.25813   0.23080   0.45669   0.00000  Uiso   1.00
C7     C     0.21439   0.21805   0.42463   0.00000  Uiso   1.00
C8     C     0.17412   0.16603   0.06834   0.00000  Uiso   1.00
C9     C     0.27725   0.20808   0.08314   0.00000  Uiso   1.00
C10    C     0.11499   0.16519   0.40244   0.00000  Uiso   1.00
C11    C     0.19002   0.32309   0.25267   0.00000  Uiso   1.00
C12    C     0.13425   0.16609   0.34700   0.00000  Uiso   1.00
C13    C     0.14283   0.01037   0.24856   0.00000  Uiso   1.00
C14    C     0.15096   0.06664   0.24935   0.00000  Uiso   1.00
C15    C     0.19954   0.17133   0.15375   0.00000  Uiso   1.00
C16    C     0.29060   0.22382   0.03484   0.00000  Uiso   1.00
C17    C     0.21836   0.18027   0.10043   0.00000  Uiso   1.00
C18    C     0.05459   0.13991   0.41968   0.00000  Uiso   1.00
C19    C     0.03640   0.13115   0.47013   0.00000  Uiso   1.00
C20    C     0.07852   0.14538   0.00379   0.00000  Uiso   1.00
Cu21   Cu    0.10710   0.16105   0.24436   0.00000  Uiso   1.00
Cu22   Cu    0.22623   0.17228   0.25565   0.00000  Uiso   1.00
H23    H     0.31213   0.21940   0.10757   0.00000  Uiso   1.00
H24    H     0.09779   0.31914   0.24451   0.00000  Uiso   1.00
H25    H     0.00231   0.20723   0.29233   0.00000  Uiso   1.00
H26    H     0.30241   0.25542   0.44465   0.00000  Uiso   1.00
H27    H     0.00282   0.24600   0.02225   0.00000  Uiso   1.00
H28    H     0.13069   0.14220   0.08228   0.00000  Uiso   1.00
H29    H     0.02143   0.12563   0.39379   0.00000  Uiso   1.00
H30    H     0.06078   0.13709   0.04223   0.00000  Uiso   1.00
H31    H     0.32288   0.11197   0.48301   0.00000  Uiso   1.00
H32    H     0.22612   0.23608   0.39006   0.00000  Uiso   1.00
H33    H     0.23507   0.01433   0.25665   0.00000  Uiso   1.00
N34    N     0.31574   0.18074   0.26416   0.00000  Uiso   1.00
N35    N     0.01759   0.15259   0.23584   0.00000  Uiso   1.00
O36    O     0.12797   0.23807   0.24633   0.00000  Uiso   1.00
O37    O     0.22858   0.24755   0.25587   0.00000  Uiso   1.00
O38    O     0.09181   0.15960   0.31840   0.00000  Uiso   1.00
O39    O     0.19242   0.16908   0.32793   0.00000  Uiso   1.00
O40    O     0.10476   0.08578   0.24414   0.00000  Uiso   1.00
O41    O     0.20536   0.09526   0.25367   0.00000  Uiso   1.00
O42    O     0.14092   0.16425   0.17207   0.00000  Uiso   1.00
O43    O     0.24152   0.17373   0.18161   0.00000  Uiso   1.00
C44    C     0.00446   0.10989   0.18940   0.00000  Uiso   1.00
C45    C     0.05109   0.08207   0.16071   0.00000  Uiso   1.00
C46    C     0.04749   0.04729   0.11485   0.00000  Uiso   1.00
C47    C     0.32854   0.03466   0.09348   0.00000  Uiso   1.00
C48    C     0.27929   0.05475   0.11962   0.00000  Uiso   1.00
C49    C     0.28338   0.08905   0.16588   0.00000  Uiso   1.00
H50    H     0.09457   0.08379   0.16851   0.00000  Uiso   1.00
H51    H     0.08623   0.03002   0.09568   0.00000  Uiso   1.00
H52    H     0.32557   0.00828   0.05783   0.00000  Uiso   1.00
H53    H     0.23661   0.04286   0.10419   0.00000  Uiso   1.00
H54    H     0.23893   0.09347   0.17696   0.00000  Uiso   1.00
C55    C     0.51525   0.26680   0.25187   0.00000  Uiso   1.00
C56    C     0.47347   0.17058   0.48789   0.00000  Uiso   1.00
C57    C     0.49016   0.18455   0.43775   0.00000  Uiso   1.00
C58    C     0.51899   0.18272   0.02018   0.00000  Uiso   1.00
C59    C     0.57843   0.21220   0.00365   0.00000  Uiso   1.00
C60    C     0.59146   0.23080   0.45669   0.00000  Uiso   1.00
C61    C     0.54773   0.21805   0.42463   0.00000  Uiso   1.00
C62    C     0.50745   0.16603   0.06834   0.00000  Uiso   1.00
C63    C     0.61058   0.20808   0.08314   0.00000  Uiso   1.00
C64    C     0.44833   0.16519   0.40244   0.00000  Uiso   1.00
C65    C     0.52335   0.32309   0.25267   0.00000  Uiso   1.00
C66    C     0.46758   0.16609   0.34700   0.00000  Uiso   1.00
C67    C     0.47616   0.01037   0.24856   0.00000  Uiso   1.00
C68    C     0.48429   0.06664   0.24935   0.00000  Uiso   1.00
C69    C     0.53287   0.17133   0.15375   0.00000  Uiso   1.00
C70    C     0.62393   0.22382   0.03484   0.00000  Uiso   1.00
C71    C     0.55169   0.18027   0.10043   0.00000  Uiso   1.00
C72    C     0.38793   0.13991   0.41968   0.00000  Uiso   1.00
C73    C     0.36973   0.13115   0.47013   0.00000  Uiso   1.00
C74    C     0.41186   0.14538   0.00379   0.00000  Uiso   1.00
Cu75   Cu    0.44043   0.16105   0.24436   0.00000  Uiso   1.00
Cu76   Cu    0.55957   0.17228   0.25565   0.00000  Uiso   1.00
H77    H     0.64546   0.21940   0.10757   0.00000  Uiso   1.00
H78    H     0.43113   0.31914   0.24451   0.00000  Uiso   1.00
H79    H     0.33565   0.20723   0.29233   0.00000  Uiso   1.00
H80    H     0.63574   0.25542   0.44465   0.00000  Uiso   1.00
H81    H     0.33616   0.24600   0.02225   0.00000  Uiso   1.00
H82    H     0.46403   0.14220   0.08228   0.00000  Uiso   1.00
H83    H     0.35477   0.12563   0.39379   0.00000  Uiso   1.00
H84    H     0.39411   0.13709   0.04223   0.00000  Uiso   1.00
H85    H     0.65621   0.11197   0.48301   0.00000  Uiso   1.00
H86    H     0.55946   0.23608   0.39006   0.00000  Uiso   1.00
H87    H     0.56841   0.01433   0.25665   0.00000  Uiso   1.00
N88    N     0.64908   0.18074   0.26416   0.00000  Uiso   1.00
N89    N     0.35092   0.15259   0.23584   0.00000  Uiso   1.00
O90    O     0.46131   0.23807   0.24633   0.00000  Uiso   1.00
O91    O     0.56191   0.24755   0.25587   0.00000  Uiso   1.00
O92    O     0.42515   0.15960   0.31840   0.00000  Uiso   1.00
O93    O     0.52575   0.16908   0.32793   0.00000  Uiso   1.00
O94    O     0.43809   0.08578   0.24414   0.00000  Uiso   1.00
O95    O     0.53869   0.09526   0.25367   0.00000  Uiso   1.00
O96    O     0.47425   0.16425   0.17207   0.00000  Uiso   1.00
O97    O     0.57485   0.17373   0.18161   0.00000  Uiso   1.00
C98    C     0.33780   0.10989   0.18940   0.00000  Uiso   1.00
C99    C     0.38443   0.08207   0.16071   0.00000  Uiso   1.00
C100   C     0.38083   0.04729   0.11485   0.00000  Uiso   1.00
C101   C     0.66188   0.03466   0.09348   0.00000  Uiso   1.00
C102   C     0.61262   0.05475   0.11962   0.00000  Uiso   1.00
C103   C     0.61672   0.08905   0.16588   0.00000  Uiso   1.00
H104   H     0.42790   0.08379   0.16851   0.00000  Uiso   1.00
H105   H     0.41957   0.03002   0.09568   0.00000  Uiso   1.00
H106   H     0.65891   0.00828   0.05783   0.00000  Uiso   1.00
H107   H     0.56994   0.04286   0.10419   0.00000  Uiso   1.00
H108   H     0.57227   0.09347   0.17696   0.00000  Uiso   1.00
C109   C     0.84858   0.26680   0.25187   0.00000  Uiso   1.00
C110   C     0.80680   0.17058   0.48789   0.00000  Uiso   1.00
C111   C     0.82349   0.18455   0.43775   0.00000  Uiso   1.00
C112   C     0.85232   0.18272   0.02018   0.00000  Uiso   1.00
C113   C     0.91176   0.21220   0.00365   0.00000  Uiso   1.00
C114   C     0.92480   0.23080   0.45669   0.00000  Uiso   1.00
C115   C     0.88106   0.21805   0.42463   0.00000  Uiso   1.00
C116   C     0.84078   0.16603   0.06834   0.00000  Uiso   1.00
C117   C     0.94391   0.20808   0.08314   0.00000  Uiso   1.00
C118   C     0.78166   0.16519   0.40244   0.00000  Uiso   1.00
C119   C     0.85669   0.32309   0.25267   0.00000  Uiso   1.00
C120   C     0.80092   0.16609   0.34700   0.00000  Uiso   1.00
C121   C     0.80950   0.01037   0.24856   0.00000  Uiso   1.00
C122   C     0.81762   0.06664   0.24935   0.00000  Uiso   1.00
C123   C     0.86620   0.17133   0.15375   0.00000  Uiso   1.00
C124   C     0.95726   0.22382   0.03484   0.00000  Uiso   1.00
C125   C     0.88503   0.18027   0.10043   0.00000  Uiso   1.00
C126   C     0.72126   0.13991   0.41968   0.00000  Uiso   1.00
C127   C     0.70307   0.13115   0.47013   0.00000  Uiso   1.00
C128   C     0.74519   0.14538   0.00379   0.00000  Uiso   1.00
Cu129  Cu    0.77377   0.16105   0.24436   0.00000  Uiso   1.00
Cu130  Cu    0.89290   0.17228   0.25565   0.00000  Uiso   1.00
H131   H     0.97880   0.21940   0.10757   0.00000  Uiso   1.00
H132   H     0.76446   0.31914   0.24451   0.00000  Uiso   1.00
H133   H     0.66898   0.20723   0.29233   0.00000  Uiso   1.00
H134   H     0.96907   0.25542   0.44465   0.00000  Uiso   1.00
H135   H     0.66949   0.24600   0.02225   0.00000  Uiso   1.00
H136   H     0.79736   0.14220   0.08228   0.00000  Uiso   1.00
H137   H     0.68810   0.12563   0.39379   0.00000  Uiso   1.00
H138   H     0.72744   0.13709   0.04223   0.00000  Uiso   1.00
H139   H     0.98954   0.11197   0.48301   0.00000  Uiso   1.00
H140   H     0.89279   0.23608   0.39006   0.00000  Uiso   1.00
H141   H     0.90174   0.01433   0.25665   0.00000  Uiso   1.00
N142   N     0.98241   0.18074   0.26416   0.00000  Uiso   1.00
N143   N     0.68426   0.15259   0.23584   0.00000  Uiso   1.00
O144   O     0.79464   0.23807   0.24633   0.00000  Uiso   1.00
O145   O     0.89524   0.24755   0.25587   0.00000  Uiso   1.00
O146   O     0.75848   0.15960   0.31840   0.00000  Uiso   1.00
O147   O     0.85908   0.16908   0.32793   0.00000  Uiso   1.00
O148   O     0.77142   0.08578   0.24414   0.00000  Uiso   1.00
O149   O     0.87203   0.09526   0.25367   0.00000  Uiso   1.00
O150   O     0.80758   0.16425   0.17207   0.00000  Uiso   1.00
O151   O     0.90819   0.17373   0.18161   0.00000  Uiso   1.00
C152   C     0.67113   0.10989   0.18940   0.00000  Uiso   1.00
C153   C     0.71776   0.08207   0.16071   0.00000  Uiso   1.00
C154   C     0.71416   0.04729   0.11485   0.00000  Uiso   1.00
C155   C     0.99521   0.03466   0.09348   0.00000  Uiso   1.00
C156   C     0.94596   0.05475   0.11962   0.00000  Uiso   1.00
C157   C     0.95005   0.08905   0.16588   0.00000  Uiso   1.00
H158   H     0.76123   0.08379   0.16851   0.00000  Uiso   1.00
H159   H     0.75290   0.03002   0.09568   0.00000  Uiso   1.00
H160   H     0.99224   0.00828   0.05783   0.00000  Uiso   1.00
H161   H     0.90327   0.04286   0.10419   0.00000  Uiso   1.00
H162   H     0.90560   0.09347   0.17696   0.00000  Uiso   1.00
C163   C     0.18192   0.60013   0.25187   0.00000  Uiso   1.00
C164   C     0.14014   0.50391   0.48789   0.00000  Uiso   1.00
C165   C     0.15683   0.51788   0.43775   0.00000  Uiso   1.00
C166   C     0.18565   0.51606   0.02018   0.00000  Uiso   1.00
C167   C     0.24510   0.54553   0.00365   0.00000  Uiso   1.00
C168   C     0.25813   0.56413   0.45669   0.00000  Uiso   1.00
C169   C     0.21439   0.55138   0.42463   0.00000  Uiso   1.00
C170   C     0.17412   0.49936   0.06834   0.00000  Uiso   1.00
C171   C     0.27725   0.54141   0.08314   0.00000  Uiso   1.00
C172   C     0.11499   0.49852   0.40244   0.00000  Uiso   1.00
C173   C     0.19002   0.65642   0.25267   0.00000  Uiso   1.00
C174   C     0.13425   0.49942   0.34700   0.00000  Uiso   1.00
C175   C     0.14283   0.34370   0.24856   0.00000  Uiso   1.00
C176   C     0.15096   0.39997   0.24935   0.00000  Uiso   1.00
C177   C     0.19954   0.50466   0.15375   0.00000  Uiso   1.00
C178   C     0.29060   0.55715   0.03484   0.00000  Uiso   1.00
C179   C     0.21836   0.51360   0.10043   0.00000  Uiso   1.00
C180   C     0.05459   0.47325   0.41968   0.00000  Uiso   1.00
C181   C     0.03640   0.46449   0.47013   0.00000  Uiso   1.00
C182   C     0.07852   0.47871   0.00379   0.00000  Uiso   1.00
Cu183  Cu    0.10710   0.49439   0.24436   0.00000  Uiso   1.00
Cu184  Cu    0.22623   0.50561   0.25565   0.00000  Uiso   1.00
H185   H     0.31213   0.55273   0.10757   0.00000  Uiso   1.00
H186   H     0.09779   0.65247   0.24451   0.00000  Uiso   1.00
H187   H     0.00231   0.54057   0.29233   0.00000  Uiso   1.00
H188   H     0.30241   0.58875   0.44465   0.00000  Uiso   1.00
H189   H     0.00282   0.57934   0.02225   0.00000  Uiso   1.00
H190   H     0.13069   0.47553   0.08228   0.00000  Uiso   1.00
H191   H     0.02143   0.45897   0.39379   0.00000  Uiso   1.00
H192   H     0.06078   0.47042   0.04223   0.00000  Uiso   1.00
H193   H     0.32288   0.44530   0.48301   0.00000  Uiso   1.00
H194   H     0.22612   0.56942   0.39006   0.00000  Uiso   1.00
H195   H     0.23507   0.34766   0.25665   0.00000  Uiso   1.00
N196   N     0.31574   0.51407   0.26416   0.00000  Uiso   1.00
N197   N     0.01759   0.48593   0.23584   0.00000  Uiso   1.00
O198   O     0.12797   0.57141   0.24633   0.00000  Uiso   1.00
O199   O     0.22858   0.58089   0.25587   0.00000  Uiso   1.00
O200   O     0.09181   0.49293   0.31840   0.00000  Uiso   1.00
O201   O     0.19242   0.50241   0.32793   0.00000  Uiso   1.00
O202   O     0.10476   0.41911   0.24414   0.00000  Uiso   1.00
O203   O     0.20536   0.42859   0.25367   0.00000  Uiso   1.00
O204   O     0.14092   0.49759   0.17207   0.00000  Uiso   1.00
O205   O     0.24152   0.50707   0.18161   0.00000  Uiso   1.00
C206   C     0.00446   0.44322   0.18940   0.00000  Uiso   1.00
C207   C     0.05109   0.41540   0.16071   0.00000  Uiso   1.00
C208   C     0.04749   0.38062   0.11485   0.00000  Uiso   1.00
C209   C     0.32854   0.36799   0.09348   0.00000  Uiso   1.00
C210   C     0.27929   0.38809   0.11962   0.00000  Uiso   1.00
C211   C     0.28338   0.42238   0.16588   0.00000  Uiso   1.00
H212   H     0.09457   0.41712   0.16851   0.00000  Uiso   1.00
H213   H     0.08623   0.36336   0.09568   0.00000  Uiso   1.00
H214   H     0.32557   0.34162   0.05783   0.00000  Uiso   1.00
H215   H     0.23661   0.37619   0.10419   0.00000  Uiso   1.00
H216   H     0.23893   0.42680   0.17696   0.00000  Uiso   1.00
C217   C     0.51525   0.60013   0.25187   0.00000  Uiso   1.00
C218   C     0.47347   0.50391   0.48789   0.00000  Uiso   1.00
C219   C     0.49016   0.51788   0.43775   0.00000  Uiso   1.00
C220   C     0.51899   0.51606   0.02018   0.00000  Uiso   1.00
C221   C     0.57843   0.54553   0.00365   0.00000  Uiso   1.00
C222   C     0.59146   0.56413   0.45669   0.00000  Uiso   1.00
C223   C     0.54773   0.55138   0.42463   0.00000  Uiso   1.00
C224   C     0.50745   0.49936   0.06834   0.00000  Uiso   1.00
C225   C     0.61058   0.54141   0.08314   0.00000  Uiso   1.00
C226   C     0.44833   0.49852   0.40244   0.00000  Uiso   1.00
C227   C     0.52335   0.65642   0.25267   0.00000  Uiso   1.00
C228   C     0.46758   0.49942   0.34700   0.00000  Uiso   1.00
C229   C     0.47616   0.34370   0.24856   0.00000  Uiso   1.00
C230   C     0.48429   0.39997   0.24935   0.00000  Uiso   1.00
C231   C     0.53287   0.50466   0.15375   0.00000  Uiso   1.00
C232   C     0.62393   0.55715   0.03484   0.00000  Uiso   1.00
C233   C     0.55169   0.51360   0.10043   0.00000  Uiso   1.00
C234   C     0.38793   0.47325   0.41968   0.00000  Uiso   1.00
C235   C     0.36973   0.46449   0.47013   0.00000  Uiso   1.00
C236   C     0.41186   0.47871   0.00379   0.00000  Uiso   1.00
Cu237  Cu    0.44043   0.49439   0.24436   0.00000  Uiso   1.00
Cu238  Cu    0.55957   0.50561   0.25565   0.00000  Uiso   1.00
H239   H     0.64546   0.55273   0.10757   0.00000  Uiso   1.00
H240   H     0.43113   0.65247   0.24451   0.00000  Uiso   1.00
H241   H     0.33565   0.54057   0.29233   0.00000  Uiso   1.00
H242   H     0.63574   0.58875   0.44465   0.00000  Uiso   1.00
H243   H     0.33616   0.57934   0.02225   0.00000  Uiso   1.00
H244   H     0.46403   0.47553   0.08228   0.00000  Uiso   1.00
H245   H     0.35477   0.45897   0.39379   0.00000  Uiso   1.00
H246   H     0.39411   0.47042   0.04223   0.00000  Uiso   1.00
H247   H     0.65621   0.44530   0.48301   0.00000  Uiso   1.00
H248   H     0.55946   0.56942   0.39006   0.00000  Uiso   1.00
H249   H     0.56841   0.34766   0.25665   0.00000  Uiso   1.00
N250   N     0.64908   0.51407   0.26416   0.00000  Uiso   1.00
N251   N     0.35092   0.48593   0.23584   0.00000  Uiso   1.00
O252   O     0.46131   0.57141   0.24633   0.00000  Uiso   1.00
O253   O     0.56191   0.58089   0.25587   0.00000  Uiso   1.00
O254   O     0.42515   0.49293   0.31840   0.00000  Uiso   1.00
O255   O     0.52575   0.50241   0.32793   0.00000  Uiso   1.00
O256   O     0.43809   0.41911   0.24414   0.00000  Uiso   1.00
O257   O     0.53869   0.42859   0.25367   0.00000  Uiso   1.00
O258   O     0.47425   0.49759   0.17207   0.00000  Uiso   1.00
O259   O     0.57485   0.50707   0.18161   0.00000  Uiso   1.00
C260   C     0.33780   0.44322   0.18940   0.00000  Uiso   1.00
C261   C     0.38443   0.41540   0.16071   0.00000  Uiso   1.00
C262   C     0.38083   0.38062   0.11485   0.00000  Uiso   1.00
C263   C     0.66188   0.36799   0.09348   0.00000  Uiso   1.00
C264   C     0.61262   0.38809   0.11962   0.00000  Uiso   1.00
C265   C     0.61672   0.42238   0.16588   0.00000  Uiso   1.00
H266   H     0.42790   0.41712   0.16851   0.00000  Uiso   1.00
H267   H     0.41957   0.36336   0.09568   0.00000  Uiso   1.00
H268   H     0.65891   0.34162   0.05783   0.00000  Uiso   1.00
H269   H     0.56994   0.37619   0.10419   0.00000  Uiso   1.00
H270   H     0.57227   0.42680   0.17696   0.00000  Uiso   1.00
C271   C     0.84858   0.60013   0.25187   0.00000  Uiso   1.00
C272   C     0.80680   0.50391   0.48789   0.00000  Uiso   1.00
C273   C     0.82349   0.51788   0.43775   0.00000  Uiso   1.00
C274   C     0.85232   0.51606   0.02018   0.00000  Uiso   1.00
C275   C     0.91176   0.54553   0.00365   0.00000  Uiso   1.00
C276   C     0.92480   0.56413   0.45669   0.00000  Uiso   1.00
C277   C     0.88106   0.55138   0.42463   0.00000  Uiso   1.00
C278   C     0.84078   0.49936   0.06834   0.00000  Uiso   1.00
C279   C     0.94391   0.54141   0.08314   0.00000  Uiso   1.00
C280   C     0.78166   0.49852   0.40244   0.00000  Uiso   1.00
C281   C     0.85669   0.65642   0.25267   0.00000  Uiso   1.00
C282   C     0.80092   0.49942   0.34700   0.00000  Uiso   1.00
C283   C     0.80950   0.34370   0.24856   0.00000  Uiso   1.00
C284   C     0.81762   0.39997   0.24935   0.00000  Uiso   1.00
C285   C     0.86620   0.50466   0.15375   0.00000  Uiso   1.00
C286   C     0.95726   0.55715   0.03484   0.00000  Uiso   1.00
C287   C     0.88503   0.51360   0.10043   0.00000  Uiso   1.00
C288   C     0.72126   0.47325   0.41968   0.00000  Uiso   1.00
C289   C     0.70307   0.46449   0.47013   0.00000  Uiso   1.00
C290   C     0.74519   0.47871   0.00379   0.00000  Uiso   1.00
Cu291  Cu    0.77377   0.49439   0.24436   0.00000  Uiso   1.00
Cu292  Cu    0.89290   0.50561   0.25565   0.00000  Uiso   1.00
H293   H     0.97880   0.55273   0.10757   0.00000  Uiso   1.00
H294   H     0.76446   0.65247   0.24451   0.00000  Uiso   1.00
H295   H     0.66898   0.54057   0.29233   0.00000  Uiso   1.00
H296   H     0.96907   0.58875   0.44465   0.00000  Uiso   1.00
H297   H     0.66949   0.57934   0.02225   0.00000  Uiso   1.00
H298   H     0.79736   0.47553   0.08228   0.00000  Uiso   1.00
H299   H     0.68810   0.45897   0.39379   0.00000  Uiso   1.00
H300   H     0.72744   0.47042   0.04223   0.00000  Uiso   1.00
H301   H     0.98954   0.44530   0.48301   0.00000  Uiso   1.00
H302   H     0.89279   0.56942   0.39006   0.00000  Uiso   1.00
H303   H     0.90174   0.34766   0.25665   0.00000  Uiso   1.00
N304   N     0.98241   0.51407   0.26416   0.00000  Uiso   1.00
N305   N     0.68426   0.48593   0.23584   0.00000  Uiso   1.00
O306   O     0.79464   0.57141   0.24633   0.00000  Uiso   1.00
O307   O     0.89524   0.58089   0.25587   0.00000  Uiso   1.00
O308   O     0.75848   0.49293   0.31840   0.00000  Uiso   1.00
O309   O     0.85908   0.50241   0.32793   0.00000  Uiso   1.00
O310   O     0.77142   0.41911   0.24414   0.00000  Uiso   1.00
O311   O     0.87203   0.42859   0.25367   0.00000  Uiso   1.00
O312   O     0.80758   0.49759   0.17207   0.00000  Uiso   1.00
O313   O     0.90819   0.50707   0.18161   0.00000  Uiso   1.00
C314   C     0.67113   0.44322   0.18940   0.00000  Uiso   1.00
C315   C     0.71776   0.41540   0.16071   0.00000  Uiso   1.00
C316   C     0.71416   0.38062   0.11485   0.00000  Uiso   1.00
C317   C     0.99521   0.36799   0.09348   0.00000  Uiso   1.00
C318   C     0.94596   0.38809   0.11962   0.00000  Uiso   1.00
C319   C     0.95005   0.42238   0.16588   0.00000  Uiso   1.00
H320   H     0.76123   0.41712   0.16851   0.00000  Uiso   1.00
H321   H     0.75290   0.36336   0.09568   0.00000  Uiso   1.00
H322   H     0.99224   0.34162   0.05783   0.00000  Uiso   1.00
H323   H     0.90327   0.37619   0.10419   0.00000  Uiso   1.00
H324   H     0.90560   0.42680   0.17696   0.00000  Uiso   1.00
C325   C     0.18192   0.93346   0.25187   0.00000  Uiso   1.00
C326   C     0.14014   0.83725   0.48789   0.00000  Uiso   1.00
C327   C     0.15683   0.85122   0.43775   0.00000  Uiso   1.00
C328   C     0.18565   0.84939   0.02018   0.00000  Uiso   1.00
C329   C     0.24510   0.87887   0.00365   0.00000  Uiso   1.00
C330   C     0.25813   0.89747   0.45669   0.00000  Uiso   1.00
C331   C     0.21439   0.88471   0.42463   0.00000  Uiso   1.00
C332   C     0.17412   0.83269   0.06834   0.00000  Uiso   1.00
C333   C     0.27725   0.87475   0.08314   0.00000  Uiso   1.00
C334   C     0.11499   0.83185   0.40244   0.00000  Uiso   1.00
C335   C     0.19002   0.98975   0.25267   0.00000  Uiso   1.00
C336   C     0.13425   0.83276   0.34700   0.00000  Uiso   1.00
C337   C     0.14283   0.67703   0.24856   0.00000  Uiso   1.00
C338   C     0.15096   0.73331   0.24935   0.00000  Uiso   1.00
C339   C     0.19954   0.83799   0.15375   0.00000  Uiso   1.00
C340   C     0.29060   0.89048   0.03484   0.00000  Uiso   1.00
C341   C     0.21836   0.84694   0.10043   0.00000  Uiso   1.00
C342   C     0.05459   0.80658   0.41968   0.00000  Uiso   1.00
C343   C     0.03640   0.79782   0.47013   0.00000  Uiso   1.00
C344   C     0.07852   0.81205   0.00379   0.00000  Uiso   1.00
Cu345  Cu    0.10710   0.82772   0.24436   0.00000  Uiso   1.00
Cu346  Cu    0.22623   0.83895   0.25565   0.00000  Uiso   1.00
H347   H     0.31213   0.88607   0.10757   0.00000  Uiso   1.00
H348   H     0.09779   0.98581   0.24451   0.00000  Uiso   1.00
H349   H     0.00231   0.87390   0.29233   0.00000  Uiso   1.00
H350   H     0.30241   0.92209   0.44465   0.00000  Uiso   1.00
H351   H     0.00282   0.91267   0.02225   0.00000  Uiso   1.00
H352   H     0.13069   0.80886   0.08228   0.00000  Uiso   1.00
H353   H     0.02143   0.79230   0.39379   0.00000  Uiso   1.00
H354   H     0.06078   0.80375   0.04223   0.00000  Uiso   1.00
H355   H     0.32288   0.77863   0.48301   0.00000  Uiso   1.00
H356   H     0.22612   0.90275   0.39006   0.00000  Uiso   1.00
H357   H     0.23507   0.68099   0.25665   0.00000  Uiso   1.00
N358   N     0.31574   0.84741   0.26416   0.00000  Uiso   1.00
N359   N     0.01759   0.81926   0.23584   0.00000  Uiso   1.00
O360   O     0.12797   0.90474   0.24633   0.00000  Uiso   1.00
O361   O     0.22858   0.91422   0.25587   0.00000  Uiso   1.00
O362   O     0.09181   0.82627   0.31840   0.00000  Uiso   1.00
O363   O     0.19242   0.83575   0.32793   0.00000  Uiso   1.00
O364   O     0.10476   0.75245   0.24414   0.00000  Uiso   1.00
O365   O     0.20536   0.76193   0.25367   0.00000  Uiso   1.00
O366   O     0.14092   0.83092   0.17207   0.00000  Uiso   1.00
O367   O     0.24152   0.84040   0.18161   0.00000  Uiso   1.00
C368   C     0.00446   0.77655   0.18940   0.00000  Uiso   1.00
C369   C     0.05109   0.74873   0.16071   0.00000  Uiso   1.00
C370   C     0.04749   0.71395   0.11485   0.00000  Uiso   1.00
C371   C     0.32854   0.70132   0.09348   0.00000  Uiso   1.00
C372   C     0.27929   0.72142   0.11962   0.00000  Uiso   1.00
C373   C     0.28338   0.75571   0.16588   0.00000  Uiso   1.00
H374   H     0.09457   0.75046   0.16851   0.00000  Uiso   1.00
H375   H     0.08623   0.69669   0.09568   0.00000  Uiso   1.00
H376   H     0.32557   0.67495   0.05783   0.00000  Uiso   1.00
H377   H     0.23661   0.70952   0.10419   0.00000  Uiso   1.00
H378   H     0.23893   0.76014   0.17696   0.00000  Uiso   1.00
C379   C     0.51525   0.93346   0.25187   0.00000  Uiso   1.00
C380   C     0.47347   0.83725   0.48789   0.00000  Uiso   1.00
C381   C     0.49016   0.85122   0.43775   0.00000  Uiso   1.00
C382   C     0.51899   0.84939   0.02018   0.00000  Uiso   1.00
C383   C     0.57843   0.87887   0.00365   0.00000  Uiso   1.00
C384   C     0.59146   0.89747   0.45669   0.00000  Uiso   1.00
C385   C     0.54773   0.88471   0.42463   0.00000  Uiso   1.00
C386   C     0.50745   0.83269   0.06834   0.00000  Uiso   1.00
C387   C     0.61058   0.87475   0.08314   0.00000  Uiso   1.00
C388   C     0.44833   0.83185   0.40244   0.00000  Uiso   1.00
C389   C     0.52335   0.98975   0.25267   0.00000  Uiso   1.00
C390   C     0.46758   0.83276   0.34700   0.00000  Uiso   1.00
C391   C     0.47616   0.67703   0.24856   0.00000  Uiso   1.00
C392   C     0.48429   0.73331   0.24935   0.00000  Uiso   1.00
C393   C     0.53287   0.83799   0.15375   0.00000  Uiso   1.00
C394   C     0.62393   0.89048   0.03484   0.00000  Uiso   1.00
C395   C     0.55169   0.84694   0.10043   0.00000  Uiso   1.00
C396   C     0.38793   0.80658   0.41968   0.00000  Uiso   1.00
C397   C     0.36973   0.79782   0.47013   0.00000  Uiso   1.00
C398   C     0.41186   0.81205   0.00379   0.00000  Uiso   1.00
Cu399  Cu    0.44043   0.82772   0.24436   0.00000  Uiso   1.00
Cu400  Cu    0.55957   0.83895   0.25565   0.00000  Uiso   1.00
H401   H     0.64546   0.88607   0.10757   0.00000  Uiso   1.00
H402   H     0.43113   0.98581   0.24451   0.00000  Uiso   1.00
H403   H     0.33565   0.87390   0.29233   0.00000  Uiso   1.00
H404   H     0.63574   0.92209   0.44465   0.00000  Uiso   1.00
H405   H     0.33616   0.91267   0.02225   0.00000  Uiso   1.00
H406   H     0.46403   0.80886   0.08228   0.00000  Uiso   1.00
H407   H     0.35477   0.79230   0.39379   0.00000  Uiso   1.00
H408   H     0.39411   0.80375   0.04223   0.00000  Uiso   1.00
H409   H     0.65621   0.77863   0.48301   0.00000  Uiso   1.00
H410   H     0.55946   0.90275   0.39006   0.00000  Uiso   1.00
H411   H     0.56841   0.68099   0.25665   0.00000  Uiso   1.00
N412   N     0.64908   0.84741   0.26416   0.00000  Uiso   1.00
N413   N     0.35092   0.81926   0.23584   0.00000  Uiso   1.00
O414   O     0.46131   0.90474   0.24633   0.00000  Uiso   1.00
O415   O     0.56191   0.91422   0.25587   0.00000  Uiso   1.00
O416   O     0.42515   0.82627   0.31840   0.00000  Uiso   1.00
O417   O     0.52575   0.83575   0.32793   0.00000  Uiso   1.00
O418   O     0.43809   0.75245   0.24414   0.00000  Uiso   1.00
O419   O     0.53869   0.76193   0.25367   0.00000  Uiso   1.00
O420   O     0.47425   0.83092   0.17207   0.00000  Uiso   1.00
O421   O     0.57485   0.84040   0.18161   0.00000  Uiso   1.00
C422   C     0.33780   0.77655   0.18940   0.00000  Uiso   1.00
C423   C     0.38443   0.74873   0.16071   0.00000  Uiso   1.00
C424   C     0.38083   0.71395   0.11485   0.00000  Uiso   1.00
C425   C     0.66188   0.70132   0.09348   0.00000  Uiso   1.00
C426   C     0.61262   0.72142   0.11962   0.00000  Uiso   1.00
C427   C     0.61672   0.75571   0.16588   0.00000  Uiso   1.00
H428   H     0.42790   0.75046   0.16851   0.00000  Uiso   1.00
H429   H     0.41957   0.69669   0.09568   0.00000  Uiso   1.00
H430   H     0.65891   0.67495   0.05783   0.00000  Uiso   1.00
H431   H     0.56994   0.70952   0.10419   0.00000  Uiso   1.00
H432   H     0.57227   0.76014   0.17696   0.00000  Uiso   1.00
C433   C     0.84858   0.93346   0.25187   0.00000  Uiso   1.00
C434   C     0.80680   0.83725   0.48789   0.00000  Uiso   1.00
C435   C     0.82349   0.85122   0.43775   0.00000  Uiso   1.00
C436   C     0.85232   0.84939   0.02018   0.00000  Uiso   1.00
C437   C     0.91176   0.87887   0.00365   0.00000  Uiso   1.00
C438   C     0.92480   0.89747   0.45669   0.00000  Uiso   1.00
C439   C     0.88106   0.88471   0.42463   0.00000  Uiso   1.00
C440   C     0.84078   0.83269   0.06834   0.00000  Uiso   1.00
C441   C     0.94391   0.87475   0.08314   0.00000  Uiso   1.00
C442   C     0.78166   0.83185   0.40244   0.00000  Uiso   1.00
C443   C     0.85669   0.98975   0.25267   0.00000  Uiso   1.00
C444   C     0.80092   0.83276   0.34700   0.00000  Uiso   1.00
C445   C     0.80950   0.67703   0.24856   0.00000  Uiso   1.00
C446   C     0.81762   0.73331   0.24935   0.00000  Uiso   1.00
C447   C     0.86620   0.83799   0.15375   0.00000  Uiso   1.00
C448   C     0.95726   0.89048   0.03484   0.00000  Uiso   1.00
C449   C     0.88503   0.84694   0.10043   0.00000  Uiso   1.00
C450   C     0.72126   0.80658   0.41968   0.00000  Uiso   1.00
C451   C     0.70307   0.79782   0.47013   0.00000  Uiso   1.00
C452   C     0.74519   0.81205   0.00379   0.00000  Uiso   1.00
Cu453  Cu    0.77377   0.82772   0.24436   0.00000  Uiso   1.00
Cu454  Cu    0.89290   0.83895   0.25565   0.00000  Uiso   1.00
H455   H     0.97880   0.88607   0.10757   0.00000  Uiso   1.00
H456   H     0.76446   0.98581   0.24451   0.00000  Uiso   1.00
H457   H     0.66898   0.87390   0.29233   0.00000  Uiso   1.00
H458   H     0.96907   0.92209   0.44465   0.00000  Uiso   1.00
H459   H     0.66949   0.91267   0.02225   0.00000  Uiso   1.00
H460   H     0.79736   0.80886   0.08228   0.00000  Uiso   1.00
H461   H     0.68810   0.79230   0.39379   0.00000  Uiso   1.00
H462   H     0.72744   0.80375   0.04223   0.00000  Uiso   1.00
H463   H     0.98954   0.77863   0.48301   0.00000  Uiso   1.00
H464   H     0.89279   0.90275   0.39006   0.00000  Uiso   1.00
H465   H     0.90174   0.68099   0.25665   0.00000  Uiso   1.00
N466   N     0.98241   0.84741   0.26416   0.00000  Uiso   1.00
N467   N     0.68426   0.81926   0.23584   0.00000  Uiso   1.00
O468   O     0.79464   0.90474   0.24633   0.00000  Uiso   1.00
O469   O     0.89524   0.91422   0.25587   0.00000  Uiso   1.00
O470   O     0.75848   0.82627   0.31840   0.00000  Uiso   1.00
O471   O     0.85908   0.83575   0.32793   0.00000  Uiso   1.00
O472   O     0.77142   0.75245   0.24414   0.00000  Uiso   1.00
O473   O     0.87203   0.76193   0.25367   0.00000  Uiso   1.00
O474   O     0.80758   0.83092   0.17207   0.00000  Uiso   1.00
O475   O     0.90819   0.84040   0.18161   0.00000  Uiso   1.00
C476   C     0.67113   0.77655   0.18940   0.00000  Uiso   1.00
C477   C     0.71776   0.74873   0.16071   0.00000  Uiso   1.00
C478   C     0.71416   0.71395   0.11485   0.00000  Uiso   1.00
C479   C     0.99521   0.70132   0.09348   0.00000  Uiso   1.00
C480   C     0.94596   0.72142   0.11962   0.00000  Uiso   1.00
C481   C     0.95005   0.75571   0.16588   0.00000  Uiso   1.00
H482   H     0.76123   0.75046   0.16851   0.00000  Uiso   1.00
H483   H     0.75290   0.69669   0.09568   0.00000  Uiso   1.00
H484   H     0.99224   0.67495   0.05783   0.00000  Uiso   1.00
H485   H     0.90327   0.70952   0.10419   0.00000  Uiso   1.00
H486   H     0.90560   0.76014   0.17696   0.00000  Uiso   1.00
C487   C     0.18192   0.26680   0.75187   0.00000  Uiso   1.00
C488   C     0.14014   0.17058   0.98789   0.00000  Uiso   1.00
C489   C     0.15683   0.18455   0.93775   0.00000  Uiso   1.00
C490   C     0.18565   0.18272   0.52018   0.00000  Uiso   1.00
C491   C     0.24510   0.21220   0.50365   0.00000  Uiso   1.00
C492   C     0.25813   0.23080   0.95669   0.00000  Uiso   1.00
C493   C     0.21439   0.21805   0.92463   0.00000  Uiso   1.00
C494   C     0.17412   0.16603   0.56834   0.00000  Uiso   1.00
C495   C     0.27725   0.20808   0.58314   0.00000  Uiso   1.00
C496   C     0.11499   0.16519   0.90244   0.00000  Uiso   1.00
C497   C     0.19002   0.32309   0.75267   0.00000  Uiso   1.00
C498   C     0.13425   0.16609   0.84700   0.00000  Uiso   1.00
C499   C     0.14283   0.01037   0.74856   0.00000  Uiso   1.00
C500   C     0.15096   0.06664   0.74935   0.00000  Uiso   1.00
C501   C     0.19954   0.17133   0.65375   0.00000  Uiso   1.00
C502   C     0.29060   0.22382   0.53484   0.00000  Uiso   1.00
C503   C     0.21836   0.18027   0.60043   0.00000  Uiso   1.00
C504   C     0.05459   0.13991   0.91968   0.00000  Uiso   1.00
C505   C     0.03640   0.13115   0.97013   0.00000  Uiso   1.00
C506   C     0.07852   0.14538   0.50379   0.00000  Uiso   1.00
Cu507  Cu    0.10710   0.16105   0.74436   0.00000  Uiso   1.00
Cu508  Cu    0.22623   0.17228   0.75565   0.00000  Uiso   1.00
H509   H     0.31213   0.21940   0.60757   0.00000  Uiso   1.00
H510   H     0.09779   0.31914   0.74451   0.00000  Uiso   1.00
H511   H     0.00231   0.20723   0.79233   0.00000  Uiso   1.00
H512   H     0.30241   0.25542   0.94465   0.00000  Uiso   1.00
H513   H     0.00282   0.24600   0.52225   0.00000  Uiso   1.00
H514   H     0.13069   0.14220   0.58228   0.00000  Uiso   1.00
H515   H     0.02143   0.12563   0.89379   0.00000  Uiso   1.00
H516   H     0.06078   0.13709   0.54223   0.00000  Uiso   1.00
H517   H     0.32288   0.11197   0.98301   0.00000  Uiso   1.00
H518   H     0.22612   0.23608   0.89006   0.00000  Uiso   1.00
H519   H     0.23507   0.01433   0.75665   0.00000  Uiso   1.00
N520   N     0.31574   0.18074   0.76416   0.00000  Uiso   1.00
N521   N     0.01759   0.15259   0.73584   0.00000  Uiso   1.00
O522   O     0.12797   0.23807   0.74633   0.00000  Uiso   1.00
O523   O     0.22858   0.24755   0.75587   0.00000  Uiso   1.00
O524   O     0.09181   0.15960   0.81840   0.00000  Uiso   1.00
O525   O     0.19242   0.16908   0.82793   0.00000  Uiso   1.00
O526   O     0.10476   0.08578   0.74414   0.00000  Uiso   1.00
O527   O     0.20536   0.09526   0.75367   0.00000  Uiso   1.00
O528   O     0.14092   0.16425   0.67207   0.00000  Uiso   1.00
O529   O     0.24152   0.17373   0.68161   0.00000  Uiso   1.00
C530   C     0.00446   0.10989   0.68940   0.00000  Uiso   1.00
C531   C     0.05109   0.08207   0.66071   0.00000  Uiso   1.00
C532   C     0.04749   0.04729   0.61485   0.00000  Uiso   1.00
C533   C     0.32854   0.03466   0.59348   0.00000  Uiso   1.00
C534   C     0.27929   0.05475   0.61962   0.00000  Uiso   1.00
C535   C     0.28338   0.08905   0.66588   0.00000  Uiso   1.00
H536   H     0.09457   0.08379   0.66851   0.00000  Uiso   1.00
H537   H     0.08623   0.03002   0.59568   0.00000  Uiso   1.00
H538   H     0.32557   0.00828   0.55783   0.00000  Uiso   1.00
H539   H     0.23661   0.04286   0.60419   0.00000  Uiso   1.00
H540   H     0.23893   0.09347   0.67696   0.00000  Uiso   1.00
C541   C     0.51525   0.26680   0.75187   0.00000  Uiso   1.00
C542   C     0.47347   0.17058   0.98789   0.00000  Uiso   1.00
C543   C     0.49016   0.18455   0.93775   0.00000  Uiso   1.00
C544   C     0.51899   0.18272   0.52018   0.00000  Uiso   1.00
C545   C     0.57843   0.21220   0.50365   0.00000  Uiso   1.00
C546   C     0.59146   0.23080   0.95669   0.00000  Uiso   1.00
C547   C     0.54773   0.21805   0.92463   0.00000  Uiso   1.00
C548   C     0.50745   0.16603   0.56834   0.00000  Uiso   1.00
C549   C     0.61058   0.20808   0.58314   0.00000  Uiso   1.00
C550   C     0.44833   0.16519   0.90244   0.00000  Uiso   1.00
C551   C     0.52335   0.32309   0.75267   0.00000  Uiso   1.00
C552   C     0.46758   0.16609   0.84700   0.00000  Uiso   1.00
C553   C     0.47616   0.01037   0.74856   0.00000  Uiso   1.00
C554   C     0.48429   0.06664   0.74935   0.00000  Uiso   1.00
C555   C     0.53287   0.17133   0.65375   0.00000  Uiso   1.00
C556   C     0.62393   0.22382   0.53484   0.00000  Uiso   1.00
C557   C     0.55169   0.18027   0.60043   0.00000  Uiso   1.00
C558   C     0.38793   0.13991   0.91968   0.00000  Uiso   1.00
C559   C     0.36973   0.13115   0.97013   0.00000  Uiso   1.00
C560   C     0.41186   0.14538   0.50379   0.00000  Uiso   1.00
Cu561  Cu    0.44043   0.16105   0.74436   0.00000  Uiso   1.00
Cu562  Cu    0.55957   0.17228   0.75565   0.00000  Uiso   1.00
H563   H     0.64546   0.21940   0.60757   0.00000  Uiso   1.00
H564   H     0.43113   0.31914   0.74451   0.00000  Uiso   1.00
H565   H     0.33565   0.20723   0.79233   0.00000  Uiso   1.00
H566   H     0.63574   0.25542   0.94465   0.00000  Uiso   1.00
H567   H     0.33616   0.24600   0.52225   0.00000  Uiso   1.00
H568   H     0.46403   0.14220   0.58228   0.00000  Uiso   1.00
H569   H     0.35477   0.12563   0.89379   0.00000  Uiso   1.00
H570   H     0.39411   0.13709   0.54223   0.00000  Uiso   1.00
H571   H     0.65621   0.11197   0.98301   0.00000  Uiso   1.00
H572   H     0.55946   0.23608   0.89006   0.00000  Uiso   1.00
H573   H     0.56841   0.01433   0.75665   0.00000  Uiso   1.00
N574   N     0.64908   0.18074   0.76416   0.00000  Uiso   1.00
N575   N     0.35092   0.15259   0.73584   0.00000  Uiso   1.00
O576   O     0.46131   0.23807   0.74633   0.00000  Uiso   1.00
O577   O     0.56191   0.24755   0.75587   0.00000  Uiso   1.00
O578   O     0.42515   0.15960   0.81840   0.00000  Uiso   1.00
O579   O     0.52575   0.16908   0.82793   0.00000  Uiso   1.00
O580   O     0.43809   0.08578   0.74414   0.00000  Uiso   1.00
O581   O     0.53869   0.09526   0.75367   0.00000  Uiso   1.00
O582   O     0.47425   0.16425   0.67207   0.00000  Uiso   1.00
O583   O     0.57485   0.17373   0.68161   0.00000  Uiso   1.00
C584   C     0.33780   0.10989   0.68940   0.00000  Uiso   1.00
C585   C     0.38443   0.08207   0.66071   0.00000  Uiso   1.00
C586   C     0.38083   0.04729   0.61485   0.00000  Uiso   1.00
C587   C     0.66188   0.03466   0.59348   0.00000  Uiso   1.00
C588   C     0.61262   0.05475   0.61962   0.00000  Uiso   1.00
C589   C     0.61672   0.08905   0.66588   0.00000  Uiso   1.00
H590   H     0.42790   0.08379   0.66851   0.00000  Uiso   1.00
H591   H     0.41957   0.03002   0.59568   0.00000  Uiso   1.00
H592   H     0.65891   0.00828   0.55783   0.00000  Uiso   1.00
H593   H     0.56994   0.04286   0.60419   0.00000  Uiso   1.00
H594   H     0.57227   0.09347   0.67696   0.00000  Uiso   1.00
C595   C     0.84858   0.26680   0.75187   0.00000  Uiso   1.00
C596   C     0.80680   0.17058   0.98789   0.00000  Uiso   1.00
C597   C     0.82349   0.18455   0.93775   0.00000  Uiso   1.00
C598   C     0.85232   0.18272   0.52018   0.00000  Uiso   1.00
C599   C     0.91176   0.21220   0.50365   0.00000  Uiso   1.00
C600   C     0.92480   0.23080   0.95669   0.00000  Uiso   1.00
C601   C     0.88106   0.21805   0.92463   0.00000  Uiso   1.00
C602   C     0.84078   0.16603   0.56834   0.00000  Uiso   1.00
C603   C     0.94391   0.20808   0.58314   0.00000  Uiso   1.00
C604   C     0.78166   0.16519   0.90244   0.00000  Uiso   1.00
C605   C     0.85669   0.32309   0.75267   0.00000  Uiso   1.00
C606   C     0.80092   0.16609   0.84700   0.00000  Uiso   1.00
C607   C     0.80950   0.01037   0.74856   0.00000  Uiso   1.00
C608   C     0.81762   0.06664   0.74935   0.00000  Uiso   1.00
C609   C     0.86620   0.17133   0.65375   0.00000  Uiso   1.00
C610   C     0.95726   0.22382   0.53484   0.00000  Uiso   1.00
C611   C     0.88503   0.18027   0.60043   0.00000  Uiso   1.00
C612   C     0.72126   0.13991   0.91968   0.00000  Uiso   1.00
C613   C     0.70307   0.13115   0.97013   0.00000  Uiso   1.00
C614   C     0.74519   0.14538   0.50379   0.00000  Uiso   1.00
Cu615  Cu    0.77377   0.16105   0.74436   0.00000  Uiso   1.00
Cu616  Cu    0.89290   0.17228   0.75565   0.00000  Uiso   1.00
H617   H     0.97880   0.21940   0.60757   0.00000  Uiso   1.00
H618   H     0.76446   0.31914   0.74451   0.00000  Uiso   1.00
H619   H     0.66898   0.20723   0.79233   0.00000  Uiso   1.00
H620   H     0.96907   0.25542   0.94465   0.00000  Uiso   1.00
H621   H     0.66949   0.24600   0.52225   0.00000  Uiso   1.00
H622   H     0.79736   0.14220   0.58228   0.00000  Uiso   1.00
H623   H     0.68810   0.12563   0.89379   0.00000  Uiso   1.00
H624   H     0.72744   0.13709   0.54223   0.00000  Uiso   1.00
H625   H     0.98954   0.11197   0.98301   0.00000  Uiso   1.00
H626   H     0.89279   0.23608   0.89006   0.00000  Uiso   1.00
H627   H     0.90174   0.01433   0.75665   0.00000  Uiso   1.00
N628   N     0.98241   0.18074   0.76416   0.00000  Uiso   1.00
N629   N     0.68426   0.15259   0.73584   0.00000  Uiso   1.00
O630   O     0.79464   0.23807   0.74633   0.00000  Uiso   1.00
O631   O     0.89524   0.24755   0.75587   0.00000  Uiso   1.00
O632   O     0.75848   0.15960   0.81840   0.00000  Uiso   1.00
O633   O     0.85908   0.16908   0.82793   0.00000  Uiso   1.00
O634   O     0.77142   0.08578   0.74414   0.00000  Uiso   1.00
O635   O     0.87203   0.09526   0.75367   0.00000  Uiso   1.00
O636   O     0.80758   0.16425   0.67207   0.00000  Uiso   1.00
O637   O     0.90819   0.17373   0.68161   0.00000  Uiso   1.00
C638   C     0.67113   0.10989   0.68940   0.00000  Uiso   1.00
C639   C     0.71776   0.08207   0.66071   0.00000  Uiso   1.00
C640   C     0.71416   0.04729   0.61485   0.00000  Uiso   1.00
C641   C     0.99521   0.03466   0.59348   0.00000  Uiso   1.00
C642   C     0.94596   0.05475   0.61962   0.00000  Uiso   1.00
C643   C     0.95005   0.08905   0.66588   0.00000  Uiso   1.00
H644   H     0.76123   0.08379   0.66851   0.00000  Uiso   1.00
H645   H     0.75290   0.03002   0.59568   0.00000  Uiso   1.00
H646   H     0.99224   0.00828   0.55783   0.00000  Uiso   1.00
H647   H     0.90327   0.04286   0.60419   0.00000  Uiso   1.00
H648   H     0.90560   0.09347   0.67696   0.00000  Uiso   1.00
C649   C     0.18192   0.60013   0.75187   0.00000  Uiso   1.00
C650   C     0.14014   0.50391   0.98789   0.00000  Uiso   1.00
C651   C     0.15683   0.51788   0.93775   0.00000  Uiso   1.00
C652   C     0.18565   0.51606   0.52018   0.00000  Uiso   1.00
C653   C     0.24510   0.54553   0.50365   0.00000  Uiso   1.00
C654   C     0.25813   0.56413   0.95669   0.00000  Uiso   1.00
C655   C     0.21439   0.55138   0.92463   0.00000  Uiso   1.00
C656   C     0.17412   0.49936   0.56834   0.00000  Uiso   1.00
C657   C     0.27725   0.54141   0.58314   0.00000  Uiso   1.00
C658   C     0.11499   0.49852   0.90244   0.00000  Uiso   1.00
C659   C     0.19002   0.65642   0.75267   0.00000  Uiso   1.00
C660   C     0.13425   0.49942   0.84700   0.00000  Uiso   1.00
C661   C     0.14283   0.34370   0.74856   0.00000  Uiso   1.00
C662   C     0.15096   0.39997   0.74935   0.00000  Uiso   1.00
C663   C     0.19954   0.50466   0.65375   0.00000  Uiso   1.00
C664   C     0.29060   0.55715   0.53484   0.00000  Uiso   1.00
C665   C     0.21836   0.51360   0.60043   0.00000  Uiso   1.00
C666   C     0.05459   0.47325   0.91968   0.00000  Uiso   1.00
C667   C     0.03640   0.46449   0.97013   0.00000  Uiso   1.00
C668   C     0.07852   0.47871   0.50379   0.00000  Uiso   1.00
Cu669  Cu    0.10710   0.49439   0.74436   0.00000  Uiso   1.00
Cu670  Cu    0.22623   0.50561   0.75565   0.00000  Uiso   1.00
H671   H     0.31213   0.55273   0.60757   0.00000  Uiso   1.00
H672   H     0.09779   0.65247   0.74451   0.00000  Uiso   1.00
H673   H     0.00231   0.54057   0.79233   0.00000  Uiso   1.00
H674   H     0.30241   0.58875   0.94465   0.00000  Uiso   1.00
H675   H     0.00282   0.57934   0.52225   0.00000  Uiso   1.00
H676   H     0.13069   0.47553   0.58228   0.00000  Uiso   1.00
H677   H     0.02143   0.45897   0.89379   0.00000  Uiso   1.00
H678   H     0.06078   0.47042   0.54223   0.00000  Uiso   1.00
H679   H     0.32288   0.44530   0.98301   0.00000  Uiso   1.00
H680   H     0.22612   0.56942   0.89006   0.00000  Uiso   1.00
H681   H     0.23507   0.34766   0.75665   0.00000  Uiso   1.00
N682   N     0.31574   0.51407   0.76416   0.00000  Uiso   1.00
N683   N     0.01759   0.48593   0.73584   0.00000  Uiso   1.00
O684   O     0.12797   0.57141   0.74633   0.00000  Uiso   1.00
O685   O     0.22858   0.58089   0.75587   0.00000  Uiso   1.00
O686   O     0.09181   0.49293   0.81840   0.00000  Uiso   1.00
O687   O     0.19242   0.50241   0.82793   0.00000  Uiso   1.00
O688   O     0.10476   0.41911   0.74414   0.00000  Uiso   1.00
O689   O     0.20536   0.42859   0.75367   0.00000  Uiso   1.00
O690   O     0.14092   0.49759   0.67207   0.00000  Uiso   1.00
O691   O     0.24152   0.50707   0.68161   0.00000  Uiso   1.00
C692   C     0.00446   0.44322   0.68940   0.00000  Uiso   1.00
C693   C     0.05109   0.41540   0.66071   0.00000  Uiso   1.00
C694   C     0.04749   0.38062   0.61485   0.00000  Uiso   1.00
C695   C     0.32854   0.36799   0.59348   0.00000  Uiso   1.00
C696   C     0.27929   0.38809   0.61962   0.00000  Uiso   1.00
C697   C     0.28338   0.42238   0.66588   0.00000  Uiso   1.00
H698   H     0.09457   0.41712   0.66851   0.00000  Uiso   1.00
H699   H     0.08623   0.36336   0.59568   0.00000  Uiso   1.00
H700   H     0.32557   0.34162   0.55783   0.00000  Uiso   1.00
H701   H     0.23661   0.37619   0.60419   0.00000  Uiso   1.00
H702   H     0.23893   0.42680   0.67696   0.00000  Uiso   1.00
C703   C     0.51525   0.60013   0.75187   0.00000  Uiso   1.00
C704   C     0.47347   0.50391   0.98789   0.00000  Uiso   1.00
C705   C     0.49016   0.51788   0.93775   0.00000  Uiso   1.00
C706   C     0.51899   0.51606   0.52018   0.00000  Uiso   1.00
C707   C     0.57843   0.54553   0.50365   0.00000  Uiso   1.00
C708   C     0.59146   0.56413   0.95669   0.00000  Uiso   1.00
C709   C     0.54773   0.55138   0.92463   0.00000  Uiso   1.00
C710   C     0.50745   0.49936   0.56834   0.00000  Uiso   1.00
C711   C     0.61058   0.54141   0.58314   0.00000  Uiso   1.00
C712   C     0.44833   0.49852   0.90244   0.00000  Uiso   1.00
C713   C     0.52335   0.65642   0.75267   0.00000  Uiso   1.00
C714   C     0.46758   0.49942   0.84700   0.00000  Uiso   1.00
C715   C     0.47616   0.34370   0.74856   0.00000  Uiso   1.00
C716   C     0.48429   0.39997   0.74935   0.00000  Uiso   1.00
C717   C     0.53287   0.50466   0.65375   0.00000  Uiso   1.00
C718   C     0.62393   0.55715   0.53484   0.00000  Uiso   1.00
C719   C     0.55169   0.51360   0.60043   0.00000  Uiso   1.00
C720   C     0.38793   0.47325   0.91968   0.00000  Uiso   1.00
C721   C     0.36973   0.46449   0.97013   0.00000  Uiso   1.00
C722   C     0.41186   0.47871   0.50379   0.00000  Uiso   1.00
Cu723  Cu    0.44043   0.49439   0.74436   0.00000  Uiso   1.00
Cu724  Cu    0.55957   0.50561   0.75565   0.00000  Uiso   1.00
H725   H     0.64546   0.55273   0.60757   0.00000  Uiso   1.00
H726   H     0.43113   0.65247   0.74451   0.00000  Uiso   1.00
H727   H     0.33565   0.54057   0.79233   0.00000  Uiso   1.00
H728   H     0.63574   0.58875   0.94465   0.00000  Uiso   1.00
H729   H     0.33616   0.57934   0.52225   0.00000  Uiso   1.00
H730   H     0.46403   0.47553   0.58228   0.00000  Uiso   1.00
H731   H     0.35477   0.45897   0.89379   0.00000  Uiso   1.00
H732   H     0.39411   0.47042   0.54223   0.00000  Uiso   1.00
H733   H     0.65621   0.44530   0.98301   0.00000  Uiso   1.00
H734   H     0.55946   0.56942   0.89006   0.00000  Uiso   1.00
H735   H     0.56841   0.34766   0.75665   0.00000  Uiso   1.00
N736   N     0.64908   0.51407   0.76416   0.00000  Uiso   1.00
N737   N     0.35092   0.48593   0.73584   0.00000  Uiso   1.00
O738   O     0.46131   0.57141   0.74633   0.00000  Uiso   1.00
O739   O     0.56191   0.58089   0.75587   0.00000  Uiso   1.00
O740   O     0.42515   0.49293   0.81840   0.00000  Uiso   1.00
O741   O     0.52575   0.50241   0.82793   0.00000  Uiso   1.00
O742   O     0.43809   0.41911   0.74414   0.00000  Uiso   1.00
O743   O     0.53869   0.42859   0.75367   0.00000  Uiso   1.00
O744   O     0.47425   0.49759   0.67207   0.00000  Uiso   1.00
O745   O     0.57485   0.50707   0.68161   0.00000  Uiso   1.00
C746   C     0.33780   0.44322   0.68940   0.00000  Uiso   1.00
C747   C     0.38443   0.41540   0.66071   0.00000  Uiso   1.00
C748   C     0.38083   0.38062   0.61485   0.00000  Uiso   1.00
C749   C     0.66188   0.36799   0.59348   0.00000  Uiso   1.00
C750   C     0.61262   0.38809   0.61962   0.00000  Uiso   1.00
C751   C     0.61672   0.42238   0.66588   0.00000  Uiso   1.00
H752   H     0.42790   0.41712   0.66851   0.00000  Uiso   1.00
H753   H     0.41957   0.36336   0.59568   0.00000  Uiso   1.00
H754   H     0.65891   0.34162   0.55783   0.00000  Uiso   1.00
H755   H     0.56994   0.37619   0.60419   0.00000  Uiso   1.00
H756   H     0.57227   0.42680   0.67696   0.00000  Uiso   1.00
C757   C     0.84858   0.60013   0.75187   0.00000  Uiso   1.00
C758   C     0.80680   0.50391   0.98789   0.00000  Uiso   1.00
C759   C     0.82349   0.51788   0.93775   0.00000  Uiso   1.00
C760   C     0.85232   0.51606   0.52018   0.00000  Uiso   1.00
C761   C     0.91176   0.54553   0.50365   0.00000  Uiso   1.00
C762   C     0.92480   0.56413   0.95669   0.00000  Uiso   1.00
C763   C     0.88106   0.55138   0.92463   0.00000  Uiso   1.00
C764   C     0.84078   0.49936   0.56834   0.00000  Uiso   1.00
C765   C     0.94391   0.54141   0.58314   0.00000  Uiso   1.00
C766   C     0.78166   0.49852   0.90244   0.00000  Uiso   1.00
C767   C     0.85669   0.65642   0.75267   0.00000  Uiso   1.00
C768   C     0.80092   0.49942   0.84700   0.00000  Uiso   1.00
C769   C     0.80950   0.34370   0.74856   0.00000  Uiso   1.00
C770   C     0.81762   0.39997   0.74935   0.00000  Uiso   1.00
C771   C     0.86620   0.50466   0.65375   0.00000  Uiso   1.00
C772   C     0.95726   0.55715   0.53484   0.00000  Uiso   1.00
C773   C     0.88503   0.51360   0.60043   0.00000  Uiso   1.00
C774   C     0.72126   0.47325   0.91968   0.00000  Uiso   1.00
C775   C     0.70307   0.46449   0.97013   0.00000  Uiso   1.00
C776   C     0.74519   0.47871   0.50379   0.00000  Uiso   1.00
Cu777  Cu    0.77377   0.49439   0.74436   0.00000  Uiso   1.00
Cu778  Cu    0.89290   0.50561   0.75565   0.00000  Uiso   1.00
H779   H     0.97880   0.55273   0.60757   0.00000  Uiso   1.00
H780   H     0.76446   0.65247   0.74451   0.00000  Uiso   1.00
H781   H     0.66898   0.54057   0.79233   0.00000  Uiso   1.00
H782   H     0.96907   0.58875   0.94465   0.00000  Uiso   1.00
H783   H     0.66949   0.57934   0.52225   0.00000  Uiso   1.00
H784   H     0.79736   0.47553   0.58228   0.00000  Uiso   1.00
H785   H     0.68810   0.45897   0.89379   0.00000  Uiso   1.00
H786   H     0.72744   0.47042   0.54223   0.00000  Uiso   1.00
H787   H     0.98954   0.44530   0.98301   0.00000  Uiso   1.00
H788   H     0.89279   0.56942   0.89006   0.00000  Uiso   1.00
H789   H     0.90174   0.34766   0.75665   0.00000  Uiso   1.00
N790   N     0.98241   0.51407   0.76416   0.00000  Uiso   1.00
N791   N     0.68426   0.48593   0.73584   0.00000  Uiso   1.00
O792   O     0.79464   0.57141   0.74633   0.00000  Uiso   1.00
O793   O     0.89524   0.58089   0.75587   0.00000  Uiso   1.00
O794   O     0.75848   0.49293   0.81840   0.00000  Uiso   1.00
O795   O     0.85908   0.50241   0.82793   0.00000  Uiso   1.00
O796   O     0.77142   0.41911   0.74414   0.00000  Uiso   1.00
O797   O     0.87203   0.42859   0.75367   0.00000  Uiso   1.00
O798   O     0.80758   0.49759   0.67207   0.00000  Uiso   1.00
O799   O     0.90819   0.50707   0.68161   0.00000  Uiso   1.00
C800   C     0.67113   0.44322   0.68940   0.00000  Uiso   1.00
C801   C     0.71776   0.41540   0.66071   0.00000  Uiso   1.00
C802   C     0.71416   0.38062   0.61485   0.00000  Uiso   1.00
C803   C     0.99521   0.36799   0.59348   0.00000  Uiso   1.00
C804   C     0.94596   0.38809   0.61962   0.00000  Uiso   1.00
C805   C     0.95005   0.42238   0.66588   0.00000  Uiso   1.00
H806   H     0.76123   0.41712   0.66851   0.00000  Uiso   1.00
H807   H     0.75290   0.36336   0.59568   0.00000  Uiso   1.00
H808   H     0.99224   0.34162   0.55783   0.00000  Uiso   1.00
H809   H     0.90327   0.37619   0.60419   0.00000  Uiso   1.00
H810   H     0.90560   0.42680   0.67696   0.00000  Uiso   1.00
C811   C     0.18192   0.93346   0.75187   0.00000  Uiso   1.00
C812   C     0.14014   0.83725   0.98789   0.00000  Uiso   1.00
C813   C     0.15683   0.85122   0.93775   0.00000  Uiso   1.00
C814   C     0.18565   0.84939   0.52018   0.00000  Uiso   1.00
C815   C     0.24510   0.87887   0.50365   0.00000  Uiso   1.00
C816   C     0.25813   0.89747   0.95669   0.00000  Uiso   1.00
C817   C     0.21439   0.88471   0.92463   0.00000  Uiso   1.00
C818   C     0.17412   0.83269   0.56834   0.00000  Uiso   1.00
C819   C     0.27725   0.87475   0.58314   0.00000  Uiso   1.00
C820   C     0.11499   0.83185   0.90244   0.00000  Uiso   1.00
C821   C     0.19002   0.98975   0.75267   0.00000  Uiso   1.00
C822   C     0.13425   0.83276   0.84700   0.00000  Uiso   1.00
C823   C     0.14283   0.67703   0.74856   0.00000  Uiso   1.00
C824   C     0.15096   0.73331   0.74935   0.00000  Uiso   1.00
C825   C     0.19954   0.83799   0.65375   0.00000  Uiso   1.00
C826   C     0.29060   0.89048   0.53484   0.00000  Uiso   1.00
C827   C     0.21836   0.84694   0.60043   0.00000  Uiso   1.00
C828   C     0.05459   0.80658   0.91968   0.00000  Uiso   1.00
C829   C     0.03640   0.79782   0.97013   0.00000  Uiso   1.00
C830   C     0.07852   0.81205   0.50379   0.00000  Uiso   1.00
Cu831  Cu    0.10710   0.82772   0.74436   0.00000  Uiso   1.00
Cu832  Cu    0.22623   0.83895   0.75565   0.00000  Uiso   1.00
H833   H     0.31213   0.88607   0.60757   0.00000  Uiso   1.00
H834   H     0.09779   0.98581   0.74451   0.00000  Uiso   1.00
H835   H     0.00231   0.87390   0.79233   0.00000  Uiso   1.00
H836   H     0.30241   0.92209   0.94465   0.00000  Uiso   1.00
H837   H     0.00282   0.91267   0.52225   0.00000  Uiso   1.00
H838   H     0.13069   0.80886   0.58228   0.00000  Uiso   1.00
H839   H     0.02143   0.79230   0.89379   0.00000  Uiso   1.00
H840   H     0.06078   0.80375   0.54223   0.00000  Uiso   1.00
H841   H     0.32288   0.77863   0.98301   0.00000  Uiso   1.00
H842   H     0.22612   0.90275   0.89006   0.00000  Uiso   1.00
H843   H     0.23507   0.68099   0.75665   0.00000  Uiso   1.00
N844   N     0.31574   0.84741   0.76416   0.00000  Uiso   1.00
N845   N     0.01759   0.81926   0.73584   0.00000  Uiso   1.00
O846   O     0.12797   0.90474   0.74633   0.00000  Uiso   1.00
O847   O     0.22858   0.91422   0.75587   0.00000  Uiso   1.00
O848   O     0.09181   0.82627   0.81840   0.00000  Uiso   1.00
O849   O     0.19242   0.83575   0.82793   0.00000  Uiso   1.00
O850   O     0.10476   0.75245   0.74414   0.00000  Uiso   1.00
O851   O     0.20536   0.76193   0.75367   0.00000  Uiso   1.00
O852   O     0.14092   0.83092   0.67207   0.00000  Uiso   1.00
O853   O     0.24152   0.84040   0.68161   0.00000  Uiso   1.00
C854   C     0.00446   0.77655   0.68940   0.00000  Uiso   1.00
C855   C     0.05109   0.74873   0.66071   0.00000  Uiso   1.00
C856   C     0.04749   0.71395   0.61485   0.00000  Uiso   1.00
C857   C     0.32854   0.70132   0.59348   0.00000  Uiso   1.00
C858   C     0.27929   0.72142   0.61962   0.00000  Uiso   1.00
C859   C     0.28338   0.75571   0.66588   0.00000  Uiso   1.00
H860   H     0.09457   0.75046   0.66851   0.00000  Uiso   1.00
H861   H     0.08623   0.69669   0.59568   0.00000  Uiso   1.00
H862   H     0.32557   0.67495   0.55783   0.00000  Uiso   1.00
H863   H     0.23661   0.70952   0.60419   0.00000  Uiso   1.00
H864   H     0.23893   0.76014   0.67696   0.00000  Uiso   1.00
C865   C     0.51525   0.93346   0.75187   0.00000  Uiso   1.00
C866   C     0.47347   0.83725   0.98789   0.00000  Uiso   1.00
C867   C     0.49016   0.85122   0.93775   0.00000  Uiso   1.00
C868   C     0.51899   0.84939   0.52018   0.00000  Uiso   1.00
C869   C     0.57843   0.87887   0.50365   0.00000  Uiso   1.00
C870   C     0.59146   0.89747   0.95669   0.00000  Uiso   1.00
C871   C     0.54773   0.88471   0.92463   0.00000  Uiso   1.00
C872   C     0.50745   0.83269   0.56834   0.00000  Uiso   1.00
C873   C     0.61058   0.87475   0.58314   0.00000  Uiso   1.00
C874   C     0.44833   0.83185   0.90244   0.00000  Uiso   1.00
C875   C     0.52335   0.98975   0.75267   0.00000  Uiso   1.00
C876   C     0.46758   0.83276   0.84700   0.00000  Uiso   1.00
C877   C     0.47616   0.67703   0.74856   0.00000  Uiso   1.00
C878   C     0.48429   0.73331   0.74935   0.00000  Uiso   1.00
C879   C     0.53287   0.83799   0.65375   0.00000  Uiso   1.00
C880   C     0.62393   0.89048   0.53484   0.00000  Uiso   1.00
C881   C     0.55169   0.84694   0.60043   0.00000  Uiso   1.00
C882   C     0.38793   0.80658   0.91968   0.00000  Uiso   1.00
C883   C     0.36973   0.79782   0.97013   0.00000  Uiso   1.00
C884   C     0.41186   0.81205   0.50379   0.00000  Uiso   1.00
Cu885  Cu    0.44043   0.82772   0.74436   0.00000  Uiso   1.00
Cu886  Cu    0.55957   0.83895   0.75565   0.00000  Uiso   1.00
H887   H     0.64546   0.88607   0.60757   0.00000  Uiso   1.00
H888   H     0.43113   0.98581   0.74451   0.00000  Uiso   1.00
H889   H     0.33565   0.87390   0.79233   0.00000  Uiso   1.00
H890   H     0.63574   0.92209   0.94465   0.00000  Uiso   1.00
H891   H     0.33616   0.91267   0.52225   0.00000  Uiso   1.00
H892   H     0.46403   0.80886   0.58228   0.00000  Uiso   1.00
H893   H     0.35477   0.79230   0.89379   0.00000  Uiso   1.00
H894   H     0.39411   0.80375   0.54223   0.00000  Uiso   1.00
H895   H     0.65621   0.77863   0.98301   0.00000  Uiso   1.00
H896   H     0.55946   0.90275   0.89006   0.00000  Uiso   1.00
H897   H     0.56841   0.68099   0.75665   0.00000  Uiso   1.00
N898   N     0.64908   0.84741   0.76416   0.00000  Uiso   1.00
N899   N     0.35092   0.81926   0.73584   0.00000  Uiso   1.00
O900   O     0.46131   0.90474   0.74633   0.00000  Uiso   1.00
O901   O     0.56191   0.91422   0.75587   0.00000  Uiso   1.00
O902   O     0.42515   0.82627   0.81840   0.00000  Uiso   1.00
O903   O     0.52575   0.83575   0.82793   0.00000  Uiso   1.00
O904   O     0.43809   0.75245   0.74414   0.00000  Uiso   1.00
O905   O     0.53869   0.76193   0.75367   0.00000  Uiso   1.00
O906   O     0.47425   0.83092   0.67207   0.00000  Uiso   1.00
O907   O     0.57485   0.84040   0.68161   0.00000  Uiso   1.00
C908   C     0.33780   0.77655   0.68940   0.00000  Uiso   1.00
C909   C     0.38443   0.74873   0.66071   0.00000  Uiso   1.00
C910   C     0.38083   0.71395   0.61485   0.00000  Uiso   1.00
C911   C     0.66188   0.70132   0.59348   0.00000  Uiso   1.00
C912   C     0.61262   0.72142   0.61962   0.00000  Uiso   1.00
C913   C     0.61672   0.75571   0.66588   0.00000  Uiso   1.00
H914   H     0.42790   0.75046   0.66851   0.00000  Uiso   1.00
H915   H     0.41957   0.69669   0.59568   0.00000  Uiso   1.00
H916   H     0.65891   0.67495   0.55783   0.00000  Uiso   1.00
H917   H     0.56994   0.70952   0.60419   0.00000  Uiso   1.00
H918   H     0.57227   0.76014   0.67696   0.00000  Uiso   1.00
C919   C     0.84858   0.93346   0.75187   0.00000  Uiso   1.00
C920   C     0.80680   0.83725   0.98789   0.00000  Uiso   1.00
C921   C     0.82349   0.85122   0.93775   0.00000  Uiso   1.00
C922   C     0.85232   0.84939   0.52018   0.00000  Uiso   1.00
C923   C     0.91176   0.87887   0.50365   0.00000  Uiso   1.00
C924   C     0.92480   0.89747   0.95669   0.00000  Uiso   1.00
C925   C     0.88106   0.88471   0.92463   0.00000  Uiso   1.00
C926   C     0.84078   0.83269   0.56834   0.00000  Uiso   1.00
C927   C     0.94391   0.87475   0.58314   0.00000  Uiso   1.00
C928   C     0.78166   0.83185   0.90244   0.00000  Uiso   1.00
C929   C     0.85669   0.98975   0.75267   0.00000  Uiso   1.00
C930   C     0.80092   0.83276   0.84700   0.00000  Uiso   1.00
C931   C     0.80950   0.67703   0.74856   0.00000  Uiso   1.00
C932   C     0.81762   0.73331   0.74935   0.00000  Uiso   1.00
C933   C     0.86620   0.83799   0.65375   0.00000  Uiso   1.00
C934   C     0.95726   0.89048   0.53484   0.00000  Uiso   1.00
C935   C     0.88503   0.84694   0.60043   0.00000  Uiso   1.00
C936   C     0.72126   0.80658   0.91968   0.00000  Uiso   1.00
C937   C     0.70307   0.79782   0.97013   0.00000  Uiso   1.00
C938   C     0.74519   0.81205   0.50379   0.00000  Uiso   1.00
Cu939  Cu    0.77377   0.82772   0.74436   0.00000  Uiso   1.00
Cu940  Cu    0.89290   0.83895   0.75565   0.00000  Uiso   1.00
H941   H     0.97880   0.88607   0.60757   0.00000  Uiso   1.00
H942   H     0.76446   0.98581   0.74451   0.00000  Uiso   1.00
H943   H     0.66898   0.87390   0.79233   0.00000  Uiso   1.00
H944   H     0.96907   0.92209   0.94465   0.00000  Uiso   1.00
H945   H     0.66949   0.91267   0.52225   0.00000  Uiso   1.00
H946   H     0.79736   0.80886   0.58228   0.00000  Uiso   1.00
H947   H     0.68810   0.79230   0.89379   0.00000  Uiso   1.00
H948   H     0.72744   0.80375   0.54223   0.00000  Uiso   1.00
H949   H     0.98954   0.77863   0.98301   0.00000  Uiso   1.00
H950   H     0.89279   0.90275   0.89006   0.00000  Uiso   1.00
H951   H     0.90174   0.68099   0.75665   0.00000  Uiso   1.00
N952   N     0.98241   0.84741   0.76416   0.00000  Uiso   1.00
N953   N     0.68426   0.81926   0.73584   0.00000  Uiso   1.00
O954   O     0.79464   0.90474   0.74633   0.00000  Uiso   1.00
O955   O     0.89524   0.91422   0.75587   0.00000  Uiso   1.00
O956   O     0.75848   0.82627   0.81840   0.00000  Uiso   1.00
O957   O     0.85908   0.83575   0.82793   0.00000  Uiso   1.00
O958   O     0.77142   0.75245   0.74414   0.00000  Uiso   1.00
O959   O     0.87203   0.76193   0.75367   0.00000  Uiso   1.00
O960   O     0.80758   0.83092   0.67207   0.00000  Uiso   1.00
O961   O     0.90819   0.84040   0.68161   0.00000  Uiso   1.00
C962   C     0.67113   0.77655   0.68940   0.00000  Uiso   1.00
C963   C     0.71776   0.74873   0.66071   0.00000  Uiso   1.00
C964   C     0.71416   0.71395   0.61485   0.00000  Uiso   1.00
C965   C     0.99521   0.70132   0.59348   0.00000  Uiso   1.00
C966   C     0.94596   0.72142   0.61962   0.00000  Uiso   1.00
C967   C     0.95005   0.75571   0.66588   0.00000  Uiso   1.00
H968   H     0.76123   0.75046   0.66851   0.00000  Uiso   1.00
H969   H     0.75290   0.69669   0.59568   0.00000  Uiso   1.00
H970   H     0.99224   0.67495   0.55783   0.00000  Uiso   1.00
H971   H     0.90327   0.70952   0.60419   0.00000  Uiso   1.00
H972   H     0.90560   0.76014   0.67696   0.00000  Uiso   1.00
loop_
_geom_bond_atom_site_label_1
_geom_bond_atom_site_label_2
_geom_bond_distance
_geom_bond_site_symmetry_2
_ccdc_geom_bond_type
C1     C11     1.442   .     S
C1     O37     1.309   .     A
C1     O36     1.299   .     A
C2     C3      1.420   .     A
C2     C490    1.424   .     S
C2     C506    1.418   .     S
C3     C10     1.421   .     A
C3     C7      1.413   .     A
C4     C8      1.401   .     A
C4     C5      1.420   .     A
C4     C488    1.424   1_554 S
C5     C16     1.403   .     A
C5     C492    1.391   1_554 S
C6     H26     1.084   .     S
C6     C7      1.387   .     A
C6     C491    1.391   .     S
C7     H32     1.079   .     S
C8     H28     1.074   .     S
C8     C17     1.395   .     A
C9     C17     1.399   .     A
C9     C16     1.392   .     A
C9     H23     1.083   .     S
C10    C12     1.475   .     S
C10    C18     1.404   .     A
C11    C175    1.343   .     S
C11    H195    1.087   .     S
C12    O39     1.312   .     A
C12    O38     1.312   .     A
C13    C14     1.442   .     S
C13    C335    1.343   1_545 S
C13    H348    1.087   1_545 S
C14    O41     1.301   .     A
C14    O40     1.309   .     A
C15    O42     1.309   .     A
C15    O43     1.310   .     A
C15    C17     1.461   .     S
C16    H81     1.084   .     S
C18    H29     1.083   .     S
C18    C19     1.386   .     A
C19    C506    1.389   .     S
C19    H139    1.083   1_455 S
C20    H30     1.077   .     S
C20    C505    1.389   1_554 S
C20    C488    1.418   1_554 S
Cu21   N35     2.049   .     S
Cu21   Cu22    2.727   .     S
Cu21   O40     1.964   .     S
Cu21   O36     1.958   .     S
Cu21   O42     1.958   .     S
Cu21   O38     1.963   .     S
Cu22   O43     1.963   .     S
Cu22   O39     1.958   .     S
Cu22   N34     2.049   .     S
Cu22   O41     1.958   .     S
Cu22   O37     1.964   .     S
H24    C175    1.087   .     S
H25    N142    1.029   1_455 S
H27    C124    1.084   1_455 S
H31    C73     1.083   .     S
H33    C335    1.087   1_545 S
N34    H79     1.029   .     S
N34    N89     1.269   .     S
N35    C44     1.547   .     S
N35    N142    1.269   1_455 S
C44    C45     1.450   .     A
C44    C157    1.447   1_455 S
C45    H50     1.040   .     S
C45    C46     1.402   .     A
C46    H51     1.085   .     S
C46    C155    1.367   1_455 S
C47    H52     1.082   .     S
C47    C48     1.367   .     A
C47    C100    1.367   .     S
C48    C49     1.405   .     A
C48    H53     1.086   .     S
C49    H54     1.025   .     S
C49    C98     1.447   .     S
C55    C65     1.442   .     S
C55    O91     1.309   .     A
C55    O90     1.299   .     A
C56    C57     1.420   .     A
C56    C544    1.424   .     S
C56    C560    1.418   .     S
C57    C64     1.421   .     A
C57    C61     1.413   .     A
C58    C62     1.401   .     A
C58    C59     1.420   .     A
C58    C542    1.424   1_554 S
C59    C70     1.403   .     A
C59    C546    1.391   1_554 S
C60    H80     1.084   .     S
C60    C61     1.387   .     A
C60    C545    1.391   .     S
C61    H86     1.079   .     S
C62    H82     1.074   .     S
C62    C71     1.395   .     A
C63    C71     1.399   .     A
C63    C70     1.392   .     A
C63    H77     1.083   .     S
C64    C66     1.475   .     S
C64    C72     1.404   .     A
C65    C229    1.343   .     S
C65    H249    1.087   .     S
C66    O93     1.312   .     A
C66    O92     1.312   .     A
C67    C68     1.442   .     S
C67    C389    1.343   1_545 S
C67    H402    1.087   1_545 S
C68    O95     1.301   .     A
C68    O94     1.309   .     A
C69    O96     1.309   .     A
C69    O97     1.310   .     A
C69    C71     1.461   .     S
C70    H135    1.084   .     S
C72    H83     1.083   .     S
C72    C73     1.386   .     A
C73    C560    1.389   .     S
C74    H84     1.077   .     S
C74    C559    1.389   1_554 S
C74    C542    1.418   1_554 S
Cu75   N89     2.049   .     S
Cu75   Cu76    2.727   .     S
Cu75   O94     1.964   .     S
Cu75   O90     1.958   .     S
Cu75   O96     1.958   .     S
Cu75   O92     1.963   .     S
Cu76   O97     1.963   .     S
Cu76   O93     1.958   .     S
Cu76   N88     2.049   .     S
Cu76   O95     1.958   .     S
Cu76   O91     1.964   .     S
H78    C229    1.087   .     S
H85    C127    1.083   .     S
H87    C389    1.087   1_545 S
N88    H133    1.029   .     S
N88    N143    1.269   .     S
N89    C98     1.547   .     S
C98    C99     1.450   .     A
C99    H104    1.040   .     S
C99    C100    1.402   .     A
C100   H105    1.085   .     S
C101   H106    1.082   .     S
C101   C102    1.367   .     A
C101   C154    1.367   .     S
C102   C103    1.405   .     A
C102   H107    1.086   .     S
C103   H108    1.025   .     S
C103   C152    1.447   .     S
C109   C119    1.442   .     S
C109   O145    1.309   .     A
C109   O144    1.299   .     A
C110   C111    1.420   .     A
C110   C598    1.424   .     S
C110   C614    1.418   .     S
C111   C118    1.421   .     A
C111   C115    1.413   .     A
C112   C116    1.401   .     A
C112   C113    1.420   .     A
C112   C596    1.424   1_554 S
C113   C124    1.403   .     A
C113   C600    1.391   1_554 S
C114   H134    1.084   .     S
C114   C115    1.387   .     A
C114   C599    1.391   .     S
C115   H140    1.079   .     S
C116   H136    1.074   .     S
C116   C125    1.395   .     A
C117   C125    1.399   .     A
C117   C124    1.392   .     A
C117   H131    1.083   .     S
C118   C120    1.475   .     S
C118   C126    1.404   .     A
C119   C283    1.343   .     S
C119   H303    1.087   .     S
C120   O147    1.312   .     A
C120   O146    1.312   .     A
C121   C122    1.442   .     S
C121   C443    1.343   1_545 S
C121   H456    1.087   1_545 S
C122   O149    1.301   .     A
C122   O148    1.309   .     A
C123   O150    1.309   .     A
C123   O151    1.310   .     A
C123   C125    1.461   .     S
C124   H27     1.084   1_655 S
C126   H137    1.083   .     S
C126   C127    1.386   .     A
C127   C614    1.389   .     S
C128   H138    1.077   .     S
C128   C613    1.389   1_554 S
C128   C596    1.418   1_554 S
Cu129  N143    2.049   .     S
Cu129  Cu130   2.727   .     S
Cu129  O148    1.964   .     S
Cu129  O144    1.958   .     S
Cu129  O150    1.958   .     S
Cu129  O146    1.963   .     S
Cu130  O151    1.963   .     S
Cu130  O147    1.958   .     S
Cu130  N142    2.049   .     S
Cu130  O149    1.958   .     S
Cu130  O145    1.964   .     S
H132   C283    1.087   .     S
H139   C19     1.083   1_655 S
H141   C443    1.087   1_545 S
N142   H25     1.029   1_655 S
N142   N35     1.269   1_655 S
N143   C152    1.547   .     S
C152   C153    1.450   .     A
C153   H158    1.040   .     S
C153   C154    1.402   .     A
C154   H159    1.085   .     S
C155   H160    1.082   .     S
C155   C156    1.367   .     A
C155   C46     1.367   1_655 S
C156   C157    1.405   .     A
C156   H161    1.086   .     S
C157   H162    1.025   .     S
C157   C44     1.447   1_655 S
C163   C173    1.442   .     S
C163   O199    1.309   .     A
C163   O198    1.299   .     A
C164   C165    1.420   .     A
C164   C652    1.424   .     S
C164   C668    1.418   .     S
C165   C172    1.421   .     A
C165   C169    1.413   .     A
C166   C170    1.401   .     A
C166   C167    1.420   .     A
C166   C650    1.424   1_554 S
C167   C178    1.403   .     A
C167   C654    1.391   1_554 S
C168   H188    1.084   .     S
C168   C169    1.387   .     A
C168   C653    1.391   .     S
C169   H194    1.079   .     S
C170   H190    1.074   .     S
C170   C179    1.395   .     A
C171   C179    1.399   .     A
C171   C178    1.392   .     A
C171   H185    1.083   .     S
C172   C174    1.475   .     S
C172   C180    1.404   .     A
C173   C337    1.343   .     S
C173   H357    1.087   .     S
C174   O201    1.312   .     A
C174   O200    1.312   .     A
C175   C176    1.442   .     S
C176   O203    1.301   .     A
C176   O202    1.309   .     A
C177   O204    1.309   .     A
C177   O205    1.310   .     A
C177   C179    1.461   .     S
C178   H243    1.084   .     S
C180   H191    1.083   .     S
C180   C181    1.386   .     A
C181   C668    1.389   .     S
C181   H301    1.083   1_455 S
C182   H192    1.077   .     S
C182   C667    1.389   1_554 S
C182   C650    1.418   1_554 S
Cu183  N197    2.049   .     S
Cu183  Cu184   2.727   .     S
Cu183  O202    1.964   .     S
Cu183  O198    1.958   .     S
Cu183  O204    1.958   .     S
Cu183  O200    1.963   .     S
Cu184  O205    1.963   .     S
Cu184  O201    1.958   .     S
Cu184  N196    2.049   .     S
Cu184  O203    1.958   .     S
Cu184  O199    1.964   .     S
H186   C337    1.087   .     S
H187   N304    1.029   1_455 S
H189   C286    1.084   1_455 S
H193   C235    1.083   .     S
N196   H241    1.029   .     S
N196   N251    1.269   .     S
N197   C206    1.547   .     S
N197   N304    1.269   1_455 S
C206   C207    1.450   .     A
C206   C319    1.447   1_455 S
C207   H212    1.040   .     S
C207   C208    1.402   .     A
C208   H213    1.085   .     S
C208   C317    1.367   1_455 S
C209   H214    1.082   .     S
C209   C210    1.367   .     A
C209   C262    1.367   .     S
C210   C211    1.405   .     A
C210   H215    1.086   .     S
C211   H216    1.025   .     S
C211   C260    1.447   .     S
C217   C227    1.442   .     S
C217   O253    1.309   .     A
C217   O252    1.299   .     A
C218   C219    1.420   .     A
C218   C706    1.424   .     S
C218   C722    1.418   .     S
C219   C226    1.421   .     A
C219   C223    1.413   .     A
C220   C224    1.401   .     A
C220   C221    1.420   .     A
C220   C704    1.424   1_554 S
C221   C232    1.403   .     A
C221   C708    1.391   1_554 S
C222   H242    1.084   .     S
C222   C223    1.387   .     A
C222   C707    1.391   .     S
C223   H248    1.079   .     S
C224   H244    1.074   .     S
C224   C233    1.395   .     A
C225   C233    1.399   .     A
C225   C232    1.392   .     A
C225   H239    1.083   .     S
C226   C228    1.475   .     S
C226   C234    1.404   .     A
C227   C391    1.343   .     S
C227   H411    1.087   .     S
C228   O255    1.312   .     A
C228   O254    1.312   .     A
C229   C230    1.442   .     S
C230   O257    1.301   .     A
C230   O256    1.309   .     A
C231   O258    1.309   .     A
C231   O259    1.310   .     A
C231   C233    1.461   .     S
C232   H297    1.084   .     S
C234   H245    1.083   .     S
C234   C235    1.386   .     A
C235   C722    1.389   .     S
C236   H246    1.077   .     S
C236   C721    1.389   1_554 S
C236   C704    1.418   1_554 S
Cu237  N251    2.049   .     S
Cu237  Cu238   2.727   .     S
Cu237  O256    1.964   .     S
Cu237  O252    1.958   .     S
Cu237  O258    1.958   .     S
Cu237  O254    1.963   .     S
Cu238  O259    1.963   .     S
Cu238  O255    1.958   .     S
Cu238  N250    2.049   .     S
Cu238  O257    1.958   .     S
Cu238  O253    1.964   .     S
H240   C391    1.087   .     S
H247   C289    1.083   .     S
N250   H295    1.029   .     S
N250   N305    1.269   .     S
N251   C260    1.547   .     S
C260   C261    1.450   .     A
C261   H266    1.040   .     S
C261   C262    1.402   .     A
C262   H267    1.085   .     S
C263   H268    1.082   .     S
C263   C264    1.367   .     A
C263   C316    1.367   .     S
C264   C265    1.405   .     A
C264   H269    1.086   .     S
C265   H270    1.025   .     S
C265   C314    1.447   .     S
C271   C281    1.442   .     S
C271   O307    1.309   .     A
C271   O306    1.299   .     A
C272   C273    1.420   .     A
C272   C760    1.424   .     S
C272   C776    1.418   .     S
C273   C280    1.421   .     A
C273   C277    1.413   .     A
C274   C278    1.401   .     A
C274   C275    1.420   .     A
C274   C758    1.424   1_554 S
C275   C286    1.403   .     A
C275   C762    1.391   1_554 S
C276   H296    1.084   .     S
C276   C277    1.387   .     A
C276   C761    1.391   .     S
C277   H302    1.079   .     S
C278   H298    1.074   .     S
C278   C287    1.395   .     A
C279   C287    1.399   .     A
C279   C286    1.392   .     A
C279   H293    1.083   .     S
C280   C282    1.475   .     S
C280   C288    1.404   .     A
C281   C445    1.343   .     S
C281   H465    1.087   .     S
C282   O309    1.312   .     A
C282   O308    1.312   .     A
C283   C284    1.442   .     S
C284   O311    1.301   .     A
C284   O310    1.309   .     A
C285   O312    1.309   .     A
C285   O313    1.310   .     A
C285   C287    1.461   .     S
C286   H189    1.084   1_655 S
C288   H299    1.083   .     S
C288   C289    1.386   .     A
C289   C776    1.389   .     S
C290   H300    1.077   .     S
C290   C775    1.389   1_554 S
C290   C758    1.418   1_554 S
Cu291  N305    2.049   .     S
Cu291  Cu292   2.727   .     S
Cu291  O310    1.964   .     S
Cu291  O306    1.958   .     S
Cu291  O312    1.958   .     S
Cu291  O308    1.963   .     S
Cu292  O313    1.963   .     S
Cu292  O309    1.958   .     S
Cu292  N304    2.049   .     S
Cu292  O311    1.958   .     S
Cu292  O307    1.964   .     S
H294   C445    1.087   .     S
H301   C181    1.083   1_655 S
N304   H187    1.029   1_655 S
N304   N197    1.269   1_655 S
N305   C314    1.547   .     S
C314   C315    1.450   .     A
C315   H320    1.040   .     S
C315   C316    1.402   .     A
C316   H321    1.085   .     S
C317   H322    1.082   .     S
C317   C318    1.367   .     A
C317   C208    1.367   1_655 S
C318   C319    1.405   .     A
C318   H323    1.086   .     S
C319   H324    1.025   .     S
C319   C206    1.447   1_655 S
C325   C335    1.442   .     S
C325   O361    1.309   .     A
C325   O360    1.299   .     A
C326   C327    1.420   .     A
C326   C814    1.424   .     S
C326   C830    1.418   .     S
C327   C334    1.421   .     A
C327   C331    1.413   .     A
C328   C332    1.401   .     A
C328   C329    1.420   .     A
C328   C812    1.424   1_554 S
C329   C340    1.403   .     A
C329   C816    1.391   1_554 S
C330   H350    1.084   .     S
C330   C331    1.387   .     A
C330   C815    1.391   .     S
C331   H356    1.079   .     S
C332   H352    1.074   .     S
C332   C341    1.395   .     A
C333   C341    1.399   .     A
C333   C340    1.392   .     A
C333   H347    1.083   .     S
C334   C336    1.475   .     S
C334   C342    1.404   .     A
C335   C13     1.343   1_565 S
C335   H33     1.087   1_565 S
C336   O363    1.312   .     A
C336   O362    1.312   .     A
C337   C338    1.442   .     S
C338   O365    1.301   .     A
C338   O364    1.309   .     A
C339   O366    1.309   .     A
C339   O367    1.310   .     A
C339   C341    1.461   .     S
C340   H405    1.084   .     S
C342   H353    1.083   .     S
C342   C343    1.386   .     A
C343   C830    1.389   .     S
C343   H463    1.083   1_455 S
C344   H354    1.077   .     S
C344   C829    1.389   1_554 S
C344   C812    1.418   1_554 S
Cu345  N359    2.049   .     S
Cu345  Cu346   2.727   .     S
Cu345  O364    1.964   .     S
Cu345  O360    1.958   .     S
Cu345  O366    1.958   .     S
Cu345  O362    1.963   .     S
Cu346  O367    1.963   .     S
Cu346  O363    1.958   .     S
Cu346  N358    2.049   .     S
Cu346  O365    1.958   .     S
Cu346  O361    1.964   .     S
H348   C13     1.087   1_565 S
H349   N466    1.029   1_455 S
H351   C448    1.084   1_455 S
H355   C397    1.083   .     S
N358   H403    1.029   .     S
N358   N413    1.269   .     S
N359   C368    1.547   .     S
N359   N466    1.269   1_455 S
C368   C369    1.450   .     A
C368   C481    1.447   1_455 S
C369   H374    1.040   .     S
C369   C370    1.402   .     A
C370   H375    1.085   .     S
C370   C479    1.367   1_455 S
C371   H376    1.082   .     S
C371   C372    1.367   .     A
C371   C424    1.367   .     S
C372   C373    1.405   .     A
C372   H377    1.086   .     S
C373   H378    1.025   .     S
C373   C422    1.447   .     S
C379   C389    1.442   .     S
C379   O415    1.309   .     A
C379   O414    1.299   .     A
C380   C381    1.420   .     A
C380   C868    1.424   .     S
C380   C884    1.418   .     S
C381   C388    1.421   .     A
C381   C385    1.413   .     A
C382   C386    1.401   .     A
C382   C383    1.420   .     A
C382   C866    1.424   1_554 S
C383   C394    1.403   .     A
C383   C870    1.391   1_554 S
C384   H404    1.084   .     S
C384   C385    1.387   .     A
C384   C869    1.391   .     S
C385   H410    1.079   .     S
C386   H406    1.074   .     S
C386   C395    1.395   .     A
C387   C395    1.399   .     A
C387   C394    1.392   .     A
C387   H401    1.083   .     S
C388   C390    1.475   .     S
C388   C396    1.404   .     A
C389   C67     1.343   1_565 S
C389   H87     1.087   1_565 S
C390   O417    1.312   .     A
C390   O416    1.312   .     A
C391   C392    1.442   .     S
C392   O419    1.301   .     A
C392   O418    1.309   .     A
C393   O420    1.309   .     A
C393   O421    1.310   .     A
C393   C395    1.461   .     S
C394   H459    1.084   .     S
C396   H407    1.083   .     S
C396   C397    1.386   .     A
C397   C884    1.389   .     S
C398   H408    1.077   .     S
C398   C883    1.389   1_554 S
C398   C866    1.418   1_554 S
Cu399  N413    2.049   .     S
Cu399  Cu400   2.727   .     S
Cu399  O418    1.964   .     S
Cu399  O414    1.958   .     S
Cu399  O420    1.958   .     S
Cu399  O416    1.963   .     S
Cu400  O421    1.963   .     S
Cu400  O417    1.958   .     S
Cu400  N412    2.049   .     S
Cu400  O419    1.958   .     S
Cu400  O415    1.964   .     S
H402   C67     1.087   1_565 S
H409   C451    1.083   .     S
N412   H457    1.029   .     S
N412   N467    1.269   .     S
N413   C422    1.547   .     S
C422   C423    1.450   .     A
C423   H428    1.040   .     S
C423   C424    1.402   .     A
C424   H429    1.085   .     S
C425   H430    1.082   .     S
C425   C426    1.367   .     A
C425   C478    1.367   .     S
C426   C427    1.405   .     A
C426   H431    1.086   .     S
C427   H432    1.025   .     S
C427   C476    1.447   .     S
C433   C443    1.442   .     S
C433   O469    1.309   .     A
C433   O468    1.299   .     A
C434   C435    1.420   .     A
C434   C922    1.424   .     S
C434   C938    1.418   .     S
C435   C442    1.421   .     A
C435   C439    1.413   .     A
C436   C440    1.401   .     A
C436   C437    1.420   .     A
C436   C920    1.424   1_554 S
C437   C448    1.403   .     A
C437   C924    1.391   1_554 S
C438   H458    1.084   .     S
C438   C439    1.387   .     A
C438   C923    1.391   .     S
C439   H464    1.079   .     S
C440   H460    1.074   .     S
C440   C449    1.395   .     A
C441   C449    1.399   .     A
C441   C448    1.392   .     A
C441   H455    1.083   .     S
C442   C444    1.475   .     S
C442   C450    1.404   .     A
C443   C121    1.343   1_565 S
C443   H141    1.087   1_565 S
C444   O471    1.312   .     A
C444   O470    1.312   .     A
C445   C446    1.442   .     S
C446   O473    1.301   .     A
C446   O472    1.309   .     A
C447   O474    1.309   .     A
C447   O475    1.310   .     A
C447   C449    1.461   .     S
C448   H351    1.084   1_655 S
C450   H461    1.083   .     S
C450   C451    1.386   .     A
C451   C938    1.389   .     S
C452   H462    1.077   .     S
C452   C937    1.389   1_554 S
C452   C920    1.418   1_554 S
Cu453  N467    2.049   .     S
Cu453  Cu454   2.727   .     S
Cu453  O472    1.964   .     S
Cu453  O468    1.958   .     S
Cu453  O474    1.958   .     S
Cu453  O470    1.963   .     S
Cu454  O475    1.963   .     S
Cu454  O471    1.958   .     S
Cu454  N466    2.049   .     S
Cu454  O473    1.958   .     S
Cu454  O469    1.964   .     S
H456   C121    1.087   1_565 S
H463   C343    1.083   1_655 S
N466   H349    1.029   1_655 S
N466   N359    1.269   1_655 S
N467   C476    1.547   .     S
C476   C477    1.450   .     A
C477   H482    1.040   .     S
C477   C478    1.402   .     A
C478   H483    1.085   .     S
C479   H484    1.082   .     S
C479   C480    1.367   .     A
C479   C370    1.367   1_655 S
C480   C481    1.405   .     A
C480   H485    1.086   .     S
C481   H486    1.025   .     S
C481   C368    1.447   1_655 S
C487   C497    1.442   .     S
C487   O523    1.309   .     A
C487   O522    1.299   .     A
C488   C489    1.420   .     A
C488   C4      1.424   1_556 S
C488   C20     1.418   1_556 S
C489   C496    1.421   .     A
C489   C493    1.413   .     A
C490   C494    1.401   .     A
C490   C491    1.420   .     A
C491   C502    1.403   .     A
C492   H512    1.084   .     S
C492   C493    1.387   .     A
C492   C5      1.391   1_556 S
C493   H518    1.079   .     S
C494   H514    1.074   .     S
C494   C503    1.395   .     A
C495   C503    1.399   .     A
C495   C502    1.392   .     A
C495   H509    1.083   .     S
C496   C498    1.475   .     S
C496   C504    1.404   .     A
C497   C661    1.343   .     S
C497   H681    1.087   .     S
C498   O525    1.312   .     A
C498   O524    1.312   .     A
C499   C500    1.442   .     S
C499   C821    1.343   1_545 S
C499   H834    1.087   1_545 S
C500   O527    1.301   .     A
C500   O526    1.309   .     A
C501   O528    1.309   .     A
C501   O529    1.310   .     A
C501   C503    1.461   .     S
C502   H567    1.084   .     S
C504   H515    1.083   .     S
C504   C505    1.386   .     A
C505   C20     1.389   1_556 S
C505   H625    1.083   1_455 S
C506   H516    1.077   .     S
Cu507  N521    2.049   .     S
Cu507  Cu508   2.727   .     S
Cu507  O526    1.964   .     S
Cu507  O522    1.958   .     S
Cu507  O528    1.958   .     S
Cu507  O524    1.963   .     S
Cu508  O529    1.963   .     S
Cu508  O525    1.958   .     S
Cu508  N520    2.049   .     S
Cu508  O527    1.958   .     S
Cu508  O523    1.964   .     S
H510   C661    1.087   .     S
H511   N628    1.029   1_455 S
H513   C610    1.084   1_455 S
H517   C559    1.083   .     S
H519   C821    1.087   1_545 S
N520   H565    1.029   .     S
N520   N575    1.269   .     S
N521   C530    1.547   .     S
N521   N628    1.269   1_455 S
C530   C531    1.450   .     A
C530   C643    1.447   1_455 S
C531   H536    1.040   .     S
C531   C532    1.402   .     A
C532   H537    1.085   .     S
C532   C641    1.367   1_455 S
C533   H538    1.082   .     S
C533   C534    1.367   .     A
C533   C586    1.367   .     S
C534   C535    1.405   .     A
C534   H539    1.086   .     S
C535   H540    1.025   .     S
C535   C584    1.447   .     S
C541   C551    1.442   .     S
C541   O577    1.309   .     A
C541   O576    1.299   .     A
C542   C543    1.420   .     A
C542   C58     1.424   1_556 S
C542   C74     1.418   1_556 S
C543   C550    1.421   .     A
C543   C547    1.413   .     A
C544   C548    1.401   .     A
C544   C545    1.420   .     A
C545   C556    1.403   .     A
C546   H566    1.084   .     S
C546   C547    1.387   .     A
C546   C59     1.391   1_556 S
C547   H572    1.079   .     S
C548   H568    1.074   .     S
C548   C557    1.395   .     A
C549   C557    1.399   .     A
C549   C556    1.392   .     A
C549   H563    1.083   .     S
C550   C552    1.475   .     S
C550   C558    1.404   .     A
C551   C715    1.343   .     S
C551   H735    1.087   .     S
C552   O579    1.312   .     A
C552   O578    1.312   .     A
C553   C554    1.442   .     S
C553   C875    1.343   1_545 S
C553   H888    1.087   1_545 S
C554   O581    1.301   .     A
C554   O580    1.309   .     A
C555   O582    1.309   .     A
C555   O583    1.310   .     A
C555   C557    1.461   .     S
C556   H621    1.084   .     S
C558   H569    1.083   .     S
C558   C559    1.386   .     A
C559   C74     1.389   1_556 S
C560   H570    1.077   .     S
Cu561  N575    2.049   .     S
Cu561  Cu562   2.727   .     S
Cu561  O580    1.964   .     S
Cu561  O576    1.958   .     S
Cu561  O582    1.958   .     S
Cu561  O578    1.963   .     S
Cu562  O583    1.963   .     S
Cu562  O579    1.958   .     S
Cu562  N574    2.049   .     S
Cu562  O581    1.958   .     S
Cu562  O577    1.964   .     S
H564   C715    1.087   .     S
H571   C613    1.083   .     S
H573   C875    1.087   1_545 S
N574   H619    1.029   .     S
N574   N629    1.269   .     S
N575   C584    1.547   .     S
C584   C585    1.450   .     A
C585   H590    1.040   .     S
C585   C586    1.402   .     A
C586   H591    1.085   .     S
C587   H592    1.082   .     S
C587   C588    1.367   .     A
C587   C640    1.367   .     S
C588   C589    1.405   .     A
C588   H593    1.086   .     S
C589   H594    1.025   .     S
C589   C638    1.447   .     S
C595   C605    1.442   .     S
C595   O631    1.309   .     A
C595   O630    1.299   .     A
C596   C597    1.420   .     A
C596   C112    1.424   1_556 S
C596   C128    1.418   1_556 S
C597   C604    1.421   .     A
C597   C601    1.413   .     A
C598   C602    1.401   .     A
C598   C599    1.420   .     A
C599   C610    1.403   .     A
C600   H620    1.084   .     S
C600   C601    1.387   .     A
C600   C113    1.391   1_556 S
C601   H626    1.079   .     S
C602   H622    1.074   .     S
C602   C611    1.395   .     A
C603   C611    1.399   .     A
C603   C610    1.392   .     A
C603   H617    1.083   .     S
C604   C606    1.475   .     S
C604   C612    1.404   .     A
C605   C769    1.343   .     S
C605   H789    1.087   .     S
C606   O633    1.312   .     A
C606   O632    1.312   .     A
C607   C608    1.442   .     S
C607   C929    1.343   1_545 S
C607   H942    1.087   1_545 S
C608   O635    1.301   .     A
C608   O634    1.309   .     A
C609   O636    1.309   .     A
C609   O637    1.310   .     A
C609   C611    1.461   .     S
C610   H513    1.084   1_655 S
C612   H623    1.083   .     S
C612   C613    1.386   .     A
C613   C128    1.389   1_556 S
C614   H624    1.077   .     S
Cu615  N629    2.049   .     S
Cu615  Cu616   2.727   .     S
Cu615  O634    1.964   .     S
Cu615  O630    1.958   .     S
Cu615  O636    1.958   .     S
Cu615  O632    1.963   .     S
Cu616  O637    1.963   .     S
Cu616  O633    1.958   .     S
Cu616  N628    2.049   .     S
Cu616  O635    1.958   .     S
Cu616  O631    1.964   .     S
H618   C769    1.087   .     S
H625   C505    1.083   1_655 S
H627   C929    1.087   1_545 S
N628   H511    1.029   1_655 S
N628   N521    1.269   1_655 S
N629   C638    1.547   .     S
C638   C639    1.450   .     A
C639   H644    1.040   .     S
C639   C640    1.402   .     A
C640   H645    1.085   .     S
C641   H646    1.082   .     S
C641   C642    1.367   .     A
C641   C532    1.367   1_655 S
C642   C643    1.405   .     A
C642   H647    1.086   .     S
C643   H648    1.025   .     S
C643   C530    1.447   1_655 S
C649   C659    1.442   .     S
C649   O685    1.309   .     A
C649   O684    1.299   .     A
C650   C651    1.420   .     A
C650   C166    1.424   1_556 S
C650   C182    1.418   1_556 S
C651   C658    1.421   .     A
C651   C655    1.413   .     A
C652   C656    1.401   .     A
C652   C653    1.420   .     A
C653   C664    1.403   .     A
C654   H674    1.084   .     S
C654   C655    1.387   .     A
C654   C167    1.391   1_556 S
C655   H680    1.079   .     S
C656   H676    1.074   .     S
C656   C665    1.395   .     A
C657   C665    1.399   .     A
C657   C664    1.392   .     A
C657   H671    1.083   .     S
C658   C660    1.475   .     S
C658   C666    1.404   .     A
C659   C823    1.343   .     S
C659   H843    1.087   .     S
C660   O687    1.312   .     A
C660   O686    1.312   .     A
C661   C662    1.442   .     S
C662   O689    1.301   .     A
C662   O688    1.309   .     A
C663   O690    1.309   .     A
C663   O691    1.310   .     A
C663   C665    1.461   .     S
C664   H729    1.084   .     S
C666   H677    1.083   .     S
C666   C667    1.386   .     A
C667   C182    1.389   1_556 S
C667   H787    1.083   1_455 S
C668   H678    1.077   .     S
Cu669  N683    2.049   .     S
Cu669  Cu670   2.727   .     S
Cu669  O688    1.964   .     S
Cu669  O684    1.958   .     S
Cu669  O690    1.958   .     S
Cu669  O686    1.963   .     S
Cu670  O691    1.963   .     S
Cu670  O687    1.958   .     S
Cu670  N682    2.049   .     S
Cu670  O689    1.958   .     S
Cu670  O685    1.964   .     S
H672   C823    1.087   .     S
H673   N790    1.029   1_455 S
H675   C772    1.084   1_455 S
H679   C721    1.083   .     S
N682   H727    1.029   .     S
N682   N737    1.269   .     S
N683   C692    1.547   .     S
N683   N790    1.269   1_455 S
C692   C693    1.450   .     A
C692   C805    1.447   1_455 S
C693   H698    1.040   .     S
C693   C694    1.402   .     A
C694   H699    1.085   .     S
C694   C803    1.367   1_455 S
C695   H700    1.082   .     S
C695   C696    1.367   .     A
C695   C748    1.367   .     S
C696   C697    1.405   .     A
C696   H701    1.086   .     S
C697   H702    1.025   .     S
C697   C746    1.447   .     S
C703   C713    1.442   .     S
C703   O739    1.309   .     A
C703   O738    1.299   .     A
C704   C705    1.420   .     A
C704   C220    1.424   1_556 S
C704   C236    1.418   1_556 S
C705   C712    1.421   .     A
C705   C709    1.413   .     A
C706   C710    1.401   .     A
C706   C707    1.420   .     A
C707   C718    1.403   .     A
C708   H728    1.084   .     S
C708   C709    1.387   .     A
C708   C221    1.391   1_556 S
C709   H734    1.079   .     S
C710   H730    1.074   .     S
C710   C719    1.395   .     A
C711   C719    1.399   .     A
C711   C718    1.392   .     A
C711   H725    1.083   .     S
C712   C714    1.475   .     S
C712   C720    1.404   .     A
C713   C877    1.343   .     S
C713   H897    1.087   .     S
C714   O741    1.312   .     A
C714   O740    1.312   .     A
C715   C716    1.442   .     S
C716   O743    1.301   .     A
C716   O742    1.309   .     A
C717   O744    1.309   .     A
C717   O745    1.310   .     A
C717   C719    1.461   .     S
C718   H783    1.084   .     S
C720   H731    1.083   .     S
C720   C721    1.386   .     A
C721   C236    1.389   1_556 S
C722   H732    1.077   .     S
Cu723  N737    2.049   .     S
Cu723  Cu724   2.727   .     S
Cu723  O742    1.964   .     S
Cu723  O738    1.958   .     S
Cu723  O744    1.958   .     S
Cu723  O740    1.963   .     S
Cu724  O745    1.963   .     S
Cu724  O741    1.958   .     S
Cu724  N736    2.049   .     S
Cu724  O743    1.958   .     S
Cu724  O739    1.964   .     S
H726   C877    1.087   .     S
H733   C775    1.083   .     S
N736   H781    1.029   .     S
N736   N791    1.269   .     S
N737   C746    1.547   .     S
C746   C747    1.450   .     A
C747   H752    1.040   .     S
C747   C748    1.402   .     A
C748   H753    1.085   .     S
C749   H754    1.082   .     S
C749   C750    1.367   .     A
C749   C802    1.367   .     S
C750   C751    1.405   .     A
C750   H755    1.086   .     S
C751   H756    1.025   .     S
C751   C800    1.447   .     S
C757   C767    1.442   .     S
C757   O793    1.309   .     A
C757   O792    1.299   .     A
C758   C759    1.420   .     A
C758   C274    1.424   1_556 S
C758   C290    1.418   1_556 S
C759   C766    1.421   .     A
C759   C763    1.413   .     A
C760   C764    1.401   .     A
C760   C761    1.420   .     A
C761   C772    1.403   .     A
C762   H782    1.084   .     S
C762   C763    1.387   .     A
C762   C275    1.391   1_556 S
C763   H788    1.079   .     S
C764   H784    1.074   .     S
C764   C773    1.395   .     A
C765   C773    1.399   .     A
C765   C772    1.392   .     A
C765   H779    1.083   .     S
C766   C768    1.475   .     S
C766   C774    1.404   .     A
C767   C931    1.343   .     S
C767   H951    1.087   .     S
C768   O795    1.312   .     A
C768   O794    1.312   .     A
C769   C770    1.442   .     S
C770   O797    1.301   .     A
C770   O796    1.309   .     A
C771   O798    1.309   .     A
C771   O799    1.310   .     A
C771   C773    1.461   .     S
C772   H675    1.084   1_655 S
C774   H785    1.083   .     S
C774   C775    1.386   .     A
C775   C290    1.389   1_556 S
C776   H786    1.077   .     S
Cu777  N791    2.049   .     S
Cu777  Cu778   2.727   .     S
Cu777  O796    1.964   .     S
Cu777  O792    1.958   .     S
Cu777  O798    1.958   .     S
Cu777  O794    1.963   .     S
Cu778  O799    1.963   .     S
Cu778  O795    1.958   .     S
Cu778  N790    2.049   .     S
Cu778  O797    1.958   .     S
Cu778  O793    1.964   .     S
H780   C931    1.087   .     S
H787   C667    1.083   1_655 S
N790   H673    1.029   1_655 S
N790   N683    1.269   1_655 S
N791   C800    1.547   .     S
C800   C801    1.450   .     A
C801   H806    1.040   .     S
C801   C802    1.402   .     A
C802   H807    1.085   .     S
C803   H808    1.082   .     S
C803   C804    1.367   .     A
C803   C694    1.367   1_655 S
C804   C805    1.405   .     A
C804   H809    1.086   .     S
C805   H810    1.025   .     S
C805   C692    1.447   1_655 S
C811   C821    1.442   .     S
C811   O847    1.309   .     A
C811   O846    1.299   .     A
C812   C813    1.420   .     A
C812   C328    1.424   1_556 S
C812   C344    1.418   1_556 S
C813   C820    1.421   .     A
C813   C817    1.413   .     A
C814   C818    1.401   .     A
C814   C815    1.420   .     A
C815   C826    1.403   .     A
C816   H836    1.084   .     S
C816   C817    1.387   .     A
C816   C329    1.391   1_556 S
C817   H842    1.079   .     S
C818   H838    1.074   .     S
C818   C827    1.395   .     A
C819   C827    1.399   .     A
C819   C826    1.392   .     A
C819   H833    1.083   .     S
C820   C822    1.475   .     S
C820   C828    1.404   .     A
C821   C499    1.343   1_565 S
C821   H519    1.087   1_565 S
C822   O849    1.312   .     A
C822   O848    1.312   .     A
C823   C824    1.442   .     S
C824   O851    1.301   .     A
C824   O850    1.309   .     A
C825   O852    1.309   .     A
C825   O853    1.310   .     A
C825   C827    1.461   .     S
C826   H891    1.084   .     S
C828   H839    1.083   .     S
C828   C829    1.386   .     A
C829   C344    1.389   1_556 S
C829   H949    1.083   1_455 S
C830   H840    1.077   .     S
Cu831  N845    2.049   .     S
Cu831  Cu832   2.727   .     S
Cu831  O850    1.964   .     S
Cu831  O846    1.958   .     S
Cu831  O852    1.958   .     S
Cu831  O848    1.963   .     S
Cu832  O853    1.963   .     S
Cu832  O849    1.958   .     S
Cu832  N844    2.049   .     S
Cu832  O851    1.958   .     S
Cu832  O847    1.964   .     S
H834   C499    1.087   1_565 S
H835   N952    1.029   1_455 S
H837   C934    1.084   1_455 S
H841   C883    1.083   .     S
N844   H889    1.029   .     S
N844   N899    1.269   .     S
N845   C854    1.547   .     S
N845   N952    1.269   1_455 S
C854   C855    1.450   .     A
C854   C967    1.447   1_455 S
C855   H860    1.040   .     S
C855   C856    1.402   .     A
C856   H861    1.085   .     S
C856   C965    1.367   1_455 S
C857   H862    1.082   .     S
C857   C858    1.367   .     A
C857   C910    1.367   .     S
C858   C859    1.405   .     A
C858   H863    1.086   .     S
C859   H864    1.025   .     S
C859   C908    1.447   .     S
C865   C875    1.442   .     S
C865   O901    1.309   .     A
C865   O900    1.299   .     A
C866   C867    1.420   .     A
C866   C382    1.424   1_556 S
C866   C398    1.418   1_556 S
C867   C874    1.421   .     A
C867   C871    1.413   .     A
C868   C872    1.401   .     A
C868   C869    1.420   .     A
C869   C880    1.403   .     A
C870   H890    1.084   .     S
C870   C871    1.387   .     A
C870   C383    1.391   1_556 S
C871   H896    1.079   .     S
C872   H892    1.074   .     S
C872   C881    1.395   .     A
C873   C881    1.399   .     A
C873   C880    1.392   .     A
C873   H887    1.083   .     S
C874   C876    1.475   .     S
C874   C882    1.404   .     A
C875   C553    1.343   1_565 S
C875   H573    1.087   1_565 S
C876   O903    1.312   .     A
C876   O902    1.312   .     A
C877   C878    1.442   .     S
C878   O905    1.301   .     A
C878   O904    1.309   .     A
C879   O906    1.309   .     A
C879   O907    1.310   .     A
C879   C881    1.461   .     S
C880   H945    1.084   .     S
C882   H893    1.083   .     S
C882   C883    1.386   .     A
C883   C398    1.389   1_556 S
C884   H894    1.077   .     S
Cu885  N899    2.049   .     S
Cu885  Cu886   2.727   .     S
Cu885  O904    1.964   .     S
Cu885  O900    1.958   .     S
Cu885  O906    1.958   .     S
Cu885  O902    1.963   .     S
Cu886  O907    1.963   .     S
Cu886  O903    1.958   .     S
Cu886  N898    2.049   .     S
Cu886  O905    1.958   .     S
Cu886  O901    1.964   .     S
H888   C553    1.087   1_565 S
H895   C937    1.083   .     S
N898   H943    1.029   .     S
N898   N953    1.269   .     S
N899   C908    1.547   .     S
C908   C909    1.450   .     A
C909   H914    1.040   .     S
C909   C910    1.402   .     A
C910   H915    1.085   .     S
C911   H916    1.082   .     S
C911   C912    1.367   .     A
C911   C964    1.367   .     S
C912   C913    1.405   .     A
C912   H917    1.086   .     S
C913   H918    1.025   .     S
C913   C962    1.447   .     S
C919   C929    1.442   .     S
C919   O955    1.309   .     A
C919   O954    1.299   .     A
C920   C921    1.420   .     A
C920   C436    1.424   1_556 S
C920   C452    1.418   1_556 S
C921   C928    1.421   .     A
C921   C925    1.413   .     A
C922   C926    1.401   .     A
C922   C923    1.420   .     A
C923   C934    1.403   .     A
C924   H944    1.084   .     S
C924   C925    1.387   .     A
C924   C437    1.391   1_556 S
C925   H950    1.079   .     S
C926   H946    1.074   .     S
C926   C935    1.395   .     A
C927   C935    1.399   .     A
C927   C934    1.392   .     A
C927   H941    1.083   .     S
C928   C930    1.475   .     S
C928   C936    1.404   .     A
C929   C607    1.343   1_565 S
C929   H627    1.087   1_565 S
C930   O957    1.312   .     A
C930   O956    1.312   .     A
C931   C932    1.442   .     S
C932   O959    1.301   .     A
C932   O958    1.309   .     A
C933   O960    1.309   .     A
C933   O961    1.310   .     A
C933   C935    1.461   .     S
C934   H837    1.084   1_655 S
C936   H947    1.083   .     S
C936   C937    1.386   .     A
C937   C452    1.389   1_556 S
C938   H948    1.077   .     S
Cu939  N953    2.049   .     S
Cu939  Cu940   2.727   .     S
Cu939  O958    1.964   .     S
Cu939  O954    1.958   .     S
Cu939  O960    1.958   .     S
Cu939  O956    1.963   .     S
Cu940  O961    1.963   .     S
Cu940  O957    1.958   .     S
Cu940  N952    2.049   .     S
Cu940  O959    1.958   .     S
Cu940  O955    1.964   .     S
H942   C607    1.087   1_565 S
H949   C829    1.083   1_655 S
N952   H835    1.029   1_655 S
N952   N845    1.269   1_655 S
N953   C962    1.547   .     S
C962   C963    1.450   .     A
C963   H968    1.040   .     S
C963   C964    1.402   .     A
C964   H969    1.085   .     S
C965   H970    1.082   .     S
C965   C966    1.367   .     A
C965   C856    1.367   1_655 S
C966   C967    1.405   .     A
C966   H971    1.086   .     S
C967   H972    1.025   .     S
C967   C854    1.447   1_655 S
