data_str_m2_o10_o16_pcu_sym.178
_audit_creation_date              2020-01-03
_audit_creation_method            'Materials Studio'
_symmetry_space_group_name_H-M    'P1'
_symmetry_Int_Tables_number       1
_symmetry_cell_setting            triclinic
loop_
_symmetry_equiv_pos_as_xyz
  x,y,z
_cell_length_a                    22.3080
_cell_length_b                    26.0828
_cell_length_c                    26.7201
_cell_angle_alpha                 94.0008
_cell_angle_beta                  77.3703
_cell_angle_gamma                 103.1343
loop_
_atom_site_label
_atom_site_type_symbol
_atom_site_fract_x
_atom_site_fract_y
_atom_site_fract_z
_atom_site_U_iso_or_equiv
_atom_site_adp_type
_atom_site_occupancy
C1     C     0.18176   0.26673   0.25154   0.00000  Uiso   1.00
C2     C     0.13683   0.17272   0.48935   0.00000  Uiso   1.00
C3     C     0.15370   0.18658   0.43681   0.00000  Uiso   1.00
C4     C     0.18474   0.18507   0.01885   0.00000  Uiso   1.00
C5     C     0.24326   0.21933   0.49894   0.00000  Uiso   1.00
C6     C     0.25494   0.23882   0.44978   0.00000  Uiso   1.00
C7     C     0.21117   0.22247   0.41903   0.00000  Uiso   1.00
C8     C     0.17740   0.16314   0.06687   0.00000  Uiso   1.00
C9     C     0.27755   0.21632   0.07861   0.00000  Uiso   1.00
C10    C     0.11194   0.16530   0.40369   0.00000  Uiso   1.00
C11    C     0.19026   0.32268   0.25230   0.00000  Uiso   1.00
C12    C     0.13311   0.16582   0.34733   0.00000  Uiso   1.00
C13    C     0.14304   0.01065   0.24779   0.00000  Uiso   1.00
C14    C     0.15156   0.06661   0.24851   0.00000  Uiso   1.00
C15    C     0.20059   0.17069   0.15291   0.00000  Uiso   1.00
C16    C     0.28934   0.23422   0.02873   0.00000  Uiso   1.00
C17    C     0.22099   0.18123   0.09802   0.00000  Uiso   1.00
C18    C     0.05043   0.13896   0.42456   0.00000  Uiso   1.00
C19    C     0.03051   0.13240   0.47705   0.00000  Uiso   1.00
C20    C     0.07260   0.14894   0.01013   0.00000  Uiso   1.00
Cu21   Cu    0.10710   0.16105   0.24435   0.00000  Uiso   1.00
Cu22   Cu    0.22623   0.17228   0.25564   0.00000  Uiso   1.00
H23    H     0.31165   0.23098   0.10238   0.00000  Uiso   1.00
H24    H     0.09753   0.32019   0.24354   0.00000  Uiso   1.00
H25    H     0.00359   0.20593   0.28973   0.00000  Uiso   1.00
H26    H     0.32973   0.12740   0.21028   0.00000  Uiso   1.00
H27    H     0.29864   0.26619   0.43463   0.00000  Uiso   1.00
H28    H     0.00037   0.26094   0.01395   0.00000  Uiso   1.00
H29    H     0.13806   0.13170   0.08129   0.00000  Uiso   1.00
H30    H     0.01735   0.12320   0.40016   0.00000  Uiso   1.00
H31    H     0.31506   0.11403   0.49206   0.00000  Uiso   1.00
H32    H     0.22226   0.23995   0.38172   0.00000  Uiso   1.00
H33    H     0.23577   0.01314   0.25657   0.00000  Uiso   1.00
N34    N     0.31574   0.18074   0.26416   0.00000  Uiso   1.00
N35    N     0.01759   0.15259   0.23584   0.00000  Uiso   1.00
O36    O     0.12797   0.23807   0.24633   0.00000  Uiso   1.00
O37    O     0.22858   0.24755   0.25586   0.00000  Uiso   1.00
O38    O     0.09181   0.15960   0.31839   0.00000  Uiso   1.00
O39    O     0.19242   0.16908   0.32793   0.00000  Uiso   1.00
O40    O     0.10476   0.08578   0.24413   0.00000  Uiso   1.00
O41    O     0.20536   0.09526   0.25367   0.00000  Uiso   1.00
O42    O     0.14092   0.16425   0.17207   0.00000  Uiso   1.00
O43    O     0.24152   0.17373   0.18160   0.00000  Uiso   1.00
O44    O     0.05002   0.14654   0.06254   0.00000  Uiso   1.00
H45    H     0.00526   0.12756   0.06997   0.00000  Uiso   1.00
C46    C     0.51509   0.26673   0.25154   0.00000  Uiso   1.00
C47    C     0.47016   0.17272   0.48935   0.00000  Uiso   1.00
C48    C     0.48703   0.18658   0.43681   0.00000  Uiso   1.00
C49    C     0.51808   0.18507   0.01885   0.00000  Uiso   1.00
C50    C     0.57659   0.21933   0.49894   0.00000  Uiso   1.00
C51    C     0.58827   0.23882   0.44978   0.00000  Uiso   1.00
C52    C     0.54451   0.22247   0.41903   0.00000  Uiso   1.00
C53    C     0.51074   0.16314   0.06687   0.00000  Uiso   1.00
C54    C     0.61089   0.21632   0.07861   0.00000  Uiso   1.00
C55    C     0.44528   0.16530   0.40369   0.00000  Uiso   1.00
C56    C     0.52359   0.32268   0.25230   0.00000  Uiso   1.00
C57    C     0.46644   0.16582   0.34733   0.00000  Uiso   1.00
C58    C     0.47638   0.01065   0.24779   0.00000  Uiso   1.00
C59    C     0.48489   0.06661   0.24851   0.00000  Uiso   1.00
C60    C     0.53393   0.17069   0.15291   0.00000  Uiso   1.00
C61    C     0.62267   0.23422   0.02873   0.00000  Uiso   1.00
C62    C     0.55432   0.18123   0.09802   0.00000  Uiso   1.00
C63    C     0.38377   0.13896   0.42456   0.00000  Uiso   1.00
C64    C     0.36384   0.13240   0.47705   0.00000  Uiso   1.00
C65    C     0.40594   0.14894   0.01013   0.00000  Uiso   1.00
Cu66   Cu    0.44043   0.16105   0.24435   0.00000  Uiso   1.00
Cu67   Cu    0.55957   0.17228   0.25564   0.00000  Uiso   1.00
H68    H     0.64498   0.23098   0.10238   0.00000  Uiso   1.00
H69    H     0.43086   0.32019   0.24354   0.00000  Uiso   1.00
H70    H     0.33692   0.20593   0.28973   0.00000  Uiso   1.00
H71    H     0.66307   0.12740   0.21028   0.00000  Uiso   1.00
H72    H     0.63198   0.26619   0.43463   0.00000  Uiso   1.00
H73    H     0.33371   0.26094   0.01395   0.00000  Uiso   1.00
H74    H     0.47139   0.13170   0.08129   0.00000  Uiso   1.00
H75    H     0.35069   0.12320   0.40016   0.00000  Uiso   1.00
H76    H     0.64839   0.11403   0.49206   0.00000  Uiso   1.00
H77    H     0.55559   0.23995   0.38172   0.00000  Uiso   1.00
H78    H     0.56910   0.01314   0.25657   0.00000  Uiso   1.00
N79    N     0.64908   0.18074   0.26416   0.00000  Uiso   1.00
N80    N     0.35092   0.15259   0.23584   0.00000  Uiso   1.00
O81    O     0.46131   0.23807   0.24633   0.00000  Uiso   1.00
O82    O     0.56191   0.24755   0.25586   0.00000  Uiso   1.00
O83    O     0.42515   0.15960   0.31839   0.00000  Uiso   1.00
O84    O     0.52575   0.16908   0.32793   0.00000  Uiso   1.00
O85    O     0.43809   0.08578   0.24413   0.00000  Uiso   1.00
O86    O     0.53869   0.09526   0.25367   0.00000  Uiso   1.00
O87    O     0.47425   0.16425   0.17207   0.00000  Uiso   1.00
O88    O     0.57485   0.17373   0.18160   0.00000  Uiso   1.00
O89    O     0.38335   0.14654   0.06254   0.00000  Uiso   1.00
H90    H     0.33860   0.12756   0.06997   0.00000  Uiso   1.00
C91    C     0.84843   0.26673   0.25154   0.00000  Uiso   1.00
C92    C     0.80349   0.17272   0.48935   0.00000  Uiso   1.00
C93    C     0.82037   0.18658   0.43681   0.00000  Uiso   1.00
C94    C     0.85141   0.18507   0.01885   0.00000  Uiso   1.00
C95    C     0.90993   0.21933   0.49894   0.00000  Uiso   1.00
C96    C     0.92160   0.23882   0.44978   0.00000  Uiso   1.00
C97    C     0.87784   0.22247   0.41903   0.00000  Uiso   1.00
C98    C     0.84407   0.16314   0.06687   0.00000  Uiso   1.00
C99    C     0.94422   0.21632   0.07861   0.00000  Uiso   1.00
C100   C     0.77861   0.16530   0.40369   0.00000  Uiso   1.00
C101   C     0.85693   0.32268   0.25230   0.00000  Uiso   1.00
C102   C     0.79977   0.16582   0.34733   0.00000  Uiso   1.00
C103   C     0.80971   0.01065   0.24779   0.00000  Uiso   1.00
C104   C     0.81822   0.06661   0.24851   0.00000  Uiso   1.00
C105   C     0.86726   0.17069   0.15291   0.00000  Uiso   1.00
C106   C     0.95601   0.23422   0.02873   0.00000  Uiso   1.00
C107   C     0.88765   0.18123   0.09802   0.00000  Uiso   1.00
C108   C     0.71710   0.13896   0.42456   0.00000  Uiso   1.00
C109   C     0.69718   0.13240   0.47705   0.00000  Uiso   1.00
C110   C     0.73927   0.14894   0.01013   0.00000  Uiso   1.00
Cu111  Cu    0.77377   0.16105   0.24435   0.00000  Uiso   1.00
Cu112  Cu    0.89290   0.17228   0.25564   0.00000  Uiso   1.00
H113   H     0.97832   0.23098   0.10238   0.00000  Uiso   1.00
H114   H     0.76420   0.32019   0.24354   0.00000  Uiso   1.00
H115   H     0.67025   0.20593   0.28973   0.00000  Uiso   1.00
H116   H     0.99640   0.12740   0.21028   0.00000  Uiso   1.00
H117   H     0.96531   0.26619   0.43463   0.00000  Uiso   1.00
H118   H     0.66704   0.26094   0.01395   0.00000  Uiso   1.00
H119   H     0.80473   0.13170   0.08129   0.00000  Uiso   1.00
H120   H     0.68402   0.12320   0.40016   0.00000  Uiso   1.00
H121   H     0.98173   0.11403   0.49206   0.00000  Uiso   1.00
H122   H     0.88892   0.23995   0.38172   0.00000  Uiso   1.00
H123   H     0.90243   0.01314   0.25657   0.00000  Uiso   1.00
N124   N     0.98241   0.18074   0.26416   0.00000  Uiso   1.00
N125   N     0.68426   0.15259   0.23584   0.00000  Uiso   1.00
O126   O     0.79464   0.23807   0.24633   0.00000  Uiso   1.00
O127   O     0.89524   0.24755   0.25586   0.00000  Uiso   1.00
O128   O     0.75848   0.15960   0.31839   0.00000  Uiso   1.00
O129   O     0.85908   0.16908   0.32793   0.00000  Uiso   1.00
O130   O     0.77142   0.08578   0.24413   0.00000  Uiso   1.00
O131   O     0.87203   0.09526   0.25367   0.00000  Uiso   1.00
O132   O     0.80758   0.16425   0.17207   0.00000  Uiso   1.00
O133   O     0.90819   0.17373   0.18160   0.00000  Uiso   1.00
O134   O     0.71668   0.14654   0.06254   0.00000  Uiso   1.00
H135   H     0.67193   0.12756   0.06997   0.00000  Uiso   1.00
C136   C     0.18176   0.60006   0.25154   0.00000  Uiso   1.00
C137   C     0.13683   0.50606   0.48935   0.00000  Uiso   1.00
C138   C     0.15370   0.51991   0.43681   0.00000  Uiso   1.00
C139   C     0.18474   0.51840   0.01885   0.00000  Uiso   1.00
C140   C     0.24326   0.55266   0.49894   0.00000  Uiso   1.00
C141   C     0.25494   0.57216   0.44978   0.00000  Uiso   1.00
C142   C     0.21117   0.55580   0.41903   0.00000  Uiso   1.00
C143   C     0.17740   0.49648   0.06687   0.00000  Uiso   1.00
C144   C     0.27755   0.54965   0.07861   0.00000  Uiso   1.00
C145   C     0.11194   0.49864   0.40369   0.00000  Uiso   1.00
C146   C     0.19026   0.65602   0.25230   0.00000  Uiso   1.00
C147   C     0.13311   0.49915   0.34733   0.00000  Uiso   1.00
C148   C     0.14304   0.34398   0.24779   0.00000  Uiso   1.00
C149   C     0.15156   0.39994   0.24851   0.00000  Uiso   1.00
C150   C     0.20059   0.50403   0.15291   0.00000  Uiso   1.00
C151   C     0.28934   0.56755   0.02873   0.00000  Uiso   1.00
C152   C     0.22099   0.51456   0.09802   0.00000  Uiso   1.00
C153   C     0.05043   0.47229   0.42456   0.00000  Uiso   1.00
C154   C     0.03051   0.46573   0.47705   0.00000  Uiso   1.00
C155   C     0.07260   0.48228   0.01013   0.00000  Uiso   1.00
Cu156  Cu    0.10710   0.49439   0.24435   0.00000  Uiso   1.00
Cu157  Cu    0.22623   0.50561   0.25564   0.00000  Uiso   1.00
H158   H     0.31165   0.56431   0.10238   0.00000  Uiso   1.00
H159   H     0.09753   0.65352   0.24354   0.00000  Uiso   1.00
H160   H     0.00359   0.53926   0.28973   0.00000  Uiso   1.00
H161   H     0.32973   0.46074   0.21028   0.00000  Uiso   1.00
H162   H     0.29864   0.59952   0.43463   0.00000  Uiso   1.00
H163   H     0.00037   0.59427   0.01395   0.00000  Uiso   1.00
H164   H     0.13806   0.46503   0.08129   0.00000  Uiso   1.00
H165   H     0.01735   0.45654   0.40016   0.00000  Uiso   1.00
H166   H     0.31506   0.44736   0.49206   0.00000  Uiso   1.00
H167   H     0.22226   0.57328   0.38172   0.00000  Uiso   1.00
H168   H     0.23577   0.34647   0.25657   0.00000  Uiso   1.00
N169   N     0.31574   0.51407   0.26416   0.00000  Uiso   1.00
N170   N     0.01759   0.48593   0.23584   0.00000  Uiso   1.00
O171   O     0.12797   0.57141   0.24633   0.00000  Uiso   1.00
O172   O     0.22858   0.58089   0.25586   0.00000  Uiso   1.00
O173   O     0.09181   0.49293   0.31839   0.00000  Uiso   1.00
O174   O     0.19242   0.50241   0.32793   0.00000  Uiso   1.00
O175   O     0.10476   0.41911   0.24413   0.00000  Uiso   1.00
O176   O     0.20536   0.42859   0.25367   0.00000  Uiso   1.00
O177   O     0.14092   0.49759   0.17207   0.00000  Uiso   1.00
O178   O     0.24152   0.50707   0.18160   0.00000  Uiso   1.00
O179   O     0.05002   0.47987   0.06254   0.00000  Uiso   1.00
H180   H     0.00526   0.46089   0.06997   0.00000  Uiso   1.00
C181   C     0.51509   0.60006   0.25154   0.00000  Uiso   1.00
C182   C     0.47016   0.50606   0.48935   0.00000  Uiso   1.00
C183   C     0.48703   0.51991   0.43681   0.00000  Uiso   1.00
C184   C     0.51808   0.51840   0.01885   0.00000  Uiso   1.00
C185   C     0.57659   0.55266   0.49894   0.00000  Uiso   1.00
C186   C     0.58827   0.57216   0.44978   0.00000  Uiso   1.00
C187   C     0.54451   0.55580   0.41903   0.00000  Uiso   1.00
C188   C     0.51074   0.49648   0.06687   0.00000  Uiso   1.00
C189   C     0.61089   0.54965   0.07861   0.00000  Uiso   1.00
C190   C     0.44528   0.49864   0.40369   0.00000  Uiso   1.00
C191   C     0.52359   0.65602   0.25230   0.00000  Uiso   1.00
C192   C     0.46644   0.49915   0.34733   0.00000  Uiso   1.00
C193   C     0.47638   0.34398   0.24779   0.00000  Uiso   1.00
C194   C     0.48489   0.39994   0.24851   0.00000  Uiso   1.00
C195   C     0.53393   0.50403   0.15291   0.00000  Uiso   1.00
C196   C     0.62267   0.56755   0.02873   0.00000  Uiso   1.00
C197   C     0.55432   0.51456   0.09802   0.00000  Uiso   1.00
C198   C     0.38377   0.47229   0.42456   0.00000  Uiso   1.00
C199   C     0.36384   0.46573   0.47705   0.00000  Uiso   1.00
C200   C     0.40594   0.48228   0.01013   0.00000  Uiso   1.00
Cu201  Cu    0.44043   0.49439   0.24435   0.00000  Uiso   1.00
Cu202  Cu    0.55957   0.50561   0.25564   0.00000  Uiso   1.00
H203   H     0.64498   0.56431   0.10238   0.00000  Uiso   1.00
H204   H     0.43086   0.65352   0.24354   0.00000  Uiso   1.00
H205   H     0.33692   0.53926   0.28973   0.00000  Uiso   1.00
H206   H     0.66307   0.46074   0.21028   0.00000  Uiso   1.00
H207   H     0.63198   0.59952   0.43463   0.00000  Uiso   1.00
H208   H     0.33371   0.59427   0.01395   0.00000  Uiso   1.00
H209   H     0.47139   0.46503   0.08129   0.00000  Uiso   1.00
H210   H     0.35069   0.45654   0.40016   0.00000  Uiso   1.00
H211   H     0.64839   0.44736   0.49206   0.00000  Uiso   1.00
H212   H     0.55559   0.57328   0.38172   0.00000  Uiso   1.00
H213   H     0.56910   0.34647   0.25657   0.00000  Uiso   1.00
N214   N     0.64908   0.51407   0.26416   0.00000  Uiso   1.00
N215   N     0.35092   0.48593   0.23584   0.00000  Uiso   1.00
O216   O     0.46131   0.57141   0.24633   0.00000  Uiso   1.00
O217   O     0.56191   0.58089   0.25586   0.00000  Uiso   1.00
O218   O     0.42515   0.49293   0.31839   0.00000  Uiso   1.00
O219   O     0.52575   0.50241   0.32793   0.00000  Uiso   1.00
O220   O     0.43809   0.41911   0.24413   0.00000  Uiso   1.00
O221   O     0.53869   0.42859   0.25367   0.00000  Uiso   1.00
O222   O     0.47425   0.49759   0.17207   0.00000  Uiso   1.00
O223   O     0.57485   0.50707   0.18160   0.00000  Uiso   1.00
O224   O     0.38335   0.47987   0.06254   0.00000  Uiso   1.00
H225   H     0.33860   0.46089   0.06997   0.00000  Uiso   1.00
C226   C     0.84843   0.60006   0.25154   0.00000  Uiso   1.00
C227   C     0.80349   0.50606   0.48935   0.00000  Uiso   1.00
C228   C     0.82037   0.51991   0.43681   0.00000  Uiso   1.00
C229   C     0.85141   0.51840   0.01885   0.00000  Uiso   1.00
C230   C     0.90993   0.55266   0.49894   0.00000  Uiso   1.00
C231   C     0.92160   0.57216   0.44978   0.00000  Uiso   1.00
C232   C     0.87784   0.55580   0.41903   0.00000  Uiso   1.00
C233   C     0.84407   0.49648   0.06687   0.00000  Uiso   1.00
C234   C     0.94422   0.54965   0.07861   0.00000  Uiso   1.00
C235   C     0.77861   0.49864   0.40369   0.00000  Uiso   1.00
C236   C     0.85693   0.65602   0.25230   0.00000  Uiso   1.00
C237   C     0.79977   0.49915   0.34733   0.00000  Uiso   1.00
C238   C     0.80971   0.34398   0.24779   0.00000  Uiso   1.00
C239   C     0.81822   0.39994   0.24851   0.00000  Uiso   1.00
C240   C     0.86726   0.50403   0.15291   0.00000  Uiso   1.00
C241   C     0.95601   0.56755   0.02873   0.00000  Uiso   1.00
C242   C     0.88765   0.51456   0.09802   0.00000  Uiso   1.00
C243   C     0.71710   0.47229   0.42456   0.00000  Uiso   1.00
C244   C     0.69718   0.46573   0.47705   0.00000  Uiso   1.00
C245   C     0.73927   0.48228   0.01013   0.00000  Uiso   1.00
Cu246  Cu    0.77377   0.49439   0.24435   0.00000  Uiso   1.00
Cu247  Cu    0.89290   0.50561   0.25564   0.00000  Uiso   1.00
H248   H     0.97832   0.56431   0.10238   0.00000  Uiso   1.00
H249   H     0.76420   0.65352   0.24354   0.00000  Uiso   1.00
H250   H     0.67025   0.53926   0.28973   0.00000  Uiso   1.00
H251   H     0.99640   0.46074   0.21028   0.00000  Uiso   1.00
H252   H     0.96531   0.59952   0.43463   0.00000  Uiso   1.00
H253   H     0.66704   0.59427   0.01395   0.00000  Uiso   1.00
H254   H     0.80473   0.46503   0.08129   0.00000  Uiso   1.00
H255   H     0.68402   0.45654   0.40016   0.00000  Uiso   1.00
H256   H     0.98173   0.44736   0.49206   0.00000  Uiso   1.00
H257   H     0.88892   0.57328   0.38172   0.00000  Uiso   1.00
H258   H     0.90243   0.34647   0.25657   0.00000  Uiso   1.00
N259   N     0.98241   0.51407   0.26416   0.00000  Uiso   1.00
N260   N     0.68426   0.48593   0.23584   0.00000  Uiso   1.00
O261   O     0.79464   0.57141   0.24633   0.00000  Uiso   1.00
O262   O     0.89524   0.58089   0.25586   0.00000  Uiso   1.00
O263   O     0.75848   0.49293   0.31839   0.00000  Uiso   1.00
O264   O     0.85908   0.50241   0.32793   0.00000  Uiso   1.00
O265   O     0.77142   0.41911   0.24413   0.00000  Uiso   1.00
O266   O     0.87203   0.42859   0.25367   0.00000  Uiso   1.00
O267   O     0.80758   0.49759   0.17207   0.00000  Uiso   1.00
O268   O     0.90819   0.50707   0.18160   0.00000  Uiso   1.00
O269   O     0.71668   0.47987   0.06254   0.00000  Uiso   1.00
H270   H     0.67193   0.46089   0.06997   0.00000  Uiso   1.00
C271   C     0.18176   0.93339   0.25154   0.00000  Uiso   1.00
C272   C     0.13683   0.83939   0.48935   0.00000  Uiso   1.00
C273   C     0.15370   0.85324   0.43681   0.00000  Uiso   1.00
C274   C     0.18474   0.85173   0.01885   0.00000  Uiso   1.00
C275   C     0.24326   0.88599   0.49894   0.00000  Uiso   1.00
C276   C     0.25494   0.90549   0.44978   0.00000  Uiso   1.00
C277   C     0.21117   0.88913   0.41903   0.00000  Uiso   1.00
C278   C     0.17740   0.82981   0.06687   0.00000  Uiso   1.00
C279   C     0.27755   0.88298   0.07861   0.00000  Uiso   1.00
C280   C     0.11194   0.83197   0.40369   0.00000  Uiso   1.00
C281   C     0.19026   0.98935   0.25230   0.00000  Uiso   1.00
C282   C     0.13311   0.83248   0.34733   0.00000  Uiso   1.00
C283   C     0.14304   0.67731   0.24779   0.00000  Uiso   1.00
C284   C     0.15156   0.73327   0.24851   0.00000  Uiso   1.00
C285   C     0.20059   0.83736   0.15291   0.00000  Uiso   1.00
C286   C     0.28934   0.90089   0.02873   0.00000  Uiso   1.00
C287   C     0.22099   0.84789   0.09802   0.00000  Uiso   1.00
C288   C     0.05043   0.80562   0.42456   0.00000  Uiso   1.00
C289   C     0.03051   0.79907   0.47705   0.00000  Uiso   1.00
C290   C     0.07260   0.81561   0.01013   0.00000  Uiso   1.00
Cu291  Cu    0.10710   0.82772   0.24435   0.00000  Uiso   1.00
Cu292  Cu    0.22623   0.83895   0.25564   0.00000  Uiso   1.00
H293   H     0.31165   0.89764   0.10238   0.00000  Uiso   1.00
H294   H     0.09753   0.98686   0.24354   0.00000  Uiso   1.00
H295   H     0.00359   0.87259   0.28973   0.00000  Uiso   1.00
H296   H     0.32973   0.79407   0.21028   0.00000  Uiso   1.00
H297   H     0.29864   0.93286   0.43463   0.00000  Uiso   1.00
H298   H     0.00037   0.92760   0.01395   0.00000  Uiso   1.00
H299   H     0.13806   0.79836   0.08129   0.00000  Uiso   1.00
H300   H     0.01735   0.78987   0.40016   0.00000  Uiso   1.00
H301   H     0.31506   0.78070   0.49206   0.00000  Uiso   1.00
H302   H     0.22226   0.90662   0.38172   0.00000  Uiso   1.00
H303   H     0.23577   0.67980   0.25657   0.00000  Uiso   1.00
N304   N     0.31574   0.84741   0.26416   0.00000  Uiso   1.00
N305   N     0.01759   0.81926   0.23584   0.00000  Uiso   1.00
O306   O     0.12797   0.90474   0.24633   0.00000  Uiso   1.00
O307   O     0.22858   0.91422   0.25586   0.00000  Uiso   1.00
O308   O     0.09181   0.82627   0.31839   0.00000  Uiso   1.00
O309   O     0.19242   0.83575   0.32793   0.00000  Uiso   1.00
O310   O     0.10476   0.75245   0.24413   0.00000  Uiso   1.00
O311   O     0.20536   0.76193   0.25367   0.00000  Uiso   1.00
O312   O     0.14092   0.83092   0.17207   0.00000  Uiso   1.00
O313   O     0.24152   0.84040   0.18160   0.00000  Uiso   1.00
O314   O     0.05002   0.81320   0.06254   0.00000  Uiso   1.00
H315   H     0.00526   0.79422   0.06997   0.00000  Uiso   1.00
C316   C     0.51509   0.93339   0.25154   0.00000  Uiso   1.00
C317   C     0.47016   0.83939   0.48935   0.00000  Uiso   1.00
C318   C     0.48703   0.85324   0.43681   0.00000  Uiso   1.00
C319   C     0.51808   0.85173   0.01885   0.00000  Uiso   1.00
C320   C     0.57659   0.88599   0.49894   0.00000  Uiso   1.00
C321   C     0.58827   0.90549   0.44978   0.00000  Uiso   1.00
C322   C     0.54451   0.88913   0.41903   0.00000  Uiso   1.00
C323   C     0.51074   0.82981   0.06687   0.00000  Uiso   1.00
C324   C     0.61089   0.88298   0.07861   0.00000  Uiso   1.00
C325   C     0.44528   0.83197   0.40369   0.00000  Uiso   1.00
C326   C     0.52359   0.98935   0.25230   0.00000  Uiso   1.00
C327   C     0.46644   0.83248   0.34733   0.00000  Uiso   1.00
C328   C     0.47638   0.67731   0.24779   0.00000  Uiso   1.00
C329   C     0.48489   0.73327   0.24851   0.00000  Uiso   1.00
C330   C     0.53393   0.83736   0.15291   0.00000  Uiso   1.00
C331   C     0.62267   0.90089   0.02873   0.00000  Uiso   1.00
C332   C     0.55432   0.84789   0.09802   0.00000  Uiso   1.00
C333   C     0.38377   0.80562   0.42456   0.00000  Uiso   1.00
C334   C     0.36384   0.79907   0.47705   0.00000  Uiso   1.00
C335   C     0.40594   0.81561   0.01013   0.00000  Uiso   1.00
Cu336  Cu    0.44043   0.82772   0.24435   0.00000  Uiso   1.00
Cu337  Cu    0.55957   0.83895   0.25564   0.00000  Uiso   1.00
H338   H     0.64498   0.89764   0.10238   0.00000  Uiso   1.00
H339   H     0.43086   0.98686   0.24354   0.00000  Uiso   1.00
H340   H     0.33692   0.87259   0.28973   0.00000  Uiso   1.00
H341   H     0.66307   0.79407   0.21028   0.00000  Uiso   1.00
H342   H     0.63198   0.93286   0.43463   0.00000  Uiso   1.00
H343   H     0.33371   0.92760   0.01395   0.00000  Uiso   1.00
H344   H     0.47139   0.79836   0.08129   0.00000  Uiso   1.00
H345   H     0.35069   0.78987   0.40016   0.00000  Uiso   1.00
H346   H     0.64839   0.78070   0.49206   0.00000  Uiso   1.00
H347   H     0.55559   0.90662   0.38172   0.00000  Uiso   1.00
H348   H     0.56910   0.67980   0.25657   0.00000  Uiso   1.00
N349   N     0.64908   0.84741   0.26416   0.00000  Uiso   1.00
N350   N     0.35092   0.81926   0.23584   0.00000  Uiso   1.00
O351   O     0.46131   0.90474   0.24633   0.00000  Uiso   1.00
O352   O     0.56191   0.91422   0.25586   0.00000  Uiso   1.00
O353   O     0.42515   0.82627   0.31839   0.00000  Uiso   1.00
O354   O     0.52575   0.83575   0.32793   0.00000  Uiso   1.00
O355   O     0.43809   0.75245   0.24413   0.00000  Uiso   1.00
O356   O     0.53869   0.76193   0.25367   0.00000  Uiso   1.00
O357   O     0.47425   0.83092   0.17207   0.00000  Uiso   1.00
O358   O     0.57485   0.84040   0.18160   0.00000  Uiso   1.00
O359   O     0.38335   0.81320   0.06254   0.00000  Uiso   1.00
H360   H     0.33860   0.79422   0.06997   0.00000  Uiso   1.00
C361   C     0.84843   0.93339   0.25154   0.00000  Uiso   1.00
C362   C     0.80349   0.83939   0.48935   0.00000  Uiso   1.00
C363   C     0.82037   0.85324   0.43681   0.00000  Uiso   1.00
C364   C     0.85141   0.85173   0.01885   0.00000  Uiso   1.00
C365   C     0.90993   0.88599   0.49894   0.00000  Uiso   1.00
C366   C     0.92160   0.90549   0.44978   0.00000  Uiso   1.00
C367   C     0.87784   0.88913   0.41903   0.00000  Uiso   1.00
C368   C     0.84407   0.82981   0.06687   0.00000  Uiso   1.00
C369   C     0.94422   0.88298   0.07861   0.00000  Uiso   1.00
C370   C     0.77861   0.83197   0.40369   0.00000  Uiso   1.00
C371   C     0.85693   0.98935   0.25230   0.00000  Uiso   1.00
C372   C     0.79977   0.83248   0.34733   0.00000  Uiso   1.00
C373   C     0.80971   0.67731   0.24779   0.00000  Uiso   1.00
C374   C     0.81822   0.73327   0.24851   0.00000  Uiso   1.00
C375   C     0.86726   0.83736   0.15291   0.00000  Uiso   1.00
C376   C     0.95601   0.90089   0.02873   0.00000  Uiso   1.00
C377   C     0.88765   0.84789   0.09802   0.00000  Uiso   1.00
C378   C     0.71710   0.80562   0.42456   0.00000  Uiso   1.00
C379   C     0.69718   0.79907   0.47705   0.00000  Uiso   1.00
C380   C     0.73927   0.81561   0.01013   0.00000  Uiso   1.00
Cu381  Cu    0.77377   0.82772   0.24435   0.00000  Uiso   1.00
Cu382  Cu    0.89290   0.83895   0.25564   0.00000  Uiso   1.00
H383   H     0.97832   0.89764   0.10238   0.00000  Uiso   1.00
H384   H     0.76420   0.98686   0.24354   0.00000  Uiso   1.00
H385   H     0.67025   0.87259   0.28973   0.00000  Uiso   1.00
H386   H     0.99640   0.79407   0.21028   0.00000  Uiso   1.00
H387   H     0.96531   0.93286   0.43463   0.00000  Uiso   1.00
H388   H     0.66704   0.92760   0.01395   0.00000  Uiso   1.00
H389   H     0.80473   0.79836   0.08129   0.00000  Uiso   1.00
H390   H     0.68402   0.78987   0.40016   0.00000  Uiso   1.00
H391   H     0.98173   0.78070   0.49206   0.00000  Uiso   1.00
H392   H     0.88892   0.90662   0.38172   0.00000  Uiso   1.00
H393   H     0.90243   0.67980   0.25657   0.00000  Uiso   1.00
N394   N     0.98241   0.84741   0.26416   0.00000  Uiso   1.00
N395   N     0.68426   0.81926   0.23584   0.00000  Uiso   1.00
O396   O     0.79464   0.90474   0.24633   0.00000  Uiso   1.00
O397   O     0.89524   0.91422   0.25586   0.00000  Uiso   1.00
O398   O     0.75848   0.82627   0.31839   0.00000  Uiso   1.00
O399   O     0.85908   0.83575   0.32793   0.00000  Uiso   1.00
O400   O     0.77142   0.75245   0.24413   0.00000  Uiso   1.00
O401   O     0.87203   0.76193   0.25367   0.00000  Uiso   1.00
O402   O     0.80758   0.83092   0.17207   0.00000  Uiso   1.00
O403   O     0.90819   0.84040   0.18160   0.00000  Uiso   1.00
O404   O     0.71668   0.81320   0.06254   0.00000  Uiso   1.00
H405   H     0.67193   0.79422   0.06997   0.00000  Uiso   1.00
C406   C     0.18176   0.26673   0.75154   0.00000  Uiso   1.00
C407   C     0.13683   0.17272   0.98935   0.00000  Uiso   1.00
C408   C     0.15370   0.18658   0.93681   0.00000  Uiso   1.00
C409   C     0.18474   0.18507   0.51885   0.00000  Uiso   1.00
C410   C     0.24326   0.21933   0.99894   0.00000  Uiso   1.00
C411   C     0.25494   0.23882   0.94978   0.00000  Uiso   1.00
C412   C     0.21117   0.22247   0.91903   0.00000  Uiso   1.00
C413   C     0.17740   0.16314   0.56687   0.00000  Uiso   1.00
C414   C     0.27755   0.21632   0.57861   0.00000  Uiso   1.00
C415   C     0.11194   0.16530   0.90369   0.00000  Uiso   1.00
C416   C     0.19026   0.32268   0.75230   0.00000  Uiso   1.00
C417   C     0.13311   0.16582   0.84733   0.00000  Uiso   1.00
C418   C     0.14304   0.01065   0.74779   0.00000  Uiso   1.00
C419   C     0.15156   0.06661   0.74851   0.00000  Uiso   1.00
C420   C     0.20059   0.17069   0.65291   0.00000  Uiso   1.00
C421   C     0.28934   0.23422   0.52873   0.00000  Uiso   1.00
C422   C     0.22099   0.18123   0.59802   0.00000  Uiso   1.00
C423   C     0.05043   0.13896   0.92456   0.00000  Uiso   1.00
C424   C     0.03051   0.13240   0.97705   0.00000  Uiso   1.00
C425   C     0.07260   0.14894   0.51013   0.00000  Uiso   1.00
Cu426  Cu    0.10710   0.16105   0.74435   0.00000  Uiso   1.00
Cu427  Cu    0.22623   0.17228   0.75564   0.00000  Uiso   1.00
H428   H     0.31165   0.23098   0.60238   0.00000  Uiso   1.00
H429   H     0.09753   0.32019   0.74354   0.00000  Uiso   1.00
H430   H     0.00359   0.20593   0.78973   0.00000  Uiso   1.00
H431   H     0.32973   0.12740   0.71028   0.00000  Uiso   1.00
H432   H     0.29864   0.26619   0.93463   0.00000  Uiso   1.00
H433   H     0.00037   0.26094   0.51395   0.00000  Uiso   1.00
H434   H     0.13806   0.13170   0.58129   0.00000  Uiso   1.00
H435   H     0.01735   0.12320   0.90016   0.00000  Uiso   1.00
H436   H     0.31506   0.11403   0.99206   0.00000  Uiso   1.00
H437   H     0.22226   0.23995   0.88172   0.00000  Uiso   1.00
H438   H     0.23577   0.01314   0.75657   0.00000  Uiso   1.00
N439   N     0.31574   0.18074   0.76416   0.00000  Uiso   1.00
N440   N     0.01759   0.15259   0.73584   0.00000  Uiso   1.00
O441   O     0.12797   0.23807   0.74633   0.00000  Uiso   1.00
O442   O     0.22858   0.24755   0.75586   0.00000  Uiso   1.00
O443   O     0.09181   0.15960   0.81839   0.00000  Uiso   1.00
O444   O     0.19242   0.16908   0.82793   0.00000  Uiso   1.00
O445   O     0.10476   0.08578   0.74413   0.00000  Uiso   1.00
O446   O     0.20536   0.09526   0.75367   0.00000  Uiso   1.00
O447   O     0.14092   0.16425   0.67207   0.00000  Uiso   1.00
O448   O     0.24152   0.17373   0.68160   0.00000  Uiso   1.00
O449   O     0.05002   0.14654   0.56254   0.00000  Uiso   1.00
H450   H     0.00526   0.12756   0.56997   0.00000  Uiso   1.00
C451   C     0.51509   0.26673   0.75154   0.00000  Uiso   1.00
C452   C     0.47016   0.17272   0.98935   0.00000  Uiso   1.00
C453   C     0.48703   0.18658   0.93681   0.00000  Uiso   1.00
C454   C     0.51808   0.18507   0.51885   0.00000  Uiso   1.00
C455   C     0.57659   0.21933   0.99894   0.00000  Uiso   1.00
C456   C     0.58827   0.23882   0.94978   0.00000  Uiso   1.00
C457   C     0.54451   0.22247   0.91903   0.00000  Uiso   1.00
C458   C     0.51074   0.16314   0.56687   0.00000  Uiso   1.00
C459   C     0.61089   0.21632   0.57861   0.00000  Uiso   1.00
C460   C     0.44528   0.16530   0.90369   0.00000  Uiso   1.00
C461   C     0.52359   0.32268   0.75230   0.00000  Uiso   1.00
C462   C     0.46644   0.16582   0.84733   0.00000  Uiso   1.00
C463   C     0.47638   0.01065   0.74779   0.00000  Uiso   1.00
C464   C     0.48489   0.06661   0.74851   0.00000  Uiso   1.00
C465   C     0.53393   0.17069   0.65291   0.00000  Uiso   1.00
C466   C     0.62267   0.23422   0.52873   0.00000  Uiso   1.00
C467   C     0.55432   0.18123   0.59802   0.00000  Uiso   1.00
C468   C     0.38377   0.13896   0.92456   0.00000  Uiso   1.00
C469   C     0.36384   0.13240   0.97705   0.00000  Uiso   1.00
C470   C     0.40594   0.14894   0.51013   0.00000  Uiso   1.00
Cu471  Cu    0.44043   0.16105   0.74435   0.00000  Uiso   1.00
Cu472  Cu    0.55957   0.17228   0.75564   0.00000  Uiso   1.00
H473   H     0.64498   0.23098   0.60238   0.00000  Uiso   1.00
H474   H     0.43086   0.32019   0.74354   0.00000  Uiso   1.00
H475   H     0.33692   0.20593   0.78973   0.00000  Uiso   1.00
H476   H     0.66307   0.12740   0.71028   0.00000  Uiso   1.00
H477   H     0.63198   0.26619   0.93463   0.00000  Uiso   1.00
H478   H     0.33371   0.26094   0.51395   0.00000  Uiso   1.00
H479   H     0.47139   0.13170   0.58129   0.00000  Uiso   1.00
H480   H     0.35069   0.12320   0.90016   0.00000  Uiso   1.00
H481   H     0.64839   0.11403   0.99206   0.00000  Uiso   1.00
H482   H     0.55559   0.23995   0.88172   0.00000  Uiso   1.00
H483   H     0.56910   0.01314   0.75657   0.00000  Uiso   1.00
N484   N     0.64908   0.18074   0.76416   0.00000  Uiso   1.00
N485   N     0.35092   0.15259   0.73584   0.00000  Uiso   1.00
O486   O     0.46131   0.23807   0.74633   0.00000  Uiso   1.00
O487   O     0.56191   0.24755   0.75586   0.00000  Uiso   1.00
O488   O     0.42515   0.15960   0.81839   0.00000  Uiso   1.00
O489   O     0.52575   0.16908   0.82793   0.00000  Uiso   1.00
O490   O     0.43809   0.08578   0.74413   0.00000  Uiso   1.00
O491   O     0.53869   0.09526   0.75367   0.00000  Uiso   1.00
O492   O     0.47425   0.16425   0.67207   0.00000  Uiso   1.00
O493   O     0.57485   0.17373   0.68160   0.00000  Uiso   1.00
O494   O     0.38335   0.14654   0.56254   0.00000  Uiso   1.00
H495   H     0.33860   0.12756   0.56997   0.00000  Uiso   1.00
C496   C     0.84843   0.26673   0.75154   0.00000  Uiso   1.00
C497   C     0.80349   0.17272   0.98935   0.00000  Uiso   1.00
C498   C     0.82037   0.18658   0.93681   0.00000  Uiso   1.00
C499   C     0.85141   0.18507   0.51885   0.00000  Uiso   1.00
C500   C     0.90993   0.21933   0.99894   0.00000  Uiso   1.00
C501   C     0.92160   0.23882   0.94978   0.00000  Uiso   1.00
C502   C     0.87784   0.22247   0.91903   0.00000  Uiso   1.00
C503   C     0.84407   0.16314   0.56687   0.00000  Uiso   1.00
C504   C     0.94422   0.21632   0.57861   0.00000  Uiso   1.00
C505   C     0.77861   0.16530   0.90369   0.00000  Uiso   1.00
C506   C     0.85693   0.32268   0.75230   0.00000  Uiso   1.00
C507   C     0.79977   0.16582   0.84733   0.00000  Uiso   1.00
C508   C     0.80971   0.01065   0.74779   0.00000  Uiso   1.00
C509   C     0.81822   0.06661   0.74851   0.00000  Uiso   1.00
C510   C     0.86726   0.17069   0.65291   0.00000  Uiso   1.00
C511   C     0.95601   0.23422   0.52873   0.00000  Uiso   1.00
C512   C     0.88765   0.18123   0.59802   0.00000  Uiso   1.00
C513   C     0.71710   0.13896   0.92456   0.00000  Uiso   1.00
C514   C     0.69718   0.13240   0.97705   0.00000  Uiso   1.00
C515   C     0.73927   0.14894   0.51013   0.00000  Uiso   1.00
Cu516  Cu    0.77377   0.16105   0.74435   0.00000  Uiso   1.00
Cu517  Cu    0.89290   0.17228   0.75564   0.00000  Uiso   1.00
H518   H     0.97832   0.23098   0.60238   0.00000  Uiso   1.00
H519   H     0.76420   0.32019   0.74354   0.00000  Uiso   1.00
H520   H     0.67025   0.20593   0.78973   0.00000  Uiso   1.00
H521   H     0.99640   0.12740   0.71028   0.00000  Uiso   1.00
H522   H     0.96531   0.26619   0.93463   0.00000  Uiso   1.00
H523   H     0.66704   0.26094   0.51395   0.00000  Uiso   1.00
H524   H     0.80473   0.13170   0.58129   0.00000  Uiso   1.00
H525   H     0.68402   0.12320   0.90016   0.00000  Uiso   1.00
H526   H     0.98173   0.11403   0.99206   0.00000  Uiso   1.00
H527   H     0.88892   0.23995   0.88172   0.00000  Uiso   1.00
H528   H     0.90243   0.01314   0.75657   0.00000  Uiso   1.00
N529   N     0.98241   0.18074   0.76416   0.00000  Uiso   1.00
N530   N     0.68426   0.15259   0.73584   0.00000  Uiso   1.00
O531   O     0.79464   0.23807   0.74633   0.00000  Uiso   1.00
O532   O     0.89524   0.24755   0.75586   0.00000  Uiso   1.00
O533   O     0.75848   0.15960   0.81839   0.00000  Uiso   1.00
O534   O     0.85908   0.16908   0.82793   0.00000  Uiso   1.00
O535   O     0.77142   0.08578   0.74413   0.00000  Uiso   1.00
O536   O     0.87203   0.09526   0.75367   0.00000  Uiso   1.00
O537   O     0.80758   0.16425   0.67207   0.00000  Uiso   1.00
O538   O     0.90819   0.17373   0.68160   0.00000  Uiso   1.00
O539   O     0.71668   0.14654   0.56254   0.00000  Uiso   1.00
H540   H     0.67193   0.12756   0.56997   0.00000  Uiso   1.00
C541   C     0.18176   0.60006   0.75154   0.00000  Uiso   1.00
C542   C     0.13683   0.50606   0.98935   0.00000  Uiso   1.00
C543   C     0.15370   0.51991   0.93681   0.00000  Uiso   1.00
C544   C     0.18474   0.51840   0.51885   0.00000  Uiso   1.00
C545   C     0.24326   0.55266   0.99894   0.00000  Uiso   1.00
C546   C     0.25494   0.57216   0.94978   0.00000  Uiso   1.00
C547   C     0.21117   0.55580   0.91903   0.00000  Uiso   1.00
C548   C     0.17740   0.49648   0.56687   0.00000  Uiso   1.00
C549   C     0.27755   0.54965   0.57861   0.00000  Uiso   1.00
C550   C     0.11194   0.49864   0.90369   0.00000  Uiso   1.00
C551   C     0.19026   0.65602   0.75230   0.00000  Uiso   1.00
C552   C     0.13311   0.49915   0.84733   0.00000  Uiso   1.00
C553   C     0.14304   0.34398   0.74779   0.00000  Uiso   1.00
C554   C     0.15156   0.39994   0.74851   0.00000  Uiso   1.00
C555   C     0.20059   0.50403   0.65291   0.00000  Uiso   1.00
C556   C     0.28934   0.56755   0.52873   0.00000  Uiso   1.00
C557   C     0.22099   0.51456   0.59802   0.00000  Uiso   1.00
C558   C     0.05043   0.47229   0.92456   0.00000  Uiso   1.00
C559   C     0.03051   0.46573   0.97705   0.00000  Uiso   1.00
C560   C     0.07260   0.48228   0.51013   0.00000  Uiso   1.00
Cu561  Cu    0.10710   0.49439   0.74435   0.00000  Uiso   1.00
Cu562  Cu    0.22623   0.50561   0.75564   0.00000  Uiso   1.00
H563   H     0.31165   0.56431   0.60238   0.00000  Uiso   1.00
H564   H     0.09753   0.65352   0.74354   0.00000  Uiso   1.00
H565   H     0.00359   0.53926   0.78973   0.00000  Uiso   1.00
H566   H     0.32973   0.46074   0.71028   0.00000  Uiso   1.00
H567   H     0.29864   0.59952   0.93463   0.00000  Uiso   1.00
H568   H     0.00037   0.59427   0.51395   0.00000  Uiso   1.00
H569   H     0.13806   0.46503   0.58129   0.00000  Uiso   1.00
H570   H     0.01735   0.45654   0.90016   0.00000  Uiso   1.00
H571   H     0.31506   0.44736   0.99206   0.00000  Uiso   1.00
H572   H     0.22226   0.57328   0.88172   0.00000  Uiso   1.00
H573   H     0.23577   0.34647   0.75657   0.00000  Uiso   1.00
N574   N     0.31574   0.51407   0.76416   0.00000  Uiso   1.00
N575   N     0.01759   0.48593   0.73584   0.00000  Uiso   1.00
O576   O     0.12797   0.57141   0.74633   0.00000  Uiso   1.00
O577   O     0.22858   0.58089   0.75586   0.00000  Uiso   1.00
O578   O     0.09181   0.49293   0.81839   0.00000  Uiso   1.00
O579   O     0.19242   0.50241   0.82793   0.00000  Uiso   1.00
O580   O     0.10476   0.41911   0.74413   0.00000  Uiso   1.00
O581   O     0.20536   0.42859   0.75367   0.00000  Uiso   1.00
O582   O     0.14092   0.49759   0.67207   0.00000  Uiso   1.00
O583   O     0.24152   0.50707   0.68160   0.00000  Uiso   1.00
O584   O     0.05002   0.47987   0.56254   0.00000  Uiso   1.00
H585   H     0.00526   0.46089   0.56997   0.00000  Uiso   1.00
C586   C     0.51509   0.60006   0.75154   0.00000  Uiso   1.00
C587   C     0.47016   0.50606   0.98935   0.00000  Uiso   1.00
C588   C     0.48703   0.51991   0.93681   0.00000  Uiso   1.00
C589   C     0.51808   0.51840   0.51885   0.00000  Uiso   1.00
C590   C     0.57659   0.55266   0.99894   0.00000  Uiso   1.00
C591   C     0.58827   0.57216   0.94978   0.00000  Uiso   1.00
C592   C     0.54451   0.55580   0.91903   0.00000  Uiso   1.00
C593   C     0.51074   0.49648   0.56687   0.00000  Uiso   1.00
C594   C     0.61089   0.54965   0.57861   0.00000  Uiso   1.00
C595   C     0.44528   0.49864   0.90369   0.00000  Uiso   1.00
C596   C     0.52359   0.65602   0.75230   0.00000  Uiso   1.00
C597   C     0.46644   0.49915   0.84733   0.00000  Uiso   1.00
C598   C     0.47638   0.34398   0.74779   0.00000  Uiso   1.00
C599   C     0.48489   0.39994   0.74851   0.00000  Uiso   1.00
C600   C     0.53393   0.50403   0.65291   0.00000  Uiso   1.00
C601   C     0.62267   0.56755   0.52873   0.00000  Uiso   1.00
C602   C     0.55432   0.51456   0.59802   0.00000  Uiso   1.00
C603   C     0.38377   0.47229   0.92456   0.00000  Uiso   1.00
C604   C     0.36384   0.46573   0.97705   0.00000  Uiso   1.00
C605   C     0.40594   0.48228   0.51013   0.00000  Uiso   1.00
Cu606  Cu    0.44043   0.49439   0.74435   0.00000  Uiso   1.00
Cu607  Cu    0.55957   0.50561   0.75564   0.00000  Uiso   1.00
H608   H     0.64498   0.56431   0.60238   0.00000  Uiso   1.00
H609   H     0.43086   0.65352   0.74354   0.00000  Uiso   1.00
H610   H     0.33692   0.53926   0.78973   0.00000  Uiso   1.00
H611   H     0.66307   0.46074   0.71028   0.00000  Uiso   1.00
H612   H     0.63198   0.59952   0.93463   0.00000  Uiso   1.00
H613   H     0.33371   0.59427   0.51395   0.00000  Uiso   1.00
H614   H     0.47139   0.46503   0.58129   0.00000  Uiso   1.00
H615   H     0.35069   0.45654   0.90016   0.00000  Uiso   1.00
H616   H     0.64839   0.44736   0.99206   0.00000  Uiso   1.00
H617   H     0.55559   0.57328   0.88172   0.00000  Uiso   1.00
H618   H     0.56910   0.34647   0.75657   0.00000  Uiso   1.00
N619   N     0.64908   0.51407   0.76416   0.00000  Uiso   1.00
N620   N     0.35092   0.48593   0.73584   0.00000  Uiso   1.00
O621   O     0.46131   0.57141   0.74633   0.00000  Uiso   1.00
O622   O     0.56191   0.58089   0.75586   0.00000  Uiso   1.00
O623   O     0.42515   0.49293   0.81839   0.00000  Uiso   1.00
O624   O     0.52575   0.50241   0.82793   0.00000  Uiso   1.00
O625   O     0.43809   0.41911   0.74413   0.00000  Uiso   1.00
O626   O     0.53869   0.42859   0.75367   0.00000  Uiso   1.00
O627   O     0.47425   0.49759   0.67207   0.00000  Uiso   1.00
O628   O     0.57485   0.50707   0.68160   0.00000  Uiso   1.00
O629   O     0.38335   0.47987   0.56254   0.00000  Uiso   1.00
H630   H     0.33860   0.46089   0.56997   0.00000  Uiso   1.00
C631   C     0.84843   0.60006   0.75154   0.00000  Uiso   1.00
C632   C     0.80349   0.50606   0.98935   0.00000  Uiso   1.00
C633   C     0.82037   0.51991   0.93681   0.00000  Uiso   1.00
C634   C     0.85141   0.51840   0.51885   0.00000  Uiso   1.00
C635   C     0.90993   0.55266   0.99894   0.00000  Uiso   1.00
C636   C     0.92160   0.57216   0.94978   0.00000  Uiso   1.00
C637   C     0.87784   0.55580   0.91903   0.00000  Uiso   1.00
C638   C     0.84407   0.49648   0.56687   0.00000  Uiso   1.00
C639   C     0.94422   0.54965   0.57861   0.00000  Uiso   1.00
C640   C     0.77861   0.49864   0.90369   0.00000  Uiso   1.00
C641   C     0.85693   0.65602   0.75230   0.00000  Uiso   1.00
C642   C     0.79977   0.49915   0.84733   0.00000  Uiso   1.00
C643   C     0.80971   0.34398   0.74779   0.00000  Uiso   1.00
C644   C     0.81822   0.39994   0.74851   0.00000  Uiso   1.00
C645   C     0.86726   0.50403   0.65291   0.00000  Uiso   1.00
C646   C     0.95601   0.56755   0.52873   0.00000  Uiso   1.00
C647   C     0.88765   0.51456   0.59802   0.00000  Uiso   1.00
C648   C     0.71710   0.47229   0.92456   0.00000  Uiso   1.00
C649   C     0.69718   0.46573   0.97705   0.00000  Uiso   1.00
C650   C     0.73927   0.48228   0.51013   0.00000  Uiso   1.00
Cu651  Cu    0.77377   0.49439   0.74435   0.00000  Uiso   1.00
Cu652  Cu    0.89290   0.50561   0.75564   0.00000  Uiso   1.00
H653   H     0.97832   0.56431   0.60238   0.00000  Uiso   1.00
H654   H     0.76420   0.65352   0.74354   0.00000  Uiso   1.00
H655   H     0.67025   0.53926   0.78973   0.00000  Uiso   1.00
H656   H     0.99640   0.46074   0.71028   0.00000  Uiso   1.00
H657   H     0.96531   0.59952   0.93463   0.00000  Uiso   1.00
H658   H     0.66704   0.59427   0.51395   0.00000  Uiso   1.00
H659   H     0.80473   0.46503   0.58129   0.00000  Uiso   1.00
H660   H     0.68402   0.45654   0.90016   0.00000  Uiso   1.00
H661   H     0.98173   0.44736   0.99206   0.00000  Uiso   1.00
H662   H     0.88892   0.57328   0.88172   0.00000  Uiso   1.00
H663   H     0.90243   0.34647   0.75657   0.00000  Uiso   1.00
N664   N     0.98241   0.51407   0.76416   0.00000  Uiso   1.00
N665   N     0.68426   0.48593   0.73584   0.00000  Uiso   1.00
O666   O     0.79464   0.57141   0.74633   0.00000  Uiso   1.00
O667   O     0.89524   0.58089   0.75586   0.00000  Uiso   1.00
O668   O     0.75848   0.49293   0.81839   0.00000  Uiso   1.00
O669   O     0.85908   0.50241   0.82793   0.00000  Uiso   1.00
O670   O     0.77142   0.41911   0.74413   0.00000  Uiso   1.00
O671   O     0.87203   0.42859   0.75367   0.00000  Uiso   1.00
O672   O     0.80758   0.49759   0.67207   0.00000  Uiso   1.00
O673   O     0.90819   0.50707   0.68160   0.00000  Uiso   1.00
O674   O     0.71668   0.47987   0.56254   0.00000  Uiso   1.00
H675   H     0.67193   0.46089   0.56997   0.00000  Uiso   1.00
C676   C     0.18176   0.93339   0.75154   0.00000  Uiso   1.00
C677   C     0.13683   0.83939   0.98935   0.00000  Uiso   1.00
C678   C     0.15370   0.85324   0.93681   0.00000  Uiso   1.00
C679   C     0.18474   0.85173   0.51885   0.00000  Uiso   1.00
C680   C     0.24326   0.88599   0.99894   0.00000  Uiso   1.00
C681   C     0.25494   0.90549   0.94978   0.00000  Uiso   1.00
C682   C     0.21117   0.88913   0.91903   0.00000  Uiso   1.00
C683   C     0.17740   0.82981   0.56687   0.00000  Uiso   1.00
C684   C     0.27755   0.88298   0.57861   0.00000  Uiso   1.00
C685   C     0.11194   0.83197   0.90369   0.00000  Uiso   1.00
C686   C     0.19026   0.98935   0.75230   0.00000  Uiso   1.00
C687   C     0.13311   0.83248   0.84733   0.00000  Uiso   1.00
C688   C     0.14304   0.67731   0.74779   0.00000  Uiso   1.00
C689   C     0.15156   0.73327   0.74851   0.00000  Uiso   1.00
C690   C     0.20059   0.83736   0.65291   0.00000  Uiso   1.00
C691   C     0.28934   0.90089   0.52873   0.00000  Uiso   1.00
C692   C     0.22099   0.84789   0.59802   0.00000  Uiso   1.00
C693   C     0.05043   0.80562   0.92456   0.00000  Uiso   1.00
C694   C     0.03051   0.79907   0.97705   0.00000  Uiso   1.00
C695   C     0.07260   0.81561   0.51013   0.00000  Uiso   1.00
Cu696  Cu    0.10710   0.82772   0.74435   0.00000  Uiso   1.00
Cu697  Cu    0.22623   0.83895   0.75564   0.00000  Uiso   1.00
H698   H     0.31165   0.89764   0.60238   0.00000  Uiso   1.00
H699   H     0.09753   0.98686   0.74354   0.00000  Uiso   1.00
H700   H     0.00359   0.87259   0.78973   0.00000  Uiso   1.00
H701   H     0.32973   0.79407   0.71028   0.00000  Uiso   1.00
H702   H     0.29864   0.93286   0.93463   0.00000  Uiso   1.00
H703   H     0.00037   0.92760   0.51395   0.00000  Uiso   1.00
H704   H     0.13806   0.79836   0.58129   0.00000  Uiso   1.00
H705   H     0.01735   0.78987   0.90016   0.00000  Uiso   1.00
H706   H     0.31506   0.78070   0.99206   0.00000  Uiso   1.00
H707   H     0.22226   0.90662   0.88172   0.00000  Uiso   1.00
H708   H     0.23577   0.67980   0.75657   0.00000  Uiso   1.00
N709   N     0.31574   0.84741   0.76416   0.00000  Uiso   1.00
N710   N     0.01759   0.81926   0.73584   0.00000  Uiso   1.00
O711   O     0.12797   0.90474   0.74633   0.00000  Uiso   1.00
O712   O     0.22858   0.91422   0.75586   0.00000  Uiso   1.00
O713   O     0.09181   0.82627   0.81839   0.00000  Uiso   1.00
O714   O     0.19242   0.83575   0.82793   0.00000  Uiso   1.00
O715   O     0.10476   0.75245   0.74413   0.00000  Uiso   1.00
O716   O     0.20536   0.76193   0.75367   0.00000  Uiso   1.00
O717   O     0.14092   0.83092   0.67207   0.00000  Uiso   1.00
O718   O     0.24152   0.84040   0.68160   0.00000  Uiso   1.00
O719   O     0.05002   0.81320   0.56254   0.00000  Uiso   1.00
H720   H     0.00526   0.79422   0.56997   0.00000  Uiso   1.00
C721   C     0.51509   0.93339   0.75154   0.00000  Uiso   1.00
C722   C     0.47016   0.83939   0.98935   0.00000  Uiso   1.00
C723   C     0.48703   0.85324   0.93681   0.00000  Uiso   1.00
C724   C     0.51808   0.85173   0.51885   0.00000  Uiso   1.00
C725   C     0.57659   0.88599   0.99894   0.00000  Uiso   1.00
C726   C     0.58827   0.90549   0.94978   0.00000  Uiso   1.00
C727   C     0.54451   0.88913   0.91903   0.00000  Uiso   1.00
C728   C     0.51074   0.82981   0.56687   0.00000  Uiso   1.00
C729   C     0.61089   0.88298   0.57861   0.00000  Uiso   1.00
C730   C     0.44528   0.83197   0.90369   0.00000  Uiso   1.00
C731   C     0.52359   0.98935   0.75230   0.00000  Uiso   1.00
C732   C     0.46644   0.83248   0.84733   0.00000  Uiso   1.00
C733   C     0.47638   0.67731   0.74779   0.00000  Uiso   1.00
C734   C     0.48489   0.73327   0.74851   0.00000  Uiso   1.00
C735   C     0.53393   0.83736   0.65291   0.00000  Uiso   1.00
C736   C     0.62267   0.90089   0.52873   0.00000  Uiso   1.00
C737   C     0.55432   0.84789   0.59802   0.00000  Uiso   1.00
C738   C     0.38377   0.80562   0.92456   0.00000  Uiso   1.00
C739   C     0.36384   0.79907   0.97705   0.00000  Uiso   1.00
C740   C     0.40594   0.81561   0.51013   0.00000  Uiso   1.00
Cu741  Cu    0.44043   0.82772   0.74435   0.00000  Uiso   1.00
Cu742  Cu    0.55957   0.83895   0.75564   0.00000  Uiso   1.00
H743   H     0.64498   0.89764   0.60238   0.00000  Uiso   1.00
H744   H     0.43086   0.98686   0.74354   0.00000  Uiso   1.00
H745   H     0.33692   0.87259   0.78973   0.00000  Uiso   1.00
H746   H     0.66307   0.79407   0.71028   0.00000  Uiso   1.00
H747   H     0.63198   0.93286   0.93463   0.00000  Uiso   1.00
H748   H     0.33371   0.92760   0.51395   0.00000  Uiso   1.00
H749   H     0.47139   0.79836   0.58129   0.00000  Uiso   1.00
H750   H     0.35069   0.78987   0.90016   0.00000  Uiso   1.00
H751   H     0.64839   0.78070   0.99206   0.00000  Uiso   1.00
H752   H     0.55559   0.90662   0.88172   0.00000  Uiso   1.00
H753   H     0.56910   0.67980   0.75657   0.00000  Uiso   1.00
N754   N     0.64908   0.84741   0.76416   0.00000  Uiso   1.00
N755   N     0.35092   0.81926   0.73584   0.00000  Uiso   1.00
O756   O     0.46131   0.90474   0.74633   0.00000  Uiso   1.00
O757   O     0.56191   0.91422   0.75586   0.00000  Uiso   1.00
O758   O     0.42515   0.82627   0.81839   0.00000  Uiso   1.00
O759   O     0.52575   0.83575   0.82793   0.00000  Uiso   1.00
O760   O     0.43809   0.75245   0.74413   0.00000  Uiso   1.00
O761   O     0.53869   0.76193   0.75367   0.00000  Uiso   1.00
O762   O     0.47425   0.83092   0.67207   0.00000  Uiso   1.00
O763   O     0.57485   0.84040   0.68160   0.00000  Uiso   1.00
O764   O     0.38335   0.81320   0.56254   0.00000  Uiso   1.00
H765   H     0.33860   0.79422   0.56997   0.00000  Uiso   1.00
C766   C     0.84843   0.93339   0.75154   0.00000  Uiso   1.00
C767   C     0.80349   0.83939   0.98935   0.00000  Uiso   1.00
C768   C     0.82037   0.85324   0.93681   0.00000  Uiso   1.00
C769   C     0.85141   0.85173   0.51885   0.00000  Uiso   1.00
C770   C     0.90993   0.88599   0.99894   0.00000  Uiso   1.00
C771   C     0.92160   0.90549   0.94978   0.00000  Uiso   1.00
C772   C     0.87784   0.88913   0.91903   0.00000  Uiso   1.00
C773   C     0.84407   0.82981   0.56687   0.00000  Uiso   1.00
C774   C     0.94422   0.88298   0.57861   0.00000  Uiso   1.00
C775   C     0.77861   0.83197   0.90369   0.00000  Uiso   1.00
C776   C     0.85693   0.98935   0.75230   0.00000  Uiso   1.00
C777   C     0.79977   0.83248   0.84733   0.00000  Uiso   1.00
C778   C     0.80971   0.67731   0.74779   0.00000  Uiso   1.00
C779   C     0.81822   0.73327   0.74851   0.00000  Uiso   1.00
C780   C     0.86726   0.83736   0.65291   0.00000  Uiso   1.00
C781   C     0.95601   0.90089   0.52873   0.00000  Uiso   1.00
C782   C     0.88765   0.84789   0.59802   0.00000  Uiso   1.00
C783   C     0.71710   0.80562   0.92456   0.00000  Uiso   1.00
C784   C     0.69718   0.79907   0.97705   0.00000  Uiso   1.00
C785   C     0.73927   0.81561   0.51013   0.00000  Uiso   1.00
Cu786  Cu    0.77377   0.82772   0.74435   0.00000  Uiso   1.00
Cu787  Cu    0.89290   0.83895   0.75564   0.00000  Uiso   1.00
H788   H     0.97832   0.89764   0.60238   0.00000  Uiso   1.00
H789   H     0.76420   0.98686   0.74354   0.00000  Uiso   1.00
H790   H     0.67025   0.87259   0.78973   0.00000  Uiso   1.00
H791   H     0.99640   0.79407   0.71028   0.00000  Uiso   1.00
H792   H     0.96531   0.93286   0.93463   0.00000  Uiso   1.00
H793   H     0.66704   0.92760   0.51395   0.00000  Uiso   1.00
H794   H     0.80473   0.79836   0.58129   0.00000  Uiso   1.00
H795   H     0.68402   0.78987   0.90016   0.00000  Uiso   1.00
H796   H     0.98173   0.78070   0.99206   0.00000  Uiso   1.00
H797   H     0.88892   0.90662   0.88172   0.00000  Uiso   1.00
H798   H     0.90243   0.67980   0.75657   0.00000  Uiso   1.00
N799   N     0.98241   0.84741   0.76416   0.00000  Uiso   1.00
N800   N     0.68426   0.81926   0.73584   0.00000  Uiso   1.00
O801   O     0.79464   0.90474   0.74633   0.00000  Uiso   1.00
O802   O     0.89524   0.91422   0.75586   0.00000  Uiso   1.00
O803   O     0.75848   0.82627   0.81839   0.00000  Uiso   1.00
O804   O     0.85908   0.83575   0.82793   0.00000  Uiso   1.00
O805   O     0.77142   0.75245   0.74413   0.00000  Uiso   1.00
O806   O     0.87203   0.76193   0.75367   0.00000  Uiso   1.00
O807   O     0.80758   0.83092   0.67207   0.00000  Uiso   1.00
O808   O     0.90819   0.84040   0.68160   0.00000  Uiso   1.00
O809   O     0.71668   0.81320   0.56254   0.00000  Uiso   1.00
H810   H     0.67193   0.79422   0.56997   0.00000  Uiso   1.00
loop_
_geom_bond_atom_site_label_1
_geom_bond_atom_site_label_2
_geom_bond_distance
_geom_bond_site_symmetry_2
_ccdc_geom_bond_type
C1     C11     1.428   .     S
C1     O37     1.285   .     A
C1     O36     1.292   .     A
C2     C3      1.422   .     A
C2     C409    1.430   .     S
C2     C425    1.429   .     S
C3     C10     1.420   .     A
C3     C7      1.413   .     A
C4     C8      1.403   .     A
C4     C407    1.430   1_554 S
C4     C410    1.421   1_554 S
C5     C6      1.391   .     A
C5     C409    1.421   .     S
C5     C421    1.405   .     S
C6     C7      1.387   .     A
C6     H27     1.084   .     S
C7     H32     1.080   .     S
C8     C17     1.397   .     A
C8     H29     1.077   .     S
C9     C17     1.398   .     A
C9     C16     1.393   .     A
C9     H23     1.083   .     S
C10    C12     1.476   .     S
C10    C18     1.399   .     A
C11    C148    1.328   .     S
C11    H168    1.088   .     S
C12    O39     1.297   .     A
C12    O38     1.303   .     A
C13    C14     1.428   .     S
C13    C281    1.328   1_545 S
C13    H294    1.088   1_545 S
C14    O41     1.292   .     A
C14    O40     1.286   .     A
C15    O42     1.294   .     A
C15    O43     1.301   .     A
C15    C17     1.463   .     S
C16    C410    1.405   1_554 S
C16    H73     1.084   .     S
C18    H30     1.083   .     S
C18    C19     1.386   .     A
C19    C425    1.405   .     S
C19    H121    1.083   1_455 S
C20    O44     1.381   .     S
C20    C407    1.429   1_554 S
C20    C424    1.405   1_554 S
Cu21   O40     1.952   .     S
Cu21   N35     2.020   .     S
Cu21   O42     1.914   .     S
Cu21   O36     1.956   .     S
Cu21   Cu22    2.688   .     S
Cu21   O38     1.934   .     S
Cu22   N34     2.020   .     S
Cu22   O41     1.956   .     S
Cu22   O39     1.914   .     S
Cu22   O37     1.952   .     S
Cu22   O43     1.934   .     S
H24    C148    1.088   .     S
H25    N124    1.029   1_455 S
H26    N80     1.029   .     S
H28    C106    1.084   1_455 S
H31    C64     1.083   .     S
H33    C281    1.088   1_545 S
N34    H70     1.029   .     S
N34    N80     1.285   .     S
N35    N124    1.285   1_455 S
N35    H116    1.029   1_455 S
O44    H45     0.992   .     S
C46    C56     1.428   .     S
C46    O82     1.285   .     A
C46    O81     1.292   .     A
C47    C48     1.422   .     A
C47    C454    1.430   .     S
C47    C470    1.429   .     S
C48    C55     1.420   .     A
C48    C52     1.413   .     A
C49    C53     1.403   .     A
C49    C452    1.430   1_554 S
C49    C455    1.421   1_554 S
C50    C51     1.391   .     A
C50    C454    1.421   .     S
C50    C466    1.405   .     S
C51    C52     1.387   .     A
C51    H72     1.084   .     S
C52    H77     1.080   .     S
C53    C62     1.397   .     A
C53    H74     1.077   .     S
C54    C62     1.398   .     A
C54    C61     1.393   .     A
C54    H68     1.083   .     S
C55    C57     1.476   .     S
C55    C63     1.399   .     A
C56    C193    1.328   .     S
C56    H213    1.088   .     S
C57    O84     1.297   .     A
C57    O83     1.303   .     A
C58    C59     1.428   .     S
C58    C326    1.328   1_545 S
C58    H339    1.088   1_545 S
C59    O86     1.292   .     A
C59    O85     1.286   .     A
C60    O87     1.294   .     A
C60    O88     1.301   .     A
C60    C62     1.463   .     S
C61    C455    1.405   1_554 S
C61    H118    1.084   .     S
C63    H75     1.083   .     S
C63    C64     1.386   .     A
C64    C470    1.405   .     S
C65    O89     1.381   .     S
C65    C452    1.429   1_554 S
C65    C469    1.405   1_554 S
Cu66   O85     1.952   .     S
Cu66   N80     2.020   .     S
Cu66   O87     1.914   .     S
Cu66   O81     1.956   .     S
Cu66   Cu67    2.688   .     S
Cu66   O83     1.934   .     S
Cu67   N79     2.020   .     S
Cu67   O86     1.956   .     S
Cu67   O84     1.914   .     S
Cu67   O82     1.952   .     S
Cu67   O88     1.934   .     S
H69    C193    1.088   .     S
H71    N125    1.029   .     S
H76    C109    1.083   .     S
H78    C326    1.088   1_545 S
N79    H115    1.029   .     S
N79    N125    1.285   .     S
O89    H90     0.992   .     S
C91    C101    1.428   .     S
C91    O127    1.285   .     A
C91    O126    1.292   .     A
C92    C93     1.422   .     A
C92    C499    1.430   .     S
C92    C515    1.429   .     S
C93    C100    1.420   .     A
C93    C97     1.413   .     A
C94    C98     1.403   .     A
C94    C497    1.430   1_554 S
C94    C500    1.421   1_554 S
C95    C96     1.391   .     A
C95    C499    1.421   .     S
C95    C511    1.405   .     S
C96    C97     1.387   .     A
C96    H117    1.084   .     S
C97    H122    1.080   .     S
C98    C107    1.397   .     A
C98    H119    1.077   .     S
C99    C107    1.398   .     A
C99    C106    1.393   .     A
C99    H113    1.083   .     S
C100   C102    1.476   .     S
C100   C108    1.399   .     A
C101   C238    1.328   .     S
C101   H258    1.088   .     S
C102   O129    1.297   .     A
C102   O128    1.303   .     A
C103   C104    1.428   .     S
C103   C371    1.328   1_545 S
C103   H384    1.088   1_545 S
C104   O131    1.292   .     A
C104   O130    1.286   .     A
C105   O132    1.294   .     A
C105   O133    1.301   .     A
C105   C107    1.463   .     S
C106   C500    1.405   1_554 S
C106   H28     1.084   1_655 S
C108   H120    1.083   .     S
C108   C109    1.386   .     A
C109   C515    1.405   .     S
C110   O134    1.381   .     S
C110   C497    1.429   1_554 S
C110   C514    1.405   1_554 S
Cu111  O130    1.952   .     S
Cu111  N125    2.020   .     S
Cu111  O132    1.914   .     S
Cu111  O126    1.956   .     S
Cu111  Cu112   2.688   .     S
Cu111  O128    1.934   .     S
Cu112  N124    2.020   .     S
Cu112  O131    1.956   .     S
Cu112  O129    1.914   .     S
Cu112  O127    1.952   .     S
Cu112  O133    1.934   .     S
H114   C238    1.088   .     S
H116   N35     1.029   1_655 S
H121   C19     1.083   1_655 S
H123   C371    1.088   1_545 S
N124   H25     1.029   1_655 S
N124   N35     1.285   1_655 S
O134   H135    0.992   .     S
C136   C146    1.428   .     S
C136   O172    1.285   .     A
C136   O171    1.292   .     A
C137   C138    1.422   .     A
C137   C544    1.430   .     S
C137   C560    1.429   .     S
C138   C145    1.420   .     A
C138   C142    1.413   .     A
C139   C143    1.403   .     A
C139   C542    1.430   1_554 S
C139   C545    1.421   1_554 S
C140   C141    1.391   .     A
C140   C544    1.421   .     S
C140   C556    1.405   .     S
C141   C142    1.387   .     A
C141   H162    1.084   .     S
C142   H167    1.080   .     S
C143   C152    1.397   .     A
C143   H164    1.077   .     S
C144   C152    1.398   .     A
C144   C151    1.393   .     A
C144   H158    1.083   .     S
C145   C147    1.476   .     S
C145   C153    1.399   .     A
C146   C283    1.328   .     S
C146   H303    1.088   .     S
C147   O174    1.297   .     A
C147   O173    1.303   .     A
C148   C149    1.428   .     S
C149   O176    1.292   .     A
C149   O175    1.286   .     A
C150   O177    1.294   .     A
C150   O178    1.301   .     A
C150   C152    1.463   .     S
C151   C545    1.405   1_554 S
C151   H208    1.084   .     S
C153   H165    1.083   .     S
C153   C154    1.386   .     A
C154   C560    1.405   .     S
C154   H256    1.083   1_455 S
C155   O179    1.381   .     S
C155   C542    1.429   1_554 S
C155   C559    1.405   1_554 S
Cu156  O175    1.952   .     S
Cu156  N170    2.020   .     S
Cu156  O177    1.914   .     S
Cu156  O171    1.956   .     S
Cu156  Cu157   2.688   .     S
Cu156  O173    1.934   .     S
Cu157  N169    2.020   .     S
Cu157  O176    1.956   .     S
Cu157  O174    1.914   .     S
Cu157  O172    1.952   .     S
Cu157  O178    1.934   .     S
H159   C283    1.088   .     S
H160   N259    1.029   1_455 S
H161   N215    1.029   .     S
H163   C241    1.084   1_455 S
H166   C199    1.083   .     S
N169   H205    1.029   .     S
N169   N215    1.285   .     S
N170   N259    1.285   1_455 S
N170   H251    1.029   1_455 S
O179   H180    0.992   .     S
C181   C191    1.428   .     S
C181   O217    1.285   .     A
C181   O216    1.292   .     A
C182   C183    1.422   .     A
C182   C589    1.430   .     S
C182   C605    1.429   .     S
C183   C190    1.420   .     A
C183   C187    1.413   .     A
C184   C188    1.403   .     A
C184   C587    1.430   1_554 S
C184   C590    1.421   1_554 S
C185   C186    1.391   .     A
C185   C589    1.421   .     S
C185   C601    1.405   .     S
C186   C187    1.387   .     A
C186   H207    1.084   .     S
C187   H212    1.080   .     S
C188   C197    1.397   .     A
C188   H209    1.077   .     S
C189   C197    1.398   .     A
C189   C196    1.393   .     A
C189   H203    1.083   .     S
C190   C192    1.476   .     S
C190   C198    1.399   .     A
C191   C328    1.328   .     S
C191   H348    1.088   .     S
C192   O219    1.297   .     A
C192   O218    1.303   .     A
C193   C194    1.428   .     S
C194   O221    1.292   .     A
C194   O220    1.286   .     A
C195   O222    1.294   .     A
C195   O223    1.301   .     A
C195   C197    1.463   .     S
C196   C590    1.405   1_554 S
C196   H253    1.084   .     S
C198   H210    1.083   .     S
C198   C199    1.386   .     A
C199   C605    1.405   .     S
C200   O224    1.381   .     S
C200   C587    1.429   1_554 S
C200   C604    1.405   1_554 S
Cu201  O220    1.952   .     S
Cu201  N215    2.020   .     S
Cu201  O222    1.914   .     S
Cu201  O216    1.956   .     S
Cu201  Cu202   2.688   .     S
Cu201  O218    1.934   .     S
Cu202  N214    2.020   .     S
Cu202  O221    1.956   .     S
Cu202  O219    1.914   .     S
Cu202  O217    1.952   .     S
Cu202  O223    1.934   .     S
H204   C328    1.088   .     S
H206   N260    1.029   .     S
H211   C244    1.083   .     S
N214   H250    1.029   .     S
N214   N260    1.285   .     S
O224   H225    0.992   .     S
C226   C236    1.428   .     S
C226   O262    1.285   .     A
C226   O261    1.292   .     A
C227   C228    1.422   .     A
C227   C634    1.430   .     S
C227   C650    1.429   .     S
C228   C235    1.420   .     A
C228   C232    1.413   .     A
C229   C233    1.403   .     A
C229   C632    1.430   1_554 S
C229   C635    1.421   1_554 S
C230   C231    1.391   .     A
C230   C634    1.421   .     S
C230   C646    1.405   .     S
C231   C232    1.387   .     A
C231   H252    1.084   .     S
C232   H257    1.080   .     S
C233   C242    1.397   .     A
C233   H254    1.077   .     S
C234   C242    1.398   .     A
C234   C241    1.393   .     A
C234   H248    1.083   .     S
C235   C237    1.476   .     S
C235   C243    1.399   .     A
C236   C373    1.328   .     S
C236   H393    1.088   .     S
C237   O264    1.297   .     A
C237   O263    1.303   .     A
C238   C239    1.428   .     S
C239   O266    1.292   .     A
C239   O265    1.286   .     A
C240   O267    1.294   .     A
C240   O268    1.301   .     A
C240   C242    1.463   .     S
C241   C635    1.405   1_554 S
C241   H163    1.084   1_655 S
C243   H255    1.083   .     S
C243   C244    1.386   .     A
C244   C650    1.405   .     S
C245   O269    1.381   .     S
C245   C632    1.429   1_554 S
C245   C649    1.405   1_554 S
Cu246  O265    1.952   .     S
Cu246  N260    2.020   .     S
Cu246  O267    1.914   .     S
Cu246  O261    1.956   .     S
Cu246  Cu247   2.688   .     S
Cu246  O263    1.934   .     S
Cu247  N259    2.020   .     S
Cu247  O266    1.956   .     S
Cu247  O264    1.914   .     S
Cu247  O262    1.952   .     S
Cu247  O268    1.934   .     S
H249   C373    1.088   .     S
H251   N170    1.029   1_655 S
H256   C154    1.083   1_655 S
N259   H160    1.029   1_655 S
N259   N170    1.285   1_655 S
O269   H270    0.992   .     S
C271   C281    1.428   .     S
C271   O307    1.285   .     A
C271   O306    1.292   .     A
C272   C273    1.422   .     A
C272   C679    1.430   .     S
C272   C695    1.429   .     S
C273   C280    1.420   .     A
C273   C277    1.413   .     A
C274   C278    1.403   .     A
C274   C677    1.430   1_554 S
C274   C680    1.421   1_554 S
C275   C276    1.391   .     A
C275   C679    1.421   .     S
C275   C691    1.405   .     S
C276   C277    1.387   .     A
C276   H297    1.084   .     S
C277   H302    1.080   .     S
C278   C287    1.397   .     A
C278   H299    1.077   .     S
C279   C287    1.398   .     A
C279   C286    1.393   .     A
C279   H293    1.083   .     S
C280   C282    1.476   .     S
C280   C288    1.399   .     A
C281   C13     1.328   1_565 S
C281   H33     1.088   1_565 S
C282   O309    1.297   .     A
C282   O308    1.303   .     A
C283   C284    1.428   .     S
C284   O311    1.292   .     A
C284   O310    1.286   .     A
C285   O312    1.294   .     A
C285   O313    1.301   .     A
C285   C287    1.463   .     S
C286   C680    1.405   1_554 S
C286   H343    1.084   .     S
C288   H300    1.083   .     S
C288   C289    1.386   .     A
C289   C695    1.405   .     S
C289   H391    1.083   1_455 S
C290   O314    1.381   .     S
C290   C677    1.429   1_554 S
C290   C694    1.405   1_554 S
Cu291  O310    1.952   .     S
Cu291  N305    2.020   .     S
Cu291  O312    1.914   .     S
Cu291  O306    1.956   .     S
Cu291  Cu292   2.688   .     S
Cu291  O308    1.934   .     S
Cu292  N304    2.020   .     S
Cu292  O311    1.956   .     S
Cu292  O309    1.914   .     S
Cu292  O307    1.952   .     S
Cu292  O313    1.934   .     S
H294   C13     1.088   1_565 S
H295   N394    1.029   1_455 S
H296   N350    1.029   .     S
H298   C376    1.084   1_455 S
H301   C334    1.083   .     S
N304   H340    1.029   .     S
N304   N350    1.285   .     S
N305   N394    1.285   1_455 S
N305   H386    1.029   1_455 S
O314   H315    0.992   .     S
C316   C326    1.428   .     S
C316   O352    1.285   .     A
C316   O351    1.292   .     A
C317   C318    1.422   .     A
C317   C724    1.430   .     S
C317   C740    1.429   .     S
C318   C325    1.420   .     A
C318   C322    1.413   .     A
C319   C323    1.403   .     A
C319   C722    1.430   1_554 S
C319   C725    1.421   1_554 S
C320   C321    1.391   .     A
C320   C724    1.421   .     S
C320   C736    1.405   .     S
C321   C322    1.387   .     A
C321   H342    1.084   .     S
C322   H347    1.080   .     S
C323   C332    1.397   .     A
C323   H344    1.077   .     S
C324   C332    1.398   .     A
C324   C331    1.393   .     A
C324   H338    1.083   .     S
C325   C327    1.476   .     S
C325   C333    1.399   .     A
C326   C58     1.328   1_565 S
C326   H78     1.088   1_565 S
C327   O354    1.297   .     A
C327   O353    1.303   .     A
C328   C329    1.428   .     S
C329   O356    1.292   .     A
C329   O355    1.286   .     A
C330   O357    1.294   .     A
C330   O358    1.301   .     A
C330   C332    1.463   .     S
C331   C725    1.405   1_554 S
C331   H388    1.084   .     S
C333   H345    1.083   .     S
C333   C334    1.386   .     A
C334   C740    1.405   .     S
C335   O359    1.381   .     S
C335   C722    1.429   1_554 S
C335   C739    1.405   1_554 S
Cu336  O355    1.952   .     S
Cu336  N350    2.020   .     S
Cu336  O357    1.914   .     S
Cu336  O351    1.956   .     S
Cu336  Cu337   2.688   .     S
Cu336  O353    1.934   .     S
Cu337  N349    2.020   .     S
Cu337  O356    1.956   .     S
Cu337  O354    1.914   .     S
Cu337  O352    1.952   .     S
Cu337  O358    1.934   .     S
H339   C58     1.088   1_565 S
H341   N395    1.029   .     S
H346   C379    1.083   .     S
N349   H385    1.029   .     S
N349   N395    1.285   .     S
O359   H360    0.992   .     S
C361   C371    1.428   .     S
C361   O397    1.285   .     A
C361   O396    1.292   .     A
C362   C363    1.422   .     A
C362   C769    1.430   .     S
C362   C785    1.429   .     S
C363   C370    1.420   .     A
C363   C367    1.413   .     A
C364   C368    1.403   .     A
C364   C767    1.430   1_554 S
C364   C770    1.421   1_554 S
C365   C366    1.391   .     A
C365   C769    1.421   .     S
C365   C781    1.405   .     S
C366   C367    1.387   .     A
C366   H387    1.084   .     S
C367   H392    1.080   .     S
C368   C377    1.397   .     A
C368   H389    1.077   .     S
C369   C377    1.398   .     A
C369   C376    1.393   .     A
C369   H383    1.083   .     S
C370   C372    1.476   .     S
C370   C378    1.399   .     A
C371   C103    1.328   1_565 S
C371   H123    1.088   1_565 S
C372   O399    1.297   .     A
C372   O398    1.303   .     A
C373   C374    1.428   .     S
C374   O401    1.292   .     A
C374   O400    1.286   .     A
C375   O402    1.294   .     A
C375   O403    1.301   .     A
C375   C377    1.463   .     S
C376   C770    1.405   1_554 S
C376   H298    1.084   1_655 S
C378   H390    1.083   .     S
C378   C379    1.386   .     A
C379   C785    1.405   .     S
C380   O404    1.381   .     S
C380   C767    1.429   1_554 S
C380   C784    1.405   1_554 S
Cu381  O400    1.952   .     S
Cu381  N395    2.020   .     S
Cu381  O402    1.914   .     S
Cu381  O396    1.956   .     S
Cu381  Cu382   2.688   .     S
Cu381  O398    1.934   .     S
Cu382  N394    2.020   .     S
Cu382  O401    1.956   .     S
Cu382  O399    1.914   .     S
Cu382  O397    1.952   .     S
Cu382  O403    1.934   .     S
H384   C103    1.088   1_565 S
H386   N305    1.029   1_655 S
H391   C289    1.083   1_655 S
N394   H295    1.029   1_655 S
N394   N305    1.285   1_655 S
O404   H405    0.992   .     S
C406   C416    1.428   .     S
C406   O442    1.285   .     A
C406   O441    1.292   .     A
C407   C408    1.422   .     A
C407   C4      1.430   1_556 S
C407   C20     1.429   1_556 S
C408   C415    1.420   .     A
C408   C412    1.413   .     A
C409   C413    1.403   .     A
C410   C411    1.391   .     A
C410   C4      1.421   1_556 S
C410   C16     1.405   1_556 S
C411   C412    1.387   .     A
C411   H432    1.084   .     S
C412   H437    1.080   .     S
C413   C422    1.397   .     A
C413   H434    1.077   .     S
C414   C422    1.398   .     A
C414   C421    1.393   .     A
C414   H428    1.083   .     S
C415   C417    1.476   .     S
C415   C423    1.399   .     A
C416   C553    1.328   .     S
C416   H573    1.088   .     S
C417   O444    1.297   .     A
C417   O443    1.303   .     A
C418   C419    1.428   .     S
C418   C686    1.328   1_545 S
C418   H699    1.088   1_545 S
C419   O446    1.292   .     A
C419   O445    1.286   .     A
C420   O447    1.294   .     A
C420   O448    1.301   .     A
C420   C422    1.463   .     S
C421   H478    1.084   .     S
C423   H435    1.083   .     S
C423   C424    1.386   .     A
C424   C20     1.405   1_556 S
C424   H526    1.083   1_455 S
C425   O449    1.381   .     S
Cu426  O445    1.952   .     S
Cu426  N440    2.020   .     S
Cu426  O447    1.914   .     S
Cu426  O441    1.956   .     S
Cu426  Cu427   2.688   .     S
Cu426  O443    1.934   .     S
Cu427  N439    2.020   .     S
Cu427  O446    1.956   .     S
Cu427  O444    1.914   .     S
Cu427  O442    1.952   .     S
Cu427  O448    1.934   .     S
H429   C553    1.088   .     S
H430   N529    1.029   1_455 S
H431   N485    1.029   .     S
H433   C511    1.084   1_455 S
H436   C469    1.083   .     S
H438   C686    1.088   1_545 S
N439   H475    1.029   .     S
N439   N485    1.285   .     S
N440   N529    1.285   1_455 S
N440   H521    1.029   1_455 S
O449   H450    0.992   .     S
C451   C461    1.428   .     S
C451   O487    1.285   .     A
C451   O486    1.292   .     A
C452   C453    1.422   .     A
C452   C49     1.430   1_556 S
C452   C65     1.429   1_556 S
C453   C460    1.420   .     A
C453   C457    1.413   .     A
C454   C458    1.403   .     A
C455   C456    1.391   .     A
C455   C49     1.421   1_556 S
C455   C61     1.405   1_556 S
C456   C457    1.387   .     A
C456   H477    1.084   .     S
C457   H482    1.080   .     S
C458   C467    1.397   .     A
C458   H479    1.077   .     S
C459   C467    1.398   .     A
C459   C466    1.393   .     A
C459   H473    1.083   .     S
C460   C462    1.476   .     S
C460   C468    1.399   .     A
C461   C598    1.328   .     S
C461   H618    1.088   .     S
C462   O489    1.297   .     A
C462   O488    1.303   .     A
C463   C464    1.428   .     S
C463   C731    1.328   1_545 S
C463   H744    1.088   1_545 S
C464   O491    1.292   .     A
C464   O490    1.286   .     A
C465   O492    1.294   .     A
C465   O493    1.301   .     A
C465   C467    1.463   .     S
C466   H523    1.084   .     S
C468   H480    1.083   .     S
C468   C469    1.386   .     A
C469   C65     1.405   1_556 S
C470   O494    1.381   .     S
Cu471  O490    1.952   .     S
Cu471  N485    2.020   .     S
Cu471  O492    1.914   .     S
Cu471  O486    1.956   .     S
Cu471  Cu472   2.688   .     S
Cu471  O488    1.934   .     S
Cu472  N484    2.020   .     S
Cu472  O491    1.956   .     S
Cu472  O489    1.914   .     S
Cu472  O487    1.952   .     S
Cu472  O493    1.934   .     S
H474   C598    1.088   .     S
H476   N530    1.029   .     S
H481   C514    1.083   .     S
H483   C731    1.088   1_545 S
N484   H520    1.029   .     S
N484   N530    1.285   .     S
O494   H495    0.992   .     S
C496   C506    1.428   .     S
C496   O532    1.285   .     A
C496   O531    1.292   .     A
C497   C498    1.422   .     A
C497   C94     1.430   1_556 S
C497   C110    1.429   1_556 S
C498   C505    1.420   .     A
C498   C502    1.413   .     A
C499   C503    1.403   .     A
C500   C501    1.391   .     A
C500   C94     1.421   1_556 S
C500   C106    1.405   1_556 S
C501   C502    1.387   .     A
C501   H522    1.084   .     S
C502   H527    1.080   .     S
C503   C512    1.397   .     A
C503   H524    1.077   .     S
C504   C512    1.398   .     A
C504   C511    1.393   .     A
C504   H518    1.083   .     S
C505   C507    1.476   .     S
C505   C513    1.399   .     A
C506   C643    1.328   .     S
C506   H663    1.088   .     S
C507   O534    1.297   .     A
C507   O533    1.303   .     A
C508   C509    1.428   .     S
C508   C776    1.328   1_545 S
C508   H789    1.088   1_545 S
C509   O536    1.292   .     A
C509   O535    1.286   .     A
C510   O537    1.294   .     A
C510   O538    1.301   .     A
C510   C512    1.463   .     S
C511   H433    1.084   1_655 S
C513   H525    1.083   .     S
C513   C514    1.386   .     A
C514   C110    1.405   1_556 S
C515   O539    1.381   .     S
Cu516  O535    1.952   .     S
Cu516  N530    2.020   .     S
Cu516  O537    1.914   .     S
Cu516  O531    1.956   .     S
Cu516  Cu517   2.688   .     S
Cu516  O533    1.934   .     S
Cu517  N529    2.020   .     S
Cu517  O536    1.956   .     S
Cu517  O534    1.914   .     S
Cu517  O532    1.952   .     S
Cu517  O538    1.934   .     S
H519   C643    1.088   .     S
H521   N440    1.029   1_655 S
H526   C424    1.083   1_655 S
H528   C776    1.088   1_545 S
N529   H430    1.029   1_655 S
N529   N440    1.285   1_655 S
O539   H540    0.992   .     S
C541   C551    1.428   .     S
C541   O577    1.285   .     A
C541   O576    1.292   .     A
C542   C543    1.422   .     A
C542   C139    1.430   1_556 S
C542   C155    1.429   1_556 S
C543   C550    1.420   .     A
C543   C547    1.413   .     A
C544   C548    1.403   .     A
C545   C546    1.391   .     A
C545   C139    1.421   1_556 S
C545   C151    1.405   1_556 S
C546   C547    1.387   .     A
C546   H567    1.084   .     S
C547   H572    1.080   .     S
C548   C557    1.397   .     A
C548   H569    1.077   .     S
C549   C557    1.398   .     A
C549   C556    1.393   .     A
C549   H563    1.083   .     S
C550   C552    1.476   .     S
C550   C558    1.399   .     A
C551   C688    1.328   .     S
C551   H708    1.088   .     S
C552   O579    1.297   .     A
C552   O578    1.303   .     A
C553   C554    1.428   .     S
C554   O581    1.292   .     A
C554   O580    1.286   .     A
C555   O582    1.294   .     A
C555   O583    1.301   .     A
C555   C557    1.463   .     S
C556   H613    1.084   .     S
C558   H570    1.083   .     S
C558   C559    1.386   .     A
C559   C155    1.405   1_556 S
C559   H661    1.083   1_455 S
C560   O584    1.381   .     S
Cu561  O580    1.952   .     S
Cu561  N575    2.020   .     S
Cu561  O582    1.914   .     S
Cu561  O576    1.956   .     S
Cu561  Cu562   2.688   .     S
Cu561  O578    1.934   .     S
Cu562  N574    2.020   .     S
Cu562  O581    1.956   .     S
Cu562  O579    1.914   .     S
Cu562  O577    1.952   .     S
Cu562  O583    1.934   .     S
H564   C688    1.088   .     S
H565   N664    1.029   1_455 S
H566   N620    1.029   .     S
H568   C646    1.084   1_455 S
H571   C604    1.083   .     S
N574   H610    1.029   .     S
N574   N620    1.285   .     S
N575   N664    1.285   1_455 S
N575   H656    1.029   1_455 S
O584   H585    0.992   .     S
C586   C596    1.428   .     S
C586   O622    1.285   .     A
C586   O621    1.292   .     A
C587   C588    1.422   .     A
C587   C184    1.430   1_556 S
C587   C200    1.429   1_556 S
C588   C595    1.420   .     A
C588   C592    1.413   .     A
C589   C593    1.403   .     A
C590   C591    1.391   .     A
C590   C184    1.421   1_556 S
C590   C196    1.405   1_556 S
C591   C592    1.387   .     A
C591   H612    1.084   .     S
C592   H617    1.080   .     S
C593   C602    1.397   .     A
C593   H614    1.077   .     S
C594   C602    1.398   .     A
C594   C601    1.393   .     A
C594   H608    1.083   .     S
C595   C597    1.476   .     S
C595   C603    1.399   .     A
C596   C733    1.328   .     S
C596   H753    1.088   .     S
C597   O624    1.297   .     A
C597   O623    1.303   .     A
C598   C599    1.428   .     S
C599   O626    1.292   .     A
C599   O625    1.286   .     A
C600   O627    1.294   .     A
C600   O628    1.301   .     A
C600   C602    1.463   .     S
C601   H658    1.084   .     S
C603   H615    1.083   .     S
C603   C604    1.386   .     A
C604   C200    1.405   1_556 S
C605   O629    1.381   .     S
Cu606  O625    1.952   .     S
Cu606  N620    2.020   .     S
Cu606  O627    1.914   .     S
Cu606  O621    1.956   .     S
Cu606  Cu607   2.688   .     S
Cu606  O623    1.934   .     S
Cu607  N619    2.020   .     S
Cu607  O626    1.956   .     S
Cu607  O624    1.914   .     S
Cu607  O622    1.952   .     S
Cu607  O628    1.934   .     S
H609   C733    1.088   .     S
H611   N665    1.029   .     S
H616   C649    1.083   .     S
N619   H655    1.029   .     S
N619   N665    1.285   .     S
O629   H630    0.992   .     S
C631   C641    1.428   .     S
C631   O667    1.285   .     A
C631   O666    1.292   .     A
C632   C633    1.422   .     A
C632   C229    1.430   1_556 S
C632   C245    1.429   1_556 S
C633   C640    1.420   .     A
C633   C637    1.413   .     A
C634   C638    1.403   .     A
C635   C636    1.391   .     A
C635   C229    1.421   1_556 S
C635   C241    1.405   1_556 S
C636   C637    1.387   .     A
C636   H657    1.084   .     S
C637   H662    1.080   .     S
C638   C647    1.397   .     A
C638   H659    1.077   .     S
C639   C647    1.398   .     A
C639   C646    1.393   .     A
C639   H653    1.083   .     S
C640   C642    1.476   .     S
C640   C648    1.399   .     A
C641   C778    1.328   .     S
C641   H798    1.088   .     S
C642   O669    1.297   .     A
C642   O668    1.303   .     A
C643   C644    1.428   .     S
C644   O671    1.292   .     A
C644   O670    1.286   .     A
C645   O672    1.294   .     A
C645   O673    1.301   .     A
C645   C647    1.463   .     S
C646   H568    1.084   1_655 S
C648   H660    1.083   .     S
C648   C649    1.386   .     A
C649   C245    1.405   1_556 S
C650   O674    1.381   .     S
Cu651  O670    1.952   .     S
Cu651  N665    2.020   .     S
Cu651  O672    1.914   .     S
Cu651  O666    1.956   .     S
Cu651  Cu652   2.688   .     S
Cu651  O668    1.934   .     S
Cu652  N664    2.020   .     S
Cu652  O671    1.956   .     S
Cu652  O669    1.914   .     S
Cu652  O667    1.952   .     S
Cu652  O673    1.934   .     S
H654   C778    1.088   .     S
H656   N575    1.029   1_655 S
H661   C559    1.083   1_655 S
N664   H565    1.029   1_655 S
N664   N575    1.285   1_655 S
O674   H675    0.992   .     S
C676   C686    1.428   .     S
C676   O712    1.285   .     A
C676   O711    1.292   .     A
C677   C678    1.422   .     A
C677   C274    1.430   1_556 S
C677   C290    1.429   1_556 S
C678   C685    1.420   .     A
C678   C682    1.413   .     A
C679   C683    1.403   .     A
C680   C681    1.391   .     A
C680   C274    1.421   1_556 S
C680   C286    1.405   1_556 S
C681   C682    1.387   .     A
C681   H702    1.084   .     S
C682   H707    1.080   .     S
C683   C692    1.397   .     A
C683   H704    1.077   .     S
C684   C692    1.398   .     A
C684   C691    1.393   .     A
C684   H698    1.083   .     S
C685   C687    1.476   .     S
C685   C693    1.399   .     A
C686   C418    1.328   1_565 S
C686   H438    1.088   1_565 S
C687   O714    1.297   .     A
C687   O713    1.303   .     A
C688   C689    1.428   .     S
C689   O716    1.292   .     A
C689   O715    1.286   .     A
C690   O717    1.294   .     A
C690   O718    1.301   .     A
C690   C692    1.463   .     S
C691   H748    1.084   .     S
C693   H705    1.083   .     S
C693   C694    1.386   .     A
C694   C290    1.405   1_556 S
C694   H796    1.083   1_455 S
C695   O719    1.381   .     S
Cu696  O715    1.952   .     S
Cu696  N710    2.020   .     S
Cu696  O717    1.914   .     S
Cu696  O711    1.956   .     S
Cu696  Cu697   2.688   .     S
Cu696  O713    1.934   .     S
Cu697  N709    2.020   .     S
Cu697  O716    1.956   .     S
Cu697  O714    1.914   .     S
Cu697  O712    1.952   .     S
Cu697  O718    1.934   .     S
H699   C418    1.088   1_565 S
H700   N799    1.029   1_455 S
H701   N755    1.029   .     S
H703   C781    1.084   1_455 S
H706   C739    1.083   .     S
N709   H745    1.029   .     S
N709   N755    1.285   .     S
N710   N799    1.285   1_455 S
N710   H791    1.029   1_455 S
O719   H720    0.992   .     S
C721   C731    1.428   .     S
C721   O757    1.285   .     A
C721   O756    1.292   .     A
C722   C723    1.422   .     A
C722   C319    1.430   1_556 S
C722   C335    1.429   1_556 S
C723   C730    1.420   .     A
C723   C727    1.413   .     A
C724   C728    1.403   .     A
C725   C726    1.391   .     A
C725   C319    1.421   1_556 S
C725   C331    1.405   1_556 S
C726   C727    1.387   .     A
C726   H747    1.084   .     S
C727   H752    1.080   .     S
C728   C737    1.397   .     A
C728   H749    1.077   .     S
C729   C737    1.398   .     A
C729   C736    1.393   .     A
C729   H743    1.083   .     S
C730   C732    1.476   .     S
C730   C738    1.399   .     A
C731   C463    1.328   1_565 S
C731   H483    1.088   1_565 S
C732   O759    1.297   .     A
C732   O758    1.303   .     A
C733   C734    1.428   .     S
C734   O761    1.292   .     A
C734   O760    1.286   .     A
C735   O762    1.294   .     A
C735   O763    1.301   .     A
C735   C737    1.463   .     S
C736   H793    1.084   .     S
C738   H750    1.083   .     S
C738   C739    1.386   .     A
C739   C335    1.405   1_556 S
C740   O764    1.381   .     S
Cu741  O760    1.952   .     S
Cu741  N755    2.020   .     S
Cu741  O762    1.914   .     S
Cu741  O756    1.956   .     S
Cu741  Cu742   2.688   .     S
Cu741  O758    1.934   .     S
Cu742  N754    2.020   .     S
Cu742  O761    1.956   .     S
Cu742  O759    1.914   .     S
Cu742  O757    1.952   .     S
Cu742  O763    1.934   .     S
H744   C463    1.088   1_565 S
H746   N800    1.029   .     S
H751   C784    1.083   .     S
N754   H790    1.029   .     S
N754   N800    1.285   .     S
O764   H765    0.992   .     S
C766   C776    1.428   .     S
C766   O802    1.285   .     A
C766   O801    1.292   .     A
C767   C768    1.422   .     A
C767   C364    1.430   1_556 S
C767   C380    1.429   1_556 S
C768   C775    1.420   .     A
C768   C772    1.413   .     A
C769   C773    1.403   .     A
C770   C771    1.391   .     A
C770   C364    1.421   1_556 S
C770   C376    1.405   1_556 S
C771   C772    1.387   .     A
C771   H792    1.084   .     S
C772   H797    1.080   .     S
C773   C782    1.397   .     A
C773   H794    1.077   .     S
C774   C782    1.398   .     A
C774   C781    1.393   .     A
C774   H788    1.083   .     S
C775   C777    1.476   .     S
C775   C783    1.399   .     A
C776   C508    1.328   1_565 S
C776   H528    1.088   1_565 S
C777   O804    1.297   .     A
C777   O803    1.303   .     A
C778   C779    1.428   .     S
C779   O806    1.292   .     A
C779   O805    1.286   .     A
C780   O807    1.294   .     A
C780   O808    1.301   .     A
C780   C782    1.463   .     S
C781   H703    1.084   1_655 S
C783   H795    1.083   .     S
C783   C784    1.386   .     A
C784   C380    1.405   1_556 S
C785   O809    1.381   .     S
Cu786  O805    1.952   .     S
Cu786  N800    2.020   .     S
Cu786  O807    1.914   .     S
Cu786  O801    1.956   .     S
Cu786  Cu787   2.688   .     S
Cu786  O803    1.934   .     S
Cu787  N799    2.020   .     S
Cu787  O806    1.956   .     S
Cu787  O804    1.914   .     S
Cu787  O802    1.952   .     S
Cu787  O808    1.934   .     S
H789   C508    1.088   1_565 S
H791   N710    1.029   1_655 S
H796   C694    1.083   1_655 S
N799   H700    1.029   1_655 S
N799   N710    1.285   1_655 S
O809   H810    0.992   .     S
