data_str_m2_o1_o1_pcu_sym.34
_audit_creation_date              2020-01-03
_audit_creation_method            'Materials Studio'
_symmetry_space_group_name_H-M    'P1'
_symmetry_Int_Tables_number       1
_symmetry_cell_setting            triclinic
loop_
_symmetry_equiv_pos_as_xyz
  x,y,z
_cell_length_a                    36.6738
_cell_length_b                    32.4147
_cell_length_c                    31.6298
_cell_angle_alpha                 90.4777
_cell_angle_beta                  89.4269
_cell_angle_gamma                 91.6547
loop_
_atom_site_label
_atom_site_type_symbol
_atom_site_fract_x
_atom_site_fract_y
_atom_site_fract_z
_atom_site_U_iso_or_equiv
_atom_site_adp_type
_atom_site_occupancy
C1     C     0.05989   0.19249   0.16623   0.00000  Uiso   1.00
C2     C     0.49922   0.28520   0.31177   0.00000  Uiso   1.00
C3     C     0.00422   0.28560   0.02551   0.00000  Uiso   1.00
C4     C     0.00184   0.21465   0.30987   0.00000  Uiso   1.00
C5     C     0.24956   0.46466   0.02197   0.00000  Uiso   1.00
C6     C     0.25308   0.03522   0.30856   0.00000  Uiso   1.00
C7     C     0.25026   0.03503   0.02233   0.00000  Uiso   1.00
C8     C     0.24673   0.46455   0.30841   0.00000  Uiso   1.00
C9     C     0.38659   0.15687   0.12325   0.00000  Uiso   1.00
C10    C     0.10918   0.35383   0.20587   0.00000  Uiso   1.00
C11    C     0.11418   0.34348   0.12393   0.00000  Uiso   1.00
C12    C     0.44047   0.30771   0.16616   0.00000  Uiso   1.00
C13    C     0.38901   0.14805   0.20521   0.00000  Uiso   1.00
C14    C     0.11431   0.15160   0.20545   0.00000  Uiso   1.00
C15    C     0.39415   0.35809   0.12300   0.00000  Uiso   1.00
C16    C     0.38699   0.35170   0.20339   0.00000  Uiso   1.00
C17    C     0.10808   0.14066   0.12524   0.00000  Uiso   1.00
C18    C     0.13892   0.38368   0.11788   0.00000  Uiso   1.00
C19    C     0.35912   0.11380   0.20033   0.00000  Uiso   1.00
C20    C     0.36072   0.11814   0.11815   0.00000  Uiso   1.00
C21    C     0.13997   0.38731   0.20083   0.00000  Uiso   1.00
C22    C     0.35868   0.38632   0.20684   0.00000  Uiso   1.00
C23    C     0.43973   0.19416   0.16661   0.00000  Uiso   1.00
C24    C     0.13899   0.10900   0.12847   0.00000  Uiso   1.00
C25    C     0.14201   0.11576   0.20862   0.00000  Uiso   1.00
C26    C     0.36217   0.39012   0.12605   0.00000  Uiso   1.00
C27    C     0.09546   0.33540   0.16578   0.00000  Uiso   1.00
C28    C     0.40396   0.16573   0.16537   0.00000  Uiso   1.00
C29    C     0.40671   0.34023   0.16372   0.00000  Uiso   1.00
C30    C     0.09444   0.16051   0.16531   0.00000  Uiso   1.00
C31    C     0.34329   0.09798   0.15981   0.00000  Uiso   1.00
C32    C     0.15611   0.40313   0.15998   0.00000  Uiso   1.00
C33    C     0.15698   0.09529   0.16843   0.00000  Uiso   1.00
C34    C     0.06009   0.30621   0.16661   0.00000  Uiso   1.00
C35    C     0.34358   0.40501   0.16670   0.00000  Uiso   1.00
C36    C     0.30966   0.44067   0.16657   0.00000  Uiso   1.00
C37    C     0.18978   0.05861   0.16682   0.00000  Uiso   1.00
C38    C     0.19057   0.43984   0.16525   0.00000  Uiso   1.00
C39    C     0.30929   0.06046   0.16518   0.00000  Uiso   1.00
C40    C     0.49792   0.21363   0.02372   0.00000  Uiso   1.00
Cu41   Cu    0.00000   0.25000   0.21355   0.00000  Uiso   1.00
Cu42   Cu    0.00000   0.25000   0.11978   0.00000  Uiso   1.00
Cu43   Cu    0.25000   0.00000   0.21355   0.00000  Uiso   1.00
Cu44   Cu    0.25000   0.00000   0.11978   0.00000  Uiso   1.00
H45    H     0.02688   0.14180   0.10264   0.00000  Uiso   1.00
H46    H     0.09717   0.35835   0.33015   0.00000  Uiso   1.00
H47    H     0.09665   0.25506   0.02972   0.00000  Uiso   1.00
H48    H     0.40015   0.13855   0.31364   0.00000  Uiso   1.00
H49    H     0.11830   0.22063   0.31304   0.00000  Uiso   1.00
H50    H     0.40324   0.32600   0.00537   0.00000  Uiso   1.00
H51    H     0.37511   0.28543   0.30871   0.00000  Uiso   1.00
H52    H     0.11866   0.14393   0.01044   0.00000  Uiso   1.00
H53    H     0.15417   0.46385   0.02684   0.00000  Uiso   1.00
H54    H     0.38949   0.04049   0.24823   0.00000  Uiso   1.00
H55    H     0.34668   0.04135   0.02765   0.00000  Uiso   1.00
H56    H     0.02768   0.35499   0.23390   0.00000  Uiso   1.00
H57    H     0.11301   0.46266   0.24913   0.00000  Uiso   1.00
H58    H     0.34933   0.44391   0.31653   0.00000  Uiso   1.00
H59    H     0.11196   0.03042   0.06646   0.00000  Uiso   1.00
H60    H     0.14971   0.05919   0.31782   0.00000  Uiso   1.00
H61    H     0.38510   0.47082   0.08365   0.00000  Uiso   1.00
H62    H     0.46953   0.35769   0.10276   0.00000  Uiso   1.00
H63    H     0.47478   0.14527   0.22954   0.00000  Uiso   1.00
H64    H     0.25058   0.40801   0.10991   0.00000  Uiso   1.00
H65    H     0.23253   0.09503   0.20495   0.00000  Uiso   1.00
H66    H     0.24891   0.09438   0.11548   0.00000  Uiso   1.00
H67    H     0.23372   0.40234   0.20247   0.00000  Uiso   1.00
H68    H     0.40989   0.23792   0.02523   0.00000  Uiso   1.00
N69    N     0.00000   0.25000   0.28402   0.00000  Uiso   1.00
N70    N     0.00000   0.25000   0.04931   0.00000  Uiso   1.00
N71    N     0.25000   0.00000   0.28402   0.00000  Uiso   1.00
N72    N     0.25000   0.00000   0.04931   0.00000  Uiso   1.00
O73    O     0.04509   0.20491   0.20625   0.00000  Uiso   1.00
O74    O     0.20492   0.04509   0.12709   0.00000  Uiso   1.00
O75    O     0.20492   0.04509   0.20625   0.00000  Uiso   1.00
O76    O     0.29509   0.45491   0.12709   0.00000  Uiso   1.00
O77    O     0.20492   0.45491   0.12709   0.00000  Uiso   1.00
O78    O     0.29509   0.04509   0.20625   0.00000  Uiso   1.00
O79    O     0.29509   0.04509   0.12709   0.00000  Uiso   1.00
O80    O     0.20492   0.45491   0.20625   0.00000  Uiso   1.00
O81    O     0.46256   0.13041   0.04027   0.00000  Uiso   1.00
O82    O     0.02782   0.13776   0.02670   0.00000  Uiso   1.00
O83    O     0.00221   0.15390   0.09847   0.00000  Uiso   1.00
O84    O     0.45492   0.29509   0.12709   0.00000  Uiso   1.00
O85    O     0.48210   0.37206   0.29762   0.00000  Uiso   1.00
O86    O     0.04113   0.34988   0.31069   0.00000  Uiso   1.00
O87    O     0.00715   0.33595   0.24124   0.00000  Uiso   1.00
O88    O     0.04231   0.36500   0.04874   0.00000  Uiso   1.00
O89    O     0.47867   0.36167   0.03326   0.00000  Uiso   1.00
O90    O     0.49502   0.34617   0.10275   0.00000  Uiso   1.00
O91    O     0.02427   0.13082   0.28977   0.00000  Uiso   1.00
O92    O     0.46179   0.14753   0.30401   0.00000  Uiso   1.00
O93    O     0.49523   0.16466   0.23627   0.00000  Uiso   1.00
O94    O     0.22153   0.38344   0.03549   0.00000  Uiso   1.00
O95    O     0.45492   0.29509   0.20625   0.00000  Uiso   1.00
O96    O     0.28443   0.38931   0.04267   0.00000  Uiso   1.00
O97    O     0.24954   0.43057   0.09010   0.00000  Uiso   1.00
O98    O     0.22795   0.11018   0.30410   0.00000  Uiso   1.00
O99    O     0.28744   0.11116   0.29600   0.00000  Uiso   1.00
O100   O     0.25202   0.09698   0.22808   0.00000  Uiso   1.00
O101   O     0.27651   0.11579   0.03341   0.00000  Uiso   1.00
O102   O     0.21430   0.10852   0.04146   0.00000  Uiso   1.00
O103   O     0.25054   0.07332   0.09318   0.00000  Uiso   1.00
O104   O     0.27294   0.39012   0.30392   0.00000  Uiso   1.00
O105   O     0.21250   0.38751   0.29672   0.00000  Uiso   1.00
O106   O     0.04509   0.20491   0.12709   0.00000  Uiso   1.00
O107   O     0.23887   0.40184   0.22914   0.00000  Uiso   1.00
O108   O     0.43821   0.19292   0.06389   0.00000  Uiso   1.00
O109   O     0.38077   0.16841   0.04621   0.00000  Uiso   1.00
O110   O     0.39163   0.23614   0.04942   0.00000  Uiso   1.00
O111   O     0.06445   0.29295   0.27010   0.00000  Uiso   1.00
O112   O     0.12328   0.29493   0.25079   0.00000  Uiso   1.00
O113   O     0.10853   0.33797   0.31073   0.00000  Uiso   1.00
O114   O     0.06809   0.30265   0.06362   0.00000  Uiso   1.00
O115   O     0.13139   0.32258   0.05115   0.00000  Uiso   1.00
O116   O     0.11427   0.25762   0.05409   0.00000  Uiso   1.00
O117   O     0.45492   0.20491   0.12709   0.00000  Uiso   1.00
O118   O     0.43633   0.20357   0.27064   0.00000  Uiso   1.00
O119   O     0.37883   0.21274   0.24909   0.00000  Uiso   1.00
O120   O     0.38853   0.16451   0.30665   0.00000  Uiso   1.00
O121   O     0.06547   0.18435   0.26833   0.00000  Uiso   1.00
O122   O     0.12026   0.16112   0.28033   0.00000  Uiso   1.00
O123   O     0.12231   0.22643   0.28184   0.00000  Uiso   1.00
O124   O     0.44215   0.29972   0.06351   0.00000  Uiso   1.00
O125   O     0.38138   0.29612   0.08173   0.00000  Uiso   1.00
O126   O     0.42128   0.31891   0.02295   0.00000  Uiso   1.00
O127   O     0.43853   0.32846   0.26354   0.00000  Uiso   1.00
O128   O     0.04509   0.29509   0.20625   0.00000  Uiso   1.00
O129   O     0.38573   0.34935   0.28056   0.00000  Uiso   1.00
O130   O     0.38166   0.28102   0.27790   0.00000  Uiso   1.00
O131   O     0.05975   0.18949   0.06250   0.00000  Uiso   1.00
O132   O     0.11507   0.20183   0.09419   0.00000  Uiso   1.00
O133   O     0.11440   0.16859   0.02588   0.00000  Uiso   1.00
O134   O     0.18533   0.42588   0.07023   0.00000  Uiso   1.00
O135   O     0.15180   0.39080   0.01755   0.00000  Uiso   1.00
O136   O     0.13406   0.45480   0.04752   0.00000  Uiso   1.00
O137   O     0.34442   0.12387   0.27257   0.00000  Uiso   1.00
O138   O     0.32320   0.05464   0.26735   0.00000  Uiso   1.00
O139   O     0.04509   0.29509   0.12709   0.00000  Uiso   1.00
O140   O     0.38972   0.06858   0.26055   0.00000  Uiso   1.00
O141   O     0.31357   0.07939   0.07258   0.00000  Uiso   1.00
O142   O     0.34594   0.11421   0.01914   0.00000  Uiso   1.00
O143   O     0.36704   0.05145   0.04692   0.00000  Uiso   1.00
O144   O     0.15375   0.37721   0.27433   0.00000  Uiso   1.00
O145   O     0.17769   0.44513   0.26804   0.00000  Uiso   1.00
O146   O     0.11097   0.43462   0.26110   0.00000  Uiso   1.00
O147   O     0.31069   0.43049   0.26354   0.00000  Uiso   1.00
O148   O     0.33194   0.37345   0.29366   0.00000  Uiso   1.00
O149   O     0.36672   0.43795   0.29223   0.00000  Uiso   1.00
O150   O     0.45492   0.20491   0.20625   0.00000  Uiso   1.00
O151   O     0.15330   0.11614   0.05341   0.00000  Uiso   1.00
O152   O     0.17714   0.05230   0.06602   0.00000  Uiso   1.00
O153   O     0.10757   0.05996   0.06765   0.00000  Uiso   1.00
O154   O     0.18894   0.07090   0.26359   0.00000  Uiso   1.00
O155   O     0.16947   0.12813   0.29418   0.00000  Uiso   1.00
O156   O     0.13262   0.06493   0.29366   0.00000  Uiso   1.00
O157   O     0.35089   0.38378   0.04696   0.00000  Uiso   1.00
O158   O     0.32191   0.44586   0.06531   0.00000  Uiso   1.00
O159   O     0.39161   0.44303   0.06771   0.00000  Uiso   1.00
O160   O     0.29509   0.45491   0.20625   0.00000  Uiso   1.00
S161   S     0.49599   0.15852   0.04659   0.00000  Uiso   1.00
S162   S     0.09461   0.32463   0.26022   0.00000  Uiso   1.00
S163   S     0.10578   0.30142   0.08008   0.00000  Uiso   1.00
S164   S     0.40273   0.17822   0.25859   0.00000  Uiso   1.00
S165   S     0.10364   0.18689   0.25290   0.00000  Uiso   1.00
S166   S     0.41064   0.32677   0.07268   0.00000  Uiso   1.00
S167   S     0.39996   0.32218   0.25130   0.00000  Uiso   1.00
S168   S     0.09405   0.16792   0.07373   0.00000  Uiso   1.00
S169   S     0.14958   0.40997   0.06157   0.00000  Uiso   1.00
S170   S     0.34933   0.08633   0.24817   0.00000  Uiso   1.00
S171   S     0.34920   0.09461   0.06241   0.00000  Uiso   1.00
S172   S     0.00619   0.33589   0.29195   0.00000  Uiso   1.00
S173   S     0.15068   0.41425   0.24919   0.00000  Uiso   1.00
S174   S     0.34208   0.40582   0.26216   0.00000  Uiso   1.00
S175   S     0.14791   0.08115   0.08065   0.00000  Uiso   1.00
S176   S     0.15782   0.09607   0.26317   0.00000  Uiso   1.00
S177   S     0.35224   0.41793   0.07806   0.00000  Uiso   1.00
S178   S     0.00765   0.33839   0.05305   0.00000  Uiso   1.00
S179   S     0.49702   0.16426   0.28666   0.00000  Uiso   1.00
S180   S     0.25144   0.41451   0.04454   0.00000  Uiso   1.00
S181   S     0.25570   0.08605   0.28280   0.00000  Uiso   1.00
S182   S     0.24753   0.08486   0.04531   0.00000  Uiso   1.00
S183   S     0.24417   0.41311   0.28346   0.00000  Uiso   1.00
S184   S     0.39970   0.19349   0.07635   0.00000  Uiso   1.00
C185   C     0.55989   0.19249   0.16623   0.00000  Uiso   1.00
C186   C     0.99922   0.28520   0.31177   0.00000  Uiso   1.00
C187   C     0.50422   0.28560   0.02551   0.00000  Uiso   1.00
C188   C     0.50184   0.21465   0.30987   0.00000  Uiso   1.00
C189   C     0.74956   0.46466   0.02197   0.00000  Uiso   1.00
C190   C     0.75308   0.03522   0.30856   0.00000  Uiso   1.00
C191   C     0.75026   0.03503   0.02233   0.00000  Uiso   1.00
C192   C     0.74673   0.46455   0.30841   0.00000  Uiso   1.00
C193   C     0.88659   0.15687   0.12325   0.00000  Uiso   1.00
C194   C     0.60918   0.35383   0.20587   0.00000  Uiso   1.00
C195   C     0.61418   0.34348   0.12393   0.00000  Uiso   1.00
C196   C     0.94047   0.30771   0.16616   0.00000  Uiso   1.00
C197   C     0.88901   0.14805   0.20521   0.00000  Uiso   1.00
C198   C     0.61431   0.15160   0.20545   0.00000  Uiso   1.00
C199   C     0.89415   0.35809   0.12300   0.00000  Uiso   1.00
C200   C     0.88699   0.35170   0.20339   0.00000  Uiso   1.00
C201   C     0.60808   0.14066   0.12524   0.00000  Uiso   1.00
C202   C     0.63892   0.38368   0.11788   0.00000  Uiso   1.00
C203   C     0.85912   0.11380   0.20033   0.00000  Uiso   1.00
C204   C     0.86072   0.11814   0.11815   0.00000  Uiso   1.00
C205   C     0.63997   0.38731   0.20083   0.00000  Uiso   1.00
C206   C     0.85868   0.38632   0.20684   0.00000  Uiso   1.00
C207   C     0.93973   0.19416   0.16661   0.00000  Uiso   1.00
C208   C     0.63899   0.10900   0.12847   0.00000  Uiso   1.00
C209   C     0.64201   0.11576   0.20862   0.00000  Uiso   1.00
C210   C     0.86217   0.39012   0.12605   0.00000  Uiso   1.00
C211   C     0.59546   0.33540   0.16578   0.00000  Uiso   1.00
C212   C     0.90396   0.16573   0.16537   0.00000  Uiso   1.00
C213   C     0.90671   0.34023   0.16372   0.00000  Uiso   1.00
C214   C     0.59444   0.16051   0.16531   0.00000  Uiso   1.00
C215   C     0.84329   0.09798   0.15981   0.00000  Uiso   1.00
C216   C     0.65611   0.40313   0.15998   0.00000  Uiso   1.00
C217   C     0.65698   0.09529   0.16843   0.00000  Uiso   1.00
C218   C     0.56009   0.30621   0.16661   0.00000  Uiso   1.00
C219   C     0.84358   0.40501   0.16670   0.00000  Uiso   1.00
C220   C     0.80966   0.44067   0.16657   0.00000  Uiso   1.00
C221   C     0.68978   0.05861   0.16682   0.00000  Uiso   1.00
C222   C     0.69057   0.43984   0.16525   0.00000  Uiso   1.00
C223   C     0.80929   0.06046   0.16518   0.00000  Uiso   1.00
C224   C     0.99792   0.21363   0.02372   0.00000  Uiso   1.00
Cu225  Cu    0.50000   0.25000   0.21355   0.00000  Uiso   1.00
Cu226  Cu    0.50000   0.25000   0.11978   0.00000  Uiso   1.00
Cu227  Cu    0.75000   0.00000   0.21355   0.00000  Uiso   1.00
Cu228  Cu    0.75000   0.00000   0.11978   0.00000  Uiso   1.00
H229   H     0.52688   0.14180   0.10264   0.00000  Uiso   1.00
H230   H     0.59717   0.35835   0.33015   0.00000  Uiso   1.00
H231   H     0.59665   0.25506   0.02972   0.00000  Uiso   1.00
H232   H     0.90015   0.13855   0.31364   0.00000  Uiso   1.00
H233   H     0.61830   0.22063   0.31304   0.00000  Uiso   1.00
H234   H     0.90324   0.32600   0.00537   0.00000  Uiso   1.00
H235   H     0.87511   0.28543   0.30871   0.00000  Uiso   1.00
H236   H     0.61866   0.14393   0.01044   0.00000  Uiso   1.00
H237   H     0.65417   0.46385   0.02684   0.00000  Uiso   1.00
H238   H     0.88949   0.04049   0.24823   0.00000  Uiso   1.00
H239   H     0.84668   0.04135   0.02765   0.00000  Uiso   1.00
H240   H     0.52768   0.35499   0.23390   0.00000  Uiso   1.00
H241   H     0.61301   0.46266   0.24913   0.00000  Uiso   1.00
H242   H     0.84933   0.44391   0.31653   0.00000  Uiso   1.00
H243   H     0.61196   0.03042   0.06646   0.00000  Uiso   1.00
H244   H     0.64971   0.05919   0.31782   0.00000  Uiso   1.00
H245   H     0.88510   0.47082   0.08365   0.00000  Uiso   1.00
H246   H     0.96953   0.35769   0.10276   0.00000  Uiso   1.00
H247   H     0.97478   0.14527   0.22954   0.00000  Uiso   1.00
H248   H     0.75058   0.40801   0.10991   0.00000  Uiso   1.00
H249   H     0.73253   0.09503   0.20495   0.00000  Uiso   1.00
H250   H     0.74891   0.09438   0.11548   0.00000  Uiso   1.00
H251   H     0.73372   0.40234   0.20247   0.00000  Uiso   1.00
H252   H     0.90989   0.23792   0.02523   0.00000  Uiso   1.00
N253   N     0.50000   0.25000   0.28402   0.00000  Uiso   1.00
N254   N     0.50000   0.25000   0.04931   0.00000  Uiso   1.00
N255   N     0.75000   0.00000   0.28402   0.00000  Uiso   1.00
N256   N     0.75000   0.00000   0.04931   0.00000  Uiso   1.00
O257   O     0.54509   0.20491   0.20625   0.00000  Uiso   1.00
O258   O     0.70492   0.04509   0.12709   0.00000  Uiso   1.00
O259   O     0.70492   0.04509   0.20625   0.00000  Uiso   1.00
O260   O     0.79509   0.45491   0.12709   0.00000  Uiso   1.00
O261   O     0.70492   0.45491   0.12709   0.00000  Uiso   1.00
O262   O     0.79509   0.04509   0.20625   0.00000  Uiso   1.00
O263   O     0.79509   0.04509   0.12709   0.00000  Uiso   1.00
O264   O     0.70492   0.45491   0.20625   0.00000  Uiso   1.00
O265   O     0.96256   0.13041   0.04027   0.00000  Uiso   1.00
O266   O     0.52782   0.13776   0.02670   0.00000  Uiso   1.00
O267   O     0.50221   0.15390   0.09847   0.00000  Uiso   1.00
O268   O     0.95492   0.29509   0.12709   0.00000  Uiso   1.00
O269   O     0.98210   0.37206   0.29762   0.00000  Uiso   1.00
O270   O     0.54113   0.34988   0.31069   0.00000  Uiso   1.00
O271   O     0.50715   0.33595   0.24124   0.00000  Uiso   1.00
O272   O     0.54231   0.36500   0.04874   0.00000  Uiso   1.00
O273   O     0.97867   0.36167   0.03326   0.00000  Uiso   1.00
O274   O     0.99502   0.34617   0.10275   0.00000  Uiso   1.00
O275   O     0.52427   0.13082   0.28977   0.00000  Uiso   1.00
O276   O     0.96179   0.14753   0.30401   0.00000  Uiso   1.00
O277   O     0.99523   0.16466   0.23627   0.00000  Uiso   1.00
O278   O     0.72153   0.38344   0.03549   0.00000  Uiso   1.00
O279   O     0.95492   0.29509   0.20625   0.00000  Uiso   1.00
O280   O     0.78443   0.38931   0.04267   0.00000  Uiso   1.00
O281   O     0.74954   0.43057   0.09010   0.00000  Uiso   1.00
O282   O     0.72795   0.11018   0.30410   0.00000  Uiso   1.00
O283   O     0.78744   0.11116   0.29600   0.00000  Uiso   1.00
O284   O     0.75202   0.09698   0.22808   0.00000  Uiso   1.00
O285   O     0.77651   0.11579   0.03341   0.00000  Uiso   1.00
O286   O     0.71430   0.10852   0.04146   0.00000  Uiso   1.00
O287   O     0.75054   0.07332   0.09318   0.00000  Uiso   1.00
O288   O     0.77294   0.39012   0.30392   0.00000  Uiso   1.00
O289   O     0.71250   0.38751   0.29672   0.00000  Uiso   1.00
O290   O     0.54509   0.20491   0.12709   0.00000  Uiso   1.00
O291   O     0.73887   0.40184   0.22914   0.00000  Uiso   1.00
O292   O     0.93821   0.19292   0.06389   0.00000  Uiso   1.00
O293   O     0.88077   0.16841   0.04621   0.00000  Uiso   1.00
O294   O     0.89163   0.23614   0.04942   0.00000  Uiso   1.00
O295   O     0.56445   0.29295   0.27010   0.00000  Uiso   1.00
O296   O     0.62328   0.29493   0.25079   0.00000  Uiso   1.00
O297   O     0.60853   0.33797   0.31073   0.00000  Uiso   1.00
O298   O     0.56809   0.30265   0.06362   0.00000  Uiso   1.00
O299   O     0.63139   0.32258   0.05115   0.00000  Uiso   1.00
O300   O     0.61427   0.25762   0.05409   0.00000  Uiso   1.00
O301   O     0.95492   0.20491   0.12709   0.00000  Uiso   1.00
O302   O     0.93633   0.20357   0.27064   0.00000  Uiso   1.00
O303   O     0.87883   0.21274   0.24909   0.00000  Uiso   1.00
O304   O     0.88853   0.16451   0.30665   0.00000  Uiso   1.00
O305   O     0.56547   0.18435   0.26833   0.00000  Uiso   1.00
O306   O     0.62026   0.16112   0.28033   0.00000  Uiso   1.00
O307   O     0.62231   0.22643   0.28184   0.00000  Uiso   1.00
O308   O     0.94215   0.29972   0.06351   0.00000  Uiso   1.00
O309   O     0.88138   0.29612   0.08173   0.00000  Uiso   1.00
O310   O     0.92128   0.31891   0.02295   0.00000  Uiso   1.00
O311   O     0.93853   0.32846   0.26354   0.00000  Uiso   1.00
O312   O     0.54509   0.29509   0.20625   0.00000  Uiso   1.00
O313   O     0.88573   0.34935   0.28056   0.00000  Uiso   1.00
O314   O     0.88166   0.28102   0.27790   0.00000  Uiso   1.00
O315   O     0.55975   0.18949   0.06250   0.00000  Uiso   1.00
O316   O     0.61507   0.20183   0.09419   0.00000  Uiso   1.00
O317   O     0.61440   0.16859   0.02588   0.00000  Uiso   1.00
O318   O     0.68533   0.42588   0.07023   0.00000  Uiso   1.00
O319   O     0.65180   0.39080   0.01755   0.00000  Uiso   1.00
O320   O     0.63406   0.45480   0.04752   0.00000  Uiso   1.00
O321   O     0.84442   0.12387   0.27257   0.00000  Uiso   1.00
O322   O     0.82320   0.05464   0.26735   0.00000  Uiso   1.00
O323   O     0.54509   0.29509   0.12709   0.00000  Uiso   1.00
O324   O     0.88972   0.06858   0.26055   0.00000  Uiso   1.00
O325   O     0.81357   0.07939   0.07258   0.00000  Uiso   1.00
O326   O     0.84594   0.11421   0.01914   0.00000  Uiso   1.00
O327   O     0.86704   0.05145   0.04692   0.00000  Uiso   1.00
O328   O     0.65375   0.37721   0.27433   0.00000  Uiso   1.00
O329   O     0.67769   0.44513   0.26804   0.00000  Uiso   1.00
O330   O     0.61097   0.43462   0.26110   0.00000  Uiso   1.00
O331   O     0.81069   0.43049   0.26354   0.00000  Uiso   1.00
O332   O     0.83194   0.37345   0.29366   0.00000  Uiso   1.00
O333   O     0.86672   0.43795   0.29223   0.00000  Uiso   1.00
O334   O     0.95492   0.20491   0.20625   0.00000  Uiso   1.00
O335   O     0.65330   0.11614   0.05341   0.00000  Uiso   1.00
O336   O     0.67714   0.05230   0.06602   0.00000  Uiso   1.00
O337   O     0.60757   0.05996   0.06765   0.00000  Uiso   1.00
O338   O     0.68894   0.07090   0.26359   0.00000  Uiso   1.00
O339   O     0.66947   0.12813   0.29418   0.00000  Uiso   1.00
O340   O     0.63262   0.06493   0.29366   0.00000  Uiso   1.00
O341   O     0.85089   0.38378   0.04696   0.00000  Uiso   1.00
O342   O     0.82191   0.44586   0.06531   0.00000  Uiso   1.00
O343   O     0.89161   0.44303   0.06771   0.00000  Uiso   1.00
O344   O     0.79509   0.45491   0.20625   0.00000  Uiso   1.00
S345   S     0.99599   0.15852   0.04659   0.00000  Uiso   1.00
S346   S     0.59461   0.32463   0.26022   0.00000  Uiso   1.00
S347   S     0.60578   0.30142   0.08008   0.00000  Uiso   1.00
S348   S     0.90273   0.17822   0.25859   0.00000  Uiso   1.00
S349   S     0.60364   0.18689   0.25290   0.00000  Uiso   1.00
S350   S     0.91064   0.32677   0.07268   0.00000  Uiso   1.00
S351   S     0.89996   0.32218   0.25130   0.00000  Uiso   1.00
S352   S     0.59405   0.16792   0.07373   0.00000  Uiso   1.00
S353   S     0.64958   0.40997   0.06157   0.00000  Uiso   1.00
S354   S     0.84933   0.08633   0.24817   0.00000  Uiso   1.00
S355   S     0.84920   0.09461   0.06241   0.00000  Uiso   1.00
S356   S     0.50619   0.33589   0.29195   0.00000  Uiso   1.00
S357   S     0.65068   0.41425   0.24919   0.00000  Uiso   1.00
S358   S     0.84208   0.40582   0.26216   0.00000  Uiso   1.00
S359   S     0.64791   0.08115   0.08065   0.00000  Uiso   1.00
S360   S     0.65782   0.09607   0.26317   0.00000  Uiso   1.00
S361   S     0.85224   0.41793   0.07806   0.00000  Uiso   1.00
S362   S     0.50765   0.33839   0.05305   0.00000  Uiso   1.00
S363   S     0.99702   0.16426   0.28666   0.00000  Uiso   1.00
S364   S     0.75144   0.41451   0.04454   0.00000  Uiso   1.00
S365   S     0.75570   0.08605   0.28280   0.00000  Uiso   1.00
S366   S     0.74753   0.08486   0.04531   0.00000  Uiso   1.00
S367   S     0.74417   0.41311   0.28346   0.00000  Uiso   1.00
S368   S     0.89970   0.19349   0.07635   0.00000  Uiso   1.00
C369   C     0.05989   0.69249   0.16623   0.00000  Uiso   1.00
C370   C     0.49922   0.78520   0.31177   0.00000  Uiso   1.00
C371   C     0.00422   0.78560   0.02551   0.00000  Uiso   1.00
C372   C     0.00184   0.71465   0.30987   0.00000  Uiso   1.00
C373   C     0.24956   0.96466   0.02197   0.00000  Uiso   1.00
C374   C     0.25308   0.53522   0.30856   0.00000  Uiso   1.00
C375   C     0.25026   0.53503   0.02233   0.00000  Uiso   1.00
C376   C     0.24673   0.96455   0.30841   0.00000  Uiso   1.00
C377   C     0.38659   0.65687   0.12325   0.00000  Uiso   1.00
C378   C     0.10918   0.85383   0.20587   0.00000  Uiso   1.00
C379   C     0.11418   0.84348   0.12393   0.00000  Uiso   1.00
C380   C     0.44047   0.80771   0.16616   0.00000  Uiso   1.00
C381   C     0.38901   0.64805   0.20521   0.00000  Uiso   1.00
C382   C     0.11431   0.65160   0.20545   0.00000  Uiso   1.00
C383   C     0.39415   0.85809   0.12300   0.00000  Uiso   1.00
C384   C     0.38699   0.85170   0.20339   0.00000  Uiso   1.00
C385   C     0.10808   0.64066   0.12524   0.00000  Uiso   1.00
C386   C     0.13892   0.88368   0.11788   0.00000  Uiso   1.00
C387   C     0.35912   0.61380   0.20033   0.00000  Uiso   1.00
C388   C     0.36072   0.61814   0.11815   0.00000  Uiso   1.00
C389   C     0.13997   0.88731   0.20083   0.00000  Uiso   1.00
C390   C     0.35868   0.88632   0.20684   0.00000  Uiso   1.00
C391   C     0.43973   0.69416   0.16661   0.00000  Uiso   1.00
C392   C     0.13899   0.60900   0.12847   0.00000  Uiso   1.00
C393   C     0.14201   0.61576   0.20862   0.00000  Uiso   1.00
C394   C     0.36217   0.89012   0.12605   0.00000  Uiso   1.00
C395   C     0.09546   0.83540   0.16578   0.00000  Uiso   1.00
C396   C     0.40396   0.66573   0.16537   0.00000  Uiso   1.00
C397   C     0.40671   0.84023   0.16372   0.00000  Uiso   1.00
C398   C     0.09444   0.66051   0.16531   0.00000  Uiso   1.00
C399   C     0.34329   0.59798   0.15981   0.00000  Uiso   1.00
C400   C     0.15611   0.90313   0.15998   0.00000  Uiso   1.00
C401   C     0.15698   0.59529   0.16843   0.00000  Uiso   1.00
C402   C     0.06009   0.80621   0.16661   0.00000  Uiso   1.00
C403   C     0.34358   0.90501   0.16670   0.00000  Uiso   1.00
C404   C     0.30966   0.94067   0.16657   0.00000  Uiso   1.00
C405   C     0.18978   0.55861   0.16682   0.00000  Uiso   1.00
C406   C     0.19057   0.93984   0.16525   0.00000  Uiso   1.00
C407   C     0.30929   0.56046   0.16518   0.00000  Uiso   1.00
C408   C     0.49792   0.71363   0.02372   0.00000  Uiso   1.00
Cu409  Cu    0.00000   0.75000   0.21355   0.00000  Uiso   1.00
Cu410  Cu    0.00000   0.75000   0.11978   0.00000  Uiso   1.00
Cu411  Cu    0.25000   0.50000   0.21355   0.00000  Uiso   1.00
Cu412  Cu    0.25000   0.50000   0.11978   0.00000  Uiso   1.00
H413   H     0.02688   0.64180   0.10264   0.00000  Uiso   1.00
H414   H     0.09717   0.85835   0.33015   0.00000  Uiso   1.00
H415   H     0.09665   0.75506   0.02972   0.00000  Uiso   1.00
H416   H     0.40015   0.63855   0.31364   0.00000  Uiso   1.00
H417   H     0.11830   0.72063   0.31304   0.00000  Uiso   1.00
H418   H     0.40324   0.82600   0.00537   0.00000  Uiso   1.00
H419   H     0.37511   0.78543   0.30871   0.00000  Uiso   1.00
H420   H     0.11866   0.64393   0.01044   0.00000  Uiso   1.00
H421   H     0.15417   0.96385   0.02684   0.00000  Uiso   1.00
H422   H     0.38949   0.54049   0.24823   0.00000  Uiso   1.00
H423   H     0.34668   0.54135   0.02765   0.00000  Uiso   1.00
H424   H     0.02768   0.85499   0.23390   0.00000  Uiso   1.00
H425   H     0.11301   0.96266   0.24913   0.00000  Uiso   1.00
H426   H     0.34933   0.94391   0.31653   0.00000  Uiso   1.00
H427   H     0.11196   0.53042   0.06646   0.00000  Uiso   1.00
H428   H     0.14971   0.55919   0.31782   0.00000  Uiso   1.00
H429   H     0.38510   0.97082   0.08365   0.00000  Uiso   1.00
H430   H     0.46953   0.85769   0.10276   0.00000  Uiso   1.00
H431   H     0.47478   0.64527   0.22954   0.00000  Uiso   1.00
H432   H     0.25058   0.90801   0.10991   0.00000  Uiso   1.00
H433   H     0.23253   0.59503   0.20495   0.00000  Uiso   1.00
H434   H     0.24891   0.59438   0.11548   0.00000  Uiso   1.00
H435   H     0.23372   0.90234   0.20247   0.00000  Uiso   1.00
H436   H     0.40989   0.73792   0.02523   0.00000  Uiso   1.00
N437   N     0.00000   0.75000   0.28402   0.00000  Uiso   1.00
N438   N     0.00000   0.75000   0.04931   0.00000  Uiso   1.00
N439   N     0.25000   0.50000   0.28402   0.00000  Uiso   1.00
N440   N     0.25000   0.50000   0.04931   0.00000  Uiso   1.00
O441   O     0.04509   0.70491   0.20625   0.00000  Uiso   1.00
O442   O     0.20492   0.54509   0.12709   0.00000  Uiso   1.00
O443   O     0.20492   0.54509   0.20625   0.00000  Uiso   1.00
O444   O     0.29509   0.95491   0.12709   0.00000  Uiso   1.00
O445   O     0.20492   0.95491   0.12709   0.00000  Uiso   1.00
O446   O     0.29509   0.54509   0.20625   0.00000  Uiso   1.00
O447   O     0.29509   0.54509   0.12709   0.00000  Uiso   1.00
O448   O     0.20492   0.95491   0.20625   0.00000  Uiso   1.00
O449   O     0.46256   0.63041   0.04027   0.00000  Uiso   1.00
O450   O     0.02782   0.63776   0.02670   0.00000  Uiso   1.00
O451   O     0.00221   0.65390   0.09847   0.00000  Uiso   1.00
O452   O     0.45492   0.79509   0.12709   0.00000  Uiso   1.00
O453   O     0.48210   0.87206   0.29762   0.00000  Uiso   1.00
O454   O     0.04113   0.84988   0.31069   0.00000  Uiso   1.00
O455   O     0.00715   0.83595   0.24124   0.00000  Uiso   1.00
O456   O     0.04231   0.86500   0.04874   0.00000  Uiso   1.00
O457   O     0.47867   0.86167   0.03326   0.00000  Uiso   1.00
O458   O     0.49502   0.84617   0.10275   0.00000  Uiso   1.00
O459   O     0.02427   0.63082   0.28977   0.00000  Uiso   1.00
O460   O     0.46179   0.64753   0.30401   0.00000  Uiso   1.00
O461   O     0.49523   0.66466   0.23627   0.00000  Uiso   1.00
O462   O     0.22153   0.88344   0.03549   0.00000  Uiso   1.00
O463   O     0.45492   0.79509   0.20625   0.00000  Uiso   1.00
O464   O     0.28443   0.88931   0.04267   0.00000  Uiso   1.00
O465   O     0.24954   0.93057   0.09010   0.00000  Uiso   1.00
O466   O     0.22795   0.61018   0.30410   0.00000  Uiso   1.00
O467   O     0.28744   0.61116   0.29600   0.00000  Uiso   1.00
O468   O     0.25202   0.59698   0.22808   0.00000  Uiso   1.00
O469   O     0.27651   0.61579   0.03341   0.00000  Uiso   1.00
O470   O     0.21430   0.60852   0.04146   0.00000  Uiso   1.00
O471   O     0.25054   0.57332   0.09318   0.00000  Uiso   1.00
O472   O     0.27294   0.89012   0.30392   0.00000  Uiso   1.00
O473   O     0.21250   0.88751   0.29672   0.00000  Uiso   1.00
O474   O     0.04509   0.70491   0.12709   0.00000  Uiso   1.00
O475   O     0.23887   0.90184   0.22914   0.00000  Uiso   1.00
O476   O     0.43821   0.69292   0.06389   0.00000  Uiso   1.00
O477   O     0.38077   0.66841   0.04621   0.00000  Uiso   1.00
O478   O     0.39163   0.73614   0.04942   0.00000  Uiso   1.00
O479   O     0.06445   0.79295   0.27010   0.00000  Uiso   1.00
O480   O     0.12328   0.79493   0.25079   0.00000  Uiso   1.00
O481   O     0.10853   0.83797   0.31073   0.00000  Uiso   1.00
O482   O     0.06809   0.80265   0.06362   0.00000  Uiso   1.00
O483   O     0.13139   0.82258   0.05115   0.00000  Uiso   1.00
O484   O     0.11427   0.75762   0.05409   0.00000  Uiso   1.00
O485   O     0.45492   0.70491   0.12709   0.00000  Uiso   1.00
O486   O     0.43633   0.70357   0.27064   0.00000  Uiso   1.00
O487   O     0.37883   0.71274   0.24909   0.00000  Uiso   1.00
O488   O     0.38853   0.66451   0.30665   0.00000  Uiso   1.00
O489   O     0.06547   0.68435   0.26833   0.00000  Uiso   1.00
O490   O     0.12026   0.66112   0.28033   0.00000  Uiso   1.00
O491   O     0.12231   0.72643   0.28184   0.00000  Uiso   1.00
O492   O     0.44215   0.79972   0.06351   0.00000  Uiso   1.00
O493   O     0.38138   0.79612   0.08173   0.00000  Uiso   1.00
O494   O     0.42128   0.81891   0.02295   0.00000  Uiso   1.00
O495   O     0.43853   0.82846   0.26354   0.00000  Uiso   1.00
O496   O     0.04509   0.79509   0.20625   0.00000  Uiso   1.00
O497   O     0.38573   0.84935   0.28056   0.00000  Uiso   1.00
O498   O     0.38166   0.78102   0.27790   0.00000  Uiso   1.00
O499   O     0.05975   0.68949   0.06250   0.00000  Uiso   1.00
O500   O     0.11507   0.70183   0.09419   0.00000  Uiso   1.00
O501   O     0.11440   0.66859   0.02588   0.00000  Uiso   1.00
O502   O     0.18533   0.92588   0.07023   0.00000  Uiso   1.00
O503   O     0.15180   0.89080   0.01755   0.00000  Uiso   1.00
O504   O     0.13406   0.95480   0.04752   0.00000  Uiso   1.00
O505   O     0.34442   0.62387   0.27257   0.00000  Uiso   1.00
O506   O     0.32320   0.55464   0.26735   0.00000  Uiso   1.00
O507   O     0.04509   0.79509   0.12709   0.00000  Uiso   1.00
O508   O     0.38972   0.56858   0.26055   0.00000  Uiso   1.00
O509   O     0.31357   0.57939   0.07258   0.00000  Uiso   1.00
O510   O     0.34594   0.61421   0.01914   0.00000  Uiso   1.00
O511   O     0.36704   0.55145   0.04692   0.00000  Uiso   1.00
O512   O     0.15375   0.87721   0.27433   0.00000  Uiso   1.00
O513   O     0.17769   0.94513   0.26804   0.00000  Uiso   1.00
O514   O     0.11097   0.93462   0.26110   0.00000  Uiso   1.00
O515   O     0.31069   0.93049   0.26354   0.00000  Uiso   1.00
O516   O     0.33194   0.87345   0.29366   0.00000  Uiso   1.00
O517   O     0.36672   0.93795   0.29223   0.00000  Uiso   1.00
O518   O     0.45492   0.70491   0.20625   0.00000  Uiso   1.00
O519   O     0.15330   0.61614   0.05341   0.00000  Uiso   1.00
O520   O     0.17714   0.55230   0.06602   0.00000  Uiso   1.00
O521   O     0.10757   0.55996   0.06765   0.00000  Uiso   1.00
O522   O     0.18894   0.57090   0.26359   0.00000  Uiso   1.00
O523   O     0.16947   0.62813   0.29418   0.00000  Uiso   1.00
O524   O     0.13262   0.56493   0.29366   0.00000  Uiso   1.00
O525   O     0.35089   0.88378   0.04696   0.00000  Uiso   1.00
O526   O     0.32191   0.94586   0.06531   0.00000  Uiso   1.00
O527   O     0.39161   0.94303   0.06771   0.00000  Uiso   1.00
O528   O     0.29509   0.95491   0.20625   0.00000  Uiso   1.00
S529   S     0.49599   0.65852   0.04659   0.00000  Uiso   1.00
S530   S     0.09461   0.82463   0.26022   0.00000  Uiso   1.00
S531   S     0.10578   0.80142   0.08008   0.00000  Uiso   1.00
S532   S     0.40273   0.67822   0.25859   0.00000  Uiso   1.00
S533   S     0.10364   0.68689   0.25290   0.00000  Uiso   1.00
S534   S     0.41064   0.82677   0.07268   0.00000  Uiso   1.00
S535   S     0.39996   0.82218   0.25130   0.00000  Uiso   1.00
S536   S     0.09405   0.66792   0.07373   0.00000  Uiso   1.00
S537   S     0.14958   0.90997   0.06157   0.00000  Uiso   1.00
S538   S     0.34933   0.58633   0.24817   0.00000  Uiso   1.00
S539   S     0.34920   0.59461   0.06241   0.00000  Uiso   1.00
S540   S     0.00619   0.83589   0.29195   0.00000  Uiso   1.00
S541   S     0.15068   0.91425   0.24919   0.00000  Uiso   1.00
S542   S     0.34208   0.90582   0.26216   0.00000  Uiso   1.00
S543   S     0.14791   0.58115   0.08065   0.00000  Uiso   1.00
S544   S     0.15782   0.59607   0.26317   0.00000  Uiso   1.00
S545   S     0.35224   0.91793   0.07806   0.00000  Uiso   1.00
S546   S     0.00765   0.83839   0.05305   0.00000  Uiso   1.00
S547   S     0.49702   0.66426   0.28666   0.00000  Uiso   1.00
S548   S     0.25144   0.91451   0.04454   0.00000  Uiso   1.00
S549   S     0.25570   0.58605   0.28280   0.00000  Uiso   1.00
S550   S     0.24753   0.58486   0.04531   0.00000  Uiso   1.00
S551   S     0.24417   0.91311   0.28346   0.00000  Uiso   1.00
S552   S     0.39970   0.69349   0.07635   0.00000  Uiso   1.00
C553   C     0.55989   0.69249   0.16623   0.00000  Uiso   1.00
C554   C     0.99922   0.78520   0.31177   0.00000  Uiso   1.00
C555   C     0.50422   0.78560   0.02551   0.00000  Uiso   1.00
C556   C     0.50184   0.71465   0.30987   0.00000  Uiso   1.00
C557   C     0.74956   0.96466   0.02197   0.00000  Uiso   1.00
C558   C     0.75308   0.53522   0.30856   0.00000  Uiso   1.00
C559   C     0.75026   0.53503   0.02233   0.00000  Uiso   1.00
C560   C     0.74673   0.96455   0.30841   0.00000  Uiso   1.00
C561   C     0.88659   0.65687   0.12325   0.00000  Uiso   1.00
C562   C     0.60918   0.85383   0.20587   0.00000  Uiso   1.00
C563   C     0.61418   0.84348   0.12393   0.00000  Uiso   1.00
C564   C     0.94047   0.80771   0.16616   0.00000  Uiso   1.00
C565   C     0.88901   0.64805   0.20521   0.00000  Uiso   1.00
C566   C     0.61431   0.65160   0.20545   0.00000  Uiso   1.00
C567   C     0.89415   0.85809   0.12300   0.00000  Uiso   1.00
C568   C     0.88699   0.85170   0.20339   0.00000  Uiso   1.00
C569   C     0.60808   0.64066   0.12524   0.00000  Uiso   1.00
C570   C     0.63892   0.88368   0.11788   0.00000  Uiso   1.00
C571   C     0.85912   0.61380   0.20033   0.00000  Uiso   1.00
C572   C     0.86072   0.61814   0.11815   0.00000  Uiso   1.00
C573   C     0.63997   0.88731   0.20083   0.00000  Uiso   1.00
C574   C     0.85868   0.88632   0.20684   0.00000  Uiso   1.00
C575   C     0.93973   0.69416   0.16661   0.00000  Uiso   1.00
C576   C     0.63899   0.60900   0.12847   0.00000  Uiso   1.00
C577   C     0.64201   0.61576   0.20862   0.00000  Uiso   1.00
C578   C     0.86217   0.89012   0.12605   0.00000  Uiso   1.00
C579   C     0.59546   0.83540   0.16578   0.00000  Uiso   1.00
C580   C     0.90396   0.66573   0.16537   0.00000  Uiso   1.00
C581   C     0.90671   0.84023   0.16372   0.00000  Uiso   1.00
C582   C     0.59444   0.66051   0.16531   0.00000  Uiso   1.00
C583   C     0.84329   0.59798   0.15981   0.00000  Uiso   1.00
C584   C     0.65611   0.90313   0.15998   0.00000  Uiso   1.00
C585   C     0.65698   0.59529   0.16843   0.00000  Uiso   1.00
C586   C     0.56009   0.80621   0.16661   0.00000  Uiso   1.00
C587   C     0.84358   0.90501   0.16670   0.00000  Uiso   1.00
C588   C     0.80966   0.94067   0.16657   0.00000  Uiso   1.00
C589   C     0.68978   0.55861   0.16682   0.00000  Uiso   1.00
C590   C     0.69057   0.93984   0.16525   0.00000  Uiso   1.00
C591   C     0.80929   0.56046   0.16518   0.00000  Uiso   1.00
C592   C     0.99792   0.71363   0.02372   0.00000  Uiso   1.00
Cu593  Cu    0.50000   0.75000   0.21355   0.00000  Uiso   1.00
Cu594  Cu    0.50000   0.75000   0.11978   0.00000  Uiso   1.00
Cu595  Cu    0.75000   0.50000   0.21355   0.00000  Uiso   1.00
Cu596  Cu    0.75000   0.50000   0.11978   0.00000  Uiso   1.00
H597   H     0.52688   0.64180   0.10264   0.00000  Uiso   1.00
H598   H     0.59717   0.85835   0.33015   0.00000  Uiso   1.00
H599   H     0.59665   0.75506   0.02972   0.00000  Uiso   1.00
H600   H     0.90015   0.63855   0.31364   0.00000  Uiso   1.00
H601   H     0.61830   0.72063   0.31304   0.00000  Uiso   1.00
H602   H     0.90324   0.82600   0.00537   0.00000  Uiso   1.00
H603   H     0.87511   0.78543   0.30871   0.00000  Uiso   1.00
H604   H     0.61866   0.64393   0.01044   0.00000  Uiso   1.00
H605   H     0.65417   0.96385   0.02684   0.00000  Uiso   1.00
H606   H     0.88949   0.54049   0.24823   0.00000  Uiso   1.00
H607   H     0.84668   0.54135   0.02765   0.00000  Uiso   1.00
H608   H     0.52768   0.85499   0.23390   0.00000  Uiso   1.00
H609   H     0.61301   0.96266   0.24913   0.00000  Uiso   1.00
H610   H     0.84933   0.94391   0.31653   0.00000  Uiso   1.00
H611   H     0.61196   0.53042   0.06646   0.00000  Uiso   1.00
H612   H     0.64971   0.55919   0.31782   0.00000  Uiso   1.00
H613   H     0.88510   0.97082   0.08365   0.00000  Uiso   1.00
H614   H     0.96953   0.85769   0.10276   0.00000  Uiso   1.00
H615   H     0.97478   0.64527   0.22954   0.00000  Uiso   1.00
H616   H     0.75058   0.90801   0.10991   0.00000  Uiso   1.00
H617   H     0.73253   0.59503   0.20495   0.00000  Uiso   1.00
H618   H     0.74891   0.59438   0.11548   0.00000  Uiso   1.00
H619   H     0.73372   0.90234   0.20247   0.00000  Uiso   1.00
H620   H     0.90989   0.73792   0.02523   0.00000  Uiso   1.00
N621   N     0.50000   0.75000   0.28402   0.00000  Uiso   1.00
N622   N     0.50000   0.75000   0.04931   0.00000  Uiso   1.00
N623   N     0.75000   0.50000   0.28402   0.00000  Uiso   1.00
N624   N     0.75000   0.50000   0.04931   0.00000  Uiso   1.00
O625   O     0.54509   0.70491   0.20625   0.00000  Uiso   1.00
O626   O     0.70492   0.54509   0.12709   0.00000  Uiso   1.00
O627   O     0.70492   0.54509   0.20625   0.00000  Uiso   1.00
O628   O     0.79509   0.95491   0.12709   0.00000  Uiso   1.00
O629   O     0.70492   0.95491   0.12709   0.00000  Uiso   1.00
O630   O     0.79509   0.54509   0.20625   0.00000  Uiso   1.00
O631   O     0.79509   0.54509   0.12709   0.00000  Uiso   1.00
O632   O     0.70492   0.95491   0.20625   0.00000  Uiso   1.00
O633   O     0.96256   0.63041   0.04027   0.00000  Uiso   1.00
O634   O     0.52782   0.63776   0.02670   0.00000  Uiso   1.00
O635   O     0.50221   0.65390   0.09847   0.00000  Uiso   1.00
O636   O     0.95492   0.79509   0.12709   0.00000  Uiso   1.00
O637   O     0.98210   0.87206   0.29762   0.00000  Uiso   1.00
O638   O     0.54113   0.84988   0.31069   0.00000  Uiso   1.00
O639   O     0.50715   0.83595   0.24124   0.00000  Uiso   1.00
O640   O     0.54231   0.86500   0.04874   0.00000  Uiso   1.00
O641   O     0.97867   0.86167   0.03326   0.00000  Uiso   1.00
O642   O     0.99502   0.84617   0.10275   0.00000  Uiso   1.00
O643   O     0.52427   0.63082   0.28977   0.00000  Uiso   1.00
O644   O     0.96179   0.64753   0.30401   0.00000  Uiso   1.00
O645   O     0.99523   0.66466   0.23627   0.00000  Uiso   1.00
O646   O     0.72153   0.88344   0.03549   0.00000  Uiso   1.00
O647   O     0.95492   0.79509   0.20625   0.00000  Uiso   1.00
O648   O     0.78443   0.88931   0.04267   0.00000  Uiso   1.00
O649   O     0.74954   0.93057   0.09010   0.00000  Uiso   1.00
O650   O     0.72795   0.61018   0.30410   0.00000  Uiso   1.00
O651   O     0.78744   0.61116   0.29600   0.00000  Uiso   1.00
O652   O     0.75202   0.59698   0.22808   0.00000  Uiso   1.00
O653   O     0.77651   0.61579   0.03341   0.00000  Uiso   1.00
O654   O     0.71430   0.60852   0.04146   0.00000  Uiso   1.00
O655   O     0.75054   0.57332   0.09318   0.00000  Uiso   1.00
O656   O     0.77294   0.89012   0.30392   0.00000  Uiso   1.00
O657   O     0.71250   0.88751   0.29672   0.00000  Uiso   1.00
O658   O     0.54509   0.70491   0.12709   0.00000  Uiso   1.00
O659   O     0.73887   0.90184   0.22914   0.00000  Uiso   1.00
O660   O     0.93821   0.69292   0.06389   0.00000  Uiso   1.00
O661   O     0.88077   0.66841   0.04621   0.00000  Uiso   1.00
O662   O     0.89163   0.73614   0.04942   0.00000  Uiso   1.00
O663   O     0.56445   0.79295   0.27010   0.00000  Uiso   1.00
O664   O     0.62328   0.79493   0.25079   0.00000  Uiso   1.00
O665   O     0.60853   0.83797   0.31073   0.00000  Uiso   1.00
O666   O     0.56809   0.80265   0.06362   0.00000  Uiso   1.00
O667   O     0.63139   0.82258   0.05115   0.00000  Uiso   1.00
O668   O     0.61427   0.75762   0.05409   0.00000  Uiso   1.00
O669   O     0.95492   0.70491   0.12709   0.00000  Uiso   1.00
O670   O     0.93633   0.70357   0.27064   0.00000  Uiso   1.00
O671   O     0.87883   0.71274   0.24909   0.00000  Uiso   1.00
O672   O     0.88853   0.66451   0.30665   0.00000  Uiso   1.00
O673   O     0.56547   0.68435   0.26833   0.00000  Uiso   1.00
O674   O     0.62026   0.66112   0.28033   0.00000  Uiso   1.00
O675   O     0.62231   0.72643   0.28184   0.00000  Uiso   1.00
O676   O     0.94215   0.79972   0.06351   0.00000  Uiso   1.00
O677   O     0.88138   0.79612   0.08173   0.00000  Uiso   1.00
O678   O     0.92128   0.81891   0.02295   0.00000  Uiso   1.00
O679   O     0.93853   0.82846   0.26354   0.00000  Uiso   1.00
O680   O     0.54509   0.79509   0.20625   0.00000  Uiso   1.00
O681   O     0.88573   0.84935   0.28056   0.00000  Uiso   1.00
O682   O     0.88166   0.78102   0.27790   0.00000  Uiso   1.00
O683   O     0.55975   0.68949   0.06250   0.00000  Uiso   1.00
O684   O     0.61507   0.70183   0.09419   0.00000  Uiso   1.00
O685   O     0.61440   0.66859   0.02588   0.00000  Uiso   1.00
O686   O     0.68533   0.92588   0.07023   0.00000  Uiso   1.00
O687   O     0.65180   0.89080   0.01755   0.00000  Uiso   1.00
O688   O     0.63406   0.95480   0.04752   0.00000  Uiso   1.00
O689   O     0.84442   0.62387   0.27257   0.00000  Uiso   1.00
O690   O     0.82320   0.55464   0.26735   0.00000  Uiso   1.00
O691   O     0.54509   0.79509   0.12709   0.00000  Uiso   1.00
O692   O     0.88972   0.56858   0.26055   0.00000  Uiso   1.00
O693   O     0.81357   0.57939   0.07258   0.00000  Uiso   1.00
O694   O     0.84594   0.61421   0.01914   0.00000  Uiso   1.00
O695   O     0.86704   0.55145   0.04692   0.00000  Uiso   1.00
O696   O     0.65375   0.87721   0.27433   0.00000  Uiso   1.00
O697   O     0.67769   0.94513   0.26804   0.00000  Uiso   1.00
O698   O     0.61097   0.93462   0.26110   0.00000  Uiso   1.00
O699   O     0.81069   0.93049   0.26354   0.00000  Uiso   1.00
O700   O     0.83194   0.87345   0.29366   0.00000  Uiso   1.00
O701   O     0.86672   0.93795   0.29223   0.00000  Uiso   1.00
O702   O     0.95492   0.70491   0.20625   0.00000  Uiso   1.00
O703   O     0.65330   0.61614   0.05341   0.00000  Uiso   1.00
O704   O     0.67714   0.55230   0.06602   0.00000  Uiso   1.00
O705   O     0.60757   0.55996   0.06765   0.00000  Uiso   1.00
O706   O     0.68894   0.57090   0.26359   0.00000  Uiso   1.00
O707   O     0.66947   0.62813   0.29418   0.00000  Uiso   1.00
O708   O     0.63262   0.56493   0.29366   0.00000  Uiso   1.00
O709   O     0.85089   0.88378   0.04696   0.00000  Uiso   1.00
O710   O     0.82191   0.94586   0.06531   0.00000  Uiso   1.00
O711   O     0.89161   0.94303   0.06771   0.00000  Uiso   1.00
O712   O     0.79509   0.95491   0.20625   0.00000  Uiso   1.00
S713   S     0.99599   0.65852   0.04659   0.00000  Uiso   1.00
S714   S     0.59461   0.82463   0.26022   0.00000  Uiso   1.00
S715   S     0.60578   0.80142   0.08008   0.00000  Uiso   1.00
S716   S     0.90273   0.67822   0.25859   0.00000  Uiso   1.00
S717   S     0.60364   0.68689   0.25290   0.00000  Uiso   1.00
S718   S     0.91064   0.82677   0.07268   0.00000  Uiso   1.00
S719   S     0.89996   0.82218   0.25130   0.00000  Uiso   1.00
S720   S     0.59405   0.66792   0.07373   0.00000  Uiso   1.00
S721   S     0.64958   0.90997   0.06157   0.00000  Uiso   1.00
S722   S     0.84933   0.58633   0.24817   0.00000  Uiso   1.00
S723   S     0.84920   0.59461   0.06241   0.00000  Uiso   1.00
S724   S     0.50619   0.83589   0.29195   0.00000  Uiso   1.00
S725   S     0.65068   0.91425   0.24919   0.00000  Uiso   1.00
S726   S     0.84208   0.90582   0.26216   0.00000  Uiso   1.00
S727   S     0.64791   0.58115   0.08065   0.00000  Uiso   1.00
S728   S     0.65782   0.59607   0.26317   0.00000  Uiso   1.00
S729   S     0.85224   0.91793   0.07806   0.00000  Uiso   1.00
S730   S     0.50765   0.83839   0.05305   0.00000  Uiso   1.00
S731   S     0.99702   0.66426   0.28666   0.00000  Uiso   1.00
S732   S     0.75144   0.91451   0.04454   0.00000  Uiso   1.00
S733   S     0.75570   0.58605   0.28280   0.00000  Uiso   1.00
S734   S     0.74753   0.58486   0.04531   0.00000  Uiso   1.00
S735   S     0.74417   0.91311   0.28346   0.00000  Uiso   1.00
S736   S     0.89970   0.69349   0.07635   0.00000  Uiso   1.00
C737   C     0.05989   0.19249   0.49956   0.00000  Uiso   1.00
C738   C     0.49922   0.28520   0.64510   0.00000  Uiso   1.00
C739   C     0.00422   0.28560   0.35885   0.00000  Uiso   1.00
C740   C     0.00184   0.21465   0.64320   0.00000  Uiso   1.00
C741   C     0.24956   0.46466   0.35530   0.00000  Uiso   1.00
C742   C     0.25308   0.03522   0.64190   0.00000  Uiso   1.00
C743   C     0.25026   0.03503   0.35567   0.00000  Uiso   1.00
C744   C     0.24673   0.46455   0.64175   0.00000  Uiso   1.00
C745   C     0.38659   0.15687   0.45658   0.00000  Uiso   1.00
C746   C     0.10918   0.35383   0.53921   0.00000  Uiso   1.00
C747   C     0.11418   0.34348   0.45726   0.00000  Uiso   1.00
C748   C     0.44047   0.30771   0.49949   0.00000  Uiso   1.00
C749   C     0.38901   0.14805   0.53855   0.00000  Uiso   1.00
C750   C     0.11431   0.15160   0.53878   0.00000  Uiso   1.00
C751   C     0.39415   0.35809   0.45634   0.00000  Uiso   1.00
C752   C     0.38699   0.35170   0.53672   0.00000  Uiso   1.00
C753   C     0.10808   0.14066   0.45857   0.00000  Uiso   1.00
C754   C     0.13892   0.38368   0.45122   0.00000  Uiso   1.00
C755   C     0.35912   0.11380   0.53366   0.00000  Uiso   1.00
C756   C     0.36072   0.11814   0.45148   0.00000  Uiso   1.00
C757   C     0.13997   0.38731   0.53416   0.00000  Uiso   1.00
C758   C     0.35868   0.38632   0.54017   0.00000  Uiso   1.00
C759   C     0.43973   0.19416   0.49995   0.00000  Uiso   1.00
C760   C     0.13899   0.10900   0.46180   0.00000  Uiso   1.00
C761   C     0.14201   0.11576   0.54196   0.00000  Uiso   1.00
C762   C     0.36217   0.39012   0.45939   0.00000  Uiso   1.00
C763   C     0.09546   0.33540   0.49911   0.00000  Uiso   1.00
C764   C     0.40396   0.16573   0.49870   0.00000  Uiso   1.00
C765   C     0.40671   0.34023   0.49706   0.00000  Uiso   1.00
C766   C     0.09444   0.16051   0.49864   0.00000  Uiso   1.00
C767   C     0.34329   0.09798   0.49314   0.00000  Uiso   1.00
C768   C     0.15611   0.40313   0.49332   0.00000  Uiso   1.00
C769   C     0.15698   0.09529   0.50176   0.00000  Uiso   1.00
C770   C     0.06009   0.30621   0.49995   0.00000  Uiso   1.00
C771   C     0.34358   0.40501   0.50003   0.00000  Uiso   1.00
C772   C     0.30966   0.44067   0.49991   0.00000  Uiso   1.00
C773   C     0.18978   0.05861   0.50015   0.00000  Uiso   1.00
C774   C     0.19057   0.43984   0.49858   0.00000  Uiso   1.00
C775   C     0.30929   0.06046   0.49851   0.00000  Uiso   1.00
C776   C     0.49792   0.21363   0.35705   0.00000  Uiso   1.00
Cu777  Cu    0.00000   0.25000   0.54689   0.00000  Uiso   1.00
Cu778  Cu    0.00000   0.25000   0.45311   0.00000  Uiso   1.00
Cu779  Cu    0.25000   0.00000   0.54689   0.00000  Uiso   1.00
Cu780  Cu    0.25000   0.00000   0.45311   0.00000  Uiso   1.00
H781   H     0.02688   0.14180   0.43597   0.00000  Uiso   1.00
H782   H     0.09717   0.35835   0.66349   0.00000  Uiso   1.00
H783   H     0.09665   0.25506   0.36305   0.00000  Uiso   1.00
H784   H     0.40015   0.13855   0.64697   0.00000  Uiso   1.00
H785   H     0.11830   0.22063   0.64637   0.00000  Uiso   1.00
H786   H     0.40324   0.32600   0.33870   0.00000  Uiso   1.00
H787   H     0.37511   0.28543   0.64205   0.00000  Uiso   1.00
H788   H     0.11866   0.14393   0.34377   0.00000  Uiso   1.00
H789   H     0.15417   0.46385   0.36017   0.00000  Uiso   1.00
H790   H     0.38949   0.04049   0.58157   0.00000  Uiso   1.00
H791   H     0.34668   0.04135   0.36099   0.00000  Uiso   1.00
H792   H     0.02768   0.35499   0.56724   0.00000  Uiso   1.00
H793   H     0.11301   0.46266   0.58246   0.00000  Uiso   1.00
H794   H     0.34933   0.44391   0.64986   0.00000  Uiso   1.00
H795   H     0.11196   0.03042   0.39980   0.00000  Uiso   1.00
H796   H     0.14971   0.05919   0.65115   0.00000  Uiso   1.00
H797   H     0.38510   0.47082   0.41698   0.00000  Uiso   1.00
H798   H     0.46953   0.35769   0.43610   0.00000  Uiso   1.00
H799   H     0.47478   0.14527   0.56287   0.00000  Uiso   1.00
H800   H     0.25058   0.40801   0.44324   0.00000  Uiso   1.00
H801   H     0.23253   0.09503   0.53829   0.00000  Uiso   1.00
H802   H     0.24891   0.09438   0.44882   0.00000  Uiso   1.00
H803   H     0.23372   0.40234   0.53580   0.00000  Uiso   1.00
H804   H     0.40989   0.23792   0.35856   0.00000  Uiso   1.00
N805   N     0.00000   0.25000   0.61736   0.00000  Uiso   1.00
N806   N     0.00000   0.25000   0.38264   0.00000  Uiso   1.00
N807   N     0.25000   0.00000   0.61736   0.00000  Uiso   1.00
N808   N     0.25000   0.00000   0.38264   0.00000  Uiso   1.00
O809   O     0.04509   0.20491   0.53958   0.00000  Uiso   1.00
O810   O     0.20492   0.04509   0.46042   0.00000  Uiso   1.00
O811   O     0.20492   0.04509   0.53958   0.00000  Uiso   1.00
O812   O     0.29509   0.45491   0.46042   0.00000  Uiso   1.00
O813   O     0.20492   0.45491   0.46042   0.00000  Uiso   1.00
O814   O     0.29509   0.04509   0.53958   0.00000  Uiso   1.00
O815   O     0.29509   0.04509   0.46042   0.00000  Uiso   1.00
O816   O     0.20492   0.45491   0.53958   0.00000  Uiso   1.00
O817   O     0.46256   0.13041   0.37360   0.00000  Uiso   1.00
O818   O     0.02782   0.13776   0.36003   0.00000  Uiso   1.00
O819   O     0.00221   0.15390   0.43181   0.00000  Uiso   1.00
O820   O     0.45492   0.29509   0.46042   0.00000  Uiso   1.00
O821   O     0.48210   0.37206   0.63095   0.00000  Uiso   1.00
O822   O     0.04113   0.34988   0.64402   0.00000  Uiso   1.00
O823   O     0.00715   0.33595   0.57458   0.00000  Uiso   1.00
O824   O     0.04231   0.36500   0.38207   0.00000  Uiso   1.00
O825   O     0.47867   0.36167   0.36659   0.00000  Uiso   1.00
O826   O     0.49502   0.34617   0.43609   0.00000  Uiso   1.00
O827   O     0.02427   0.13082   0.62310   0.00000  Uiso   1.00
O828   O     0.46179   0.14753   0.63734   0.00000  Uiso   1.00
O829   O     0.49523   0.16466   0.56960   0.00000  Uiso   1.00
O830   O     0.22153   0.38344   0.36882   0.00000  Uiso   1.00
O831   O     0.45492   0.29509   0.53958   0.00000  Uiso   1.00
O832   O     0.28443   0.38931   0.37600   0.00000  Uiso   1.00
O833   O     0.24954   0.43057   0.42344   0.00000  Uiso   1.00
O834   O     0.22795   0.11018   0.63744   0.00000  Uiso   1.00
O835   O     0.28744   0.11116   0.62933   0.00000  Uiso   1.00
O836   O     0.25202   0.09698   0.56142   0.00000  Uiso   1.00
O837   O     0.27651   0.11579   0.36674   0.00000  Uiso   1.00
O838   O     0.21430   0.10852   0.37479   0.00000  Uiso   1.00
O839   O     0.25054   0.07332   0.42651   0.00000  Uiso   1.00
O840   O     0.27294   0.39012   0.63726   0.00000  Uiso   1.00
O841   O     0.21250   0.38751   0.63005   0.00000  Uiso   1.00
O842   O     0.04509   0.20491   0.46042   0.00000  Uiso   1.00
O843   O     0.23887   0.40184   0.56247   0.00000  Uiso   1.00
O844   O     0.43821   0.19292   0.39722   0.00000  Uiso   1.00
O845   O     0.38077   0.16841   0.37955   0.00000  Uiso   1.00
O846   O     0.39163   0.23614   0.38275   0.00000  Uiso   1.00
O847   O     0.06445   0.29295   0.60344   0.00000  Uiso   1.00
O848   O     0.12328   0.29493   0.58412   0.00000  Uiso   1.00
O849   O     0.10853   0.33797   0.64407   0.00000  Uiso   1.00
O850   O     0.06809   0.30265   0.39695   0.00000  Uiso   1.00
O851   O     0.13139   0.32258   0.38448   0.00000  Uiso   1.00
O852   O     0.11427   0.25762   0.38742   0.00000  Uiso   1.00
O853   O     0.45492   0.20491   0.46042   0.00000  Uiso   1.00
O854   O     0.43633   0.20357   0.60398   0.00000  Uiso   1.00
O855   O     0.37883   0.21274   0.58242   0.00000  Uiso   1.00
O856   O     0.38853   0.16451   0.63998   0.00000  Uiso   1.00
O857   O     0.06547   0.18435   0.60166   0.00000  Uiso   1.00
O858   O     0.12026   0.16112   0.61366   0.00000  Uiso   1.00
O859   O     0.12231   0.22643   0.61517   0.00000  Uiso   1.00
O860   O     0.44215   0.29972   0.39684   0.00000  Uiso   1.00
O861   O     0.38138   0.29612   0.41507   0.00000  Uiso   1.00
O862   O     0.42128   0.31891   0.35629   0.00000  Uiso   1.00
O863   O     0.43853   0.32846   0.59688   0.00000  Uiso   1.00
O864   O     0.04509   0.29509   0.53958   0.00000  Uiso   1.00
O865   O     0.38573   0.34935   0.61389   0.00000  Uiso   1.00
O866   O     0.38166   0.28102   0.61123   0.00000  Uiso   1.00
O867   O     0.05975   0.18949   0.39583   0.00000  Uiso   1.00
O868   O     0.11507   0.20183   0.42753   0.00000  Uiso   1.00
O869   O     0.11440   0.16859   0.35922   0.00000  Uiso   1.00
O870   O     0.18533   0.42588   0.40357   0.00000  Uiso   1.00
O871   O     0.15180   0.39080   0.35089   0.00000  Uiso   1.00
O872   O     0.13406   0.45480   0.38085   0.00000  Uiso   1.00
O873   O     0.34442   0.12387   0.60590   0.00000  Uiso   1.00
O874   O     0.32320   0.05464   0.60068   0.00000  Uiso   1.00
O875   O     0.04509   0.29509   0.46042   0.00000  Uiso   1.00
O876   O     0.38972   0.06858   0.59388   0.00000  Uiso   1.00
O877   O     0.31357   0.07939   0.40591   0.00000  Uiso   1.00
O878   O     0.34594   0.11421   0.35247   0.00000  Uiso   1.00
O879   O     0.36704   0.05145   0.38025   0.00000  Uiso   1.00
O880   O     0.15375   0.37721   0.60766   0.00000  Uiso   1.00
O881   O     0.17769   0.44513   0.60137   0.00000  Uiso   1.00
O882   O     0.11097   0.43462   0.59443   0.00000  Uiso   1.00
O883   O     0.31069   0.43049   0.59687   0.00000  Uiso   1.00
O884   O     0.33194   0.37345   0.62700   0.00000  Uiso   1.00
O885   O     0.36672   0.43795   0.62556   0.00000  Uiso   1.00
O886   O     0.45492   0.20491   0.53958   0.00000  Uiso   1.00
O887   O     0.15330   0.11614   0.38674   0.00000  Uiso   1.00
O888   O     0.17714   0.05230   0.39936   0.00000  Uiso   1.00
O889   O     0.10757   0.05996   0.40098   0.00000  Uiso   1.00
O890   O     0.18894   0.07090   0.59692   0.00000  Uiso   1.00
O891   O     0.16947   0.12813   0.62751   0.00000  Uiso   1.00
O892   O     0.13262   0.06493   0.62699   0.00000  Uiso   1.00
O893   O     0.35089   0.38378   0.38029   0.00000  Uiso   1.00
O894   O     0.32191   0.44586   0.39864   0.00000  Uiso   1.00
O895   O     0.39161   0.44303   0.40104   0.00000  Uiso   1.00
O896   O     0.29509   0.45491   0.53958   0.00000  Uiso   1.00
S897   S     0.49599   0.15852   0.37993   0.00000  Uiso   1.00
S898   S     0.09461   0.32463   0.59356   0.00000  Uiso   1.00
S899   S     0.10578   0.30142   0.41341   0.00000  Uiso   1.00
S900   S     0.40273   0.17822   0.59193   0.00000  Uiso   1.00
S901   S     0.10364   0.18689   0.58623   0.00000  Uiso   1.00
S902   S     0.41064   0.32677   0.40601   0.00000  Uiso   1.00
S903   S     0.39996   0.32218   0.58464   0.00000  Uiso   1.00
S904   S     0.09405   0.16792   0.40706   0.00000  Uiso   1.00
S905   S     0.14958   0.40997   0.39491   0.00000  Uiso   1.00
S906   S     0.34933   0.08633   0.58150   0.00000  Uiso   1.00
S907   S     0.34920   0.09461   0.39574   0.00000  Uiso   1.00
S908   S     0.00619   0.33589   0.62528   0.00000  Uiso   1.00
S909   S     0.15068   0.41425   0.58252   0.00000  Uiso   1.00
S910   S     0.34208   0.40582   0.59550   0.00000  Uiso   1.00
S911   S     0.14791   0.08115   0.41399   0.00000  Uiso   1.00
S912   S     0.15782   0.09607   0.59650   0.00000  Uiso   1.00
S913   S     0.35224   0.41793   0.41140   0.00000  Uiso   1.00
S914   S     0.00765   0.33839   0.38638   0.00000  Uiso   1.00
S915   S     0.49702   0.16426   0.62000   0.00000  Uiso   1.00
S916   S     0.25144   0.41451   0.37787   0.00000  Uiso   1.00
S917   S     0.25570   0.08605   0.61613   0.00000  Uiso   1.00
S918   S     0.24753   0.08486   0.37864   0.00000  Uiso   1.00
S919   S     0.24417   0.41311   0.61679   0.00000  Uiso   1.00
S920   S     0.39970   0.19349   0.40969   0.00000  Uiso   1.00
C921   C     0.55989   0.19249   0.49956   0.00000  Uiso   1.00
C922   C     0.99922   0.28520   0.64510   0.00000  Uiso   1.00
C923   C     0.50422   0.28560   0.35885   0.00000  Uiso   1.00
C924   C     0.50184   0.21465   0.64320   0.00000  Uiso   1.00
C925   C     0.74956   0.46466   0.35530   0.00000  Uiso   1.00
C926   C     0.75308   0.03522   0.64190   0.00000  Uiso   1.00
C927   C     0.75026   0.03503   0.35567   0.00000  Uiso   1.00
C928   C     0.74673   0.46455   0.64175   0.00000  Uiso   1.00
C929   C     0.88659   0.15687   0.45658   0.00000  Uiso   1.00
C930   C     0.60918   0.35383   0.53921   0.00000  Uiso   1.00
C931   C     0.61418   0.34348   0.45726   0.00000  Uiso   1.00
C932   C     0.94047   0.30771   0.49949   0.00000  Uiso   1.00
C933   C     0.88901   0.14805   0.53855   0.00000  Uiso   1.00
C934   C     0.61431   0.15160   0.53878   0.00000  Uiso   1.00
C935   C     0.89415   0.35809   0.45634   0.00000  Uiso   1.00
C936   C     0.88699   0.35170   0.53672   0.00000  Uiso   1.00
C937   C     0.60808   0.14066   0.45857   0.00000  Uiso   1.00
C938   C     0.63892   0.38368   0.45122   0.00000  Uiso   1.00
C939   C     0.85912   0.11380   0.53366   0.00000  Uiso   1.00
C940   C     0.86072   0.11814   0.45148   0.00000  Uiso   1.00
C941   C     0.63997   0.38731   0.53416   0.00000  Uiso   1.00
C942   C     0.85868   0.38632   0.54017   0.00000  Uiso   1.00
C943   C     0.93973   0.19416   0.49995   0.00000  Uiso   1.00
C944   C     0.63899   0.10900   0.46180   0.00000  Uiso   1.00
C945   C     0.64201   0.11576   0.54196   0.00000  Uiso   1.00
C946   C     0.86217   0.39012   0.45939   0.00000  Uiso   1.00
C947   C     0.59546   0.33540   0.49911   0.00000  Uiso   1.00
C948   C     0.90396   0.16573   0.49870   0.00000  Uiso   1.00
C949   C     0.90671   0.34023   0.49706   0.00000  Uiso   1.00
C950   C     0.59444   0.16051   0.49864   0.00000  Uiso   1.00
C951   C     0.84329   0.09798   0.49314   0.00000  Uiso   1.00
C952   C     0.65611   0.40313   0.49332   0.00000  Uiso   1.00
C953   C     0.65698   0.09529   0.50176   0.00000  Uiso   1.00
C954   C     0.56009   0.30621   0.49995   0.00000  Uiso   1.00
C955   C     0.84358   0.40501   0.50003   0.00000  Uiso   1.00
C956   C     0.80966   0.44067   0.49991   0.00000  Uiso   1.00
C957   C     0.68978   0.05861   0.50015   0.00000  Uiso   1.00
C958   C     0.69057   0.43984   0.49858   0.00000  Uiso   1.00
C959   C     0.80929   0.06046   0.49851   0.00000  Uiso   1.00
C960   C     0.99792   0.21363   0.35705   0.00000  Uiso   1.00
Cu961  Cu    0.50000   0.25000   0.54689   0.00000  Uiso   1.00
Cu962  Cu    0.50000   0.25000   0.45311   0.00000  Uiso   1.00
Cu963  Cu    0.75000   0.00000   0.54689   0.00000  Uiso   1.00
Cu964  Cu    0.75000   0.00000   0.45311   0.00000  Uiso   1.00
H965   H     0.52688   0.14180   0.43597   0.00000  Uiso   1.00
H966   H     0.59717   0.35835   0.66349   0.00000  Uiso   1.00
H967   H     0.59665   0.25506   0.36305   0.00000  Uiso   1.00
H968   H     0.90015   0.13855   0.64697   0.00000  Uiso   1.00
H969   H     0.61830   0.22063   0.64637   0.00000  Uiso   1.00
H970   H     0.90324   0.32600   0.33870   0.00000  Uiso   1.00
H971   H     0.87511   0.28543   0.64205   0.00000  Uiso   1.00
H972   H     0.61866   0.14393   0.34377   0.00000  Uiso   1.00
H973   H     0.65417   0.46385   0.36017   0.00000  Uiso   1.00
H974   H     0.88949   0.04049   0.58157   0.00000  Uiso   1.00
H975   H     0.84668   0.04135   0.36099   0.00000  Uiso   1.00
H976   H     0.52768   0.35499   0.56724   0.00000  Uiso   1.00
H977   H     0.61301   0.46266   0.58246   0.00000  Uiso   1.00
H978   H     0.84933   0.44391   0.64986   0.00000  Uiso   1.00
H979   H     0.61196   0.03042   0.39980   0.00000  Uiso   1.00
H980   H     0.64971   0.05919   0.65115   0.00000  Uiso   1.00
H981   H     0.88510   0.47082   0.41698   0.00000  Uiso   1.00
H982   H     0.96953   0.35769   0.43610   0.00000  Uiso   1.00
H983   H     0.97478   0.14527   0.56287   0.00000  Uiso   1.00
H984   H     0.75058   0.40801   0.44324   0.00000  Uiso   1.00
H985   H     0.73253   0.09503   0.53829   0.00000  Uiso   1.00
H986   H     0.74891   0.09438   0.44882   0.00000  Uiso   1.00
H987   H     0.73372   0.40234   0.53580   0.00000  Uiso   1.00
H988   H     0.90989   0.23792   0.35856   0.00000  Uiso   1.00
N989   N     0.50000   0.25000   0.61736   0.00000  Uiso   1.00
N990   N     0.50000   0.25000   0.38264   0.00000  Uiso   1.00
N991   N     0.75000   0.00000   0.61736   0.00000  Uiso   1.00
N992   N     0.75000   0.00000   0.38264   0.00000  Uiso   1.00
O993   O     0.54509   0.20491   0.53958   0.00000  Uiso   1.00
O994   O     0.70492   0.04509   0.46042   0.00000  Uiso   1.00
O995   O     0.70492   0.04509   0.53958   0.00000  Uiso   1.00
O996   O     0.79509   0.45491   0.46042   0.00000  Uiso   1.00
O997   O     0.70492   0.45491   0.46042   0.00000  Uiso   1.00
O998   O     0.79509   0.04509   0.53958   0.00000  Uiso   1.00
O999   O     0.79509   0.04509   0.46042   0.00000  Uiso   1.00
O1000  O     0.70492   0.45491   0.53958   0.00000  Uiso   1.00
O1001  O     0.96256   0.13041   0.37360   0.00000  Uiso   1.00
O1002  O     0.52782   0.13776   0.36003   0.00000  Uiso   1.00
O1003  O     0.50221   0.15390   0.43181   0.00000  Uiso   1.00
O1004  O     0.95492   0.29509   0.46042   0.00000  Uiso   1.00
O1005  O     0.98210   0.37206   0.63095   0.00000  Uiso   1.00
O1006  O     0.54113   0.34988   0.64402   0.00000  Uiso   1.00
O1007  O     0.50715   0.33595   0.57458   0.00000  Uiso   1.00
O1008  O     0.54231   0.36500   0.38207   0.00000  Uiso   1.00
O1009  O     0.97867   0.36167   0.36659   0.00000  Uiso   1.00
O1010  O     0.99502   0.34617   0.43609   0.00000  Uiso   1.00
O1011  O     0.52427   0.13082   0.62310   0.00000  Uiso   1.00
O1012  O     0.96179   0.14753   0.63734   0.00000  Uiso   1.00
O1013  O     0.99523   0.16466   0.56960   0.00000  Uiso   1.00
O1014  O     0.72153   0.38344   0.36882   0.00000  Uiso   1.00
O1015  O     0.95492   0.29509   0.53958   0.00000  Uiso   1.00
O1016  O     0.78443   0.38931   0.37600   0.00000  Uiso   1.00
O1017  O     0.74954   0.43057   0.42344   0.00000  Uiso   1.00
O1018  O     0.72795   0.11018   0.63744   0.00000  Uiso   1.00
O1019  O     0.78744   0.11116   0.62933   0.00000  Uiso   1.00
O1020  O     0.75202   0.09698   0.56142   0.00000  Uiso   1.00
O1021  O     0.77651   0.11579   0.36674   0.00000  Uiso   1.00
O1022  O     0.71430   0.10852   0.37479   0.00000  Uiso   1.00
O1023  O     0.75054   0.07332   0.42651   0.00000  Uiso   1.00
O1024  O     0.77294   0.39012   0.63726   0.00000  Uiso   1.00
O1025  O     0.71250   0.38751   0.63005   0.00000  Uiso   1.00
O1026  O     0.54509   0.20491   0.46042   0.00000  Uiso   1.00
O1027  O     0.73887   0.40184   0.56247   0.00000  Uiso   1.00
O1028  O     0.93821   0.19292   0.39722   0.00000  Uiso   1.00
O1029  O     0.88077   0.16841   0.37955   0.00000  Uiso   1.00
O1030  O     0.89163   0.23614   0.38275   0.00000  Uiso   1.00
O1031  O     0.56445   0.29295   0.60344   0.00000  Uiso   1.00
O1032  O     0.62328   0.29493   0.58412   0.00000  Uiso   1.00
O1033  O     0.60853   0.33797   0.64407   0.00000  Uiso   1.00
O1034  O     0.56809   0.30265   0.39695   0.00000  Uiso   1.00
O1035  O     0.63139   0.32258   0.38448   0.00000  Uiso   1.00
O1036  O     0.61427   0.25762   0.38742   0.00000  Uiso   1.00
O1037  O     0.95492   0.20491   0.46042   0.00000  Uiso   1.00
O1038  O     0.93633   0.20357   0.60398   0.00000  Uiso   1.00
O1039  O     0.87883   0.21274   0.58242   0.00000  Uiso   1.00
O1040  O     0.88853   0.16451   0.63998   0.00000  Uiso   1.00
O1041  O     0.56547   0.18435   0.60166   0.00000  Uiso   1.00
O1042  O     0.62026   0.16112   0.61366   0.00000  Uiso   1.00
O1043  O     0.62231   0.22643   0.61517   0.00000  Uiso   1.00
O1044  O     0.94215   0.29972   0.39684   0.00000  Uiso   1.00
O1045  O     0.88138   0.29612   0.41507   0.00000  Uiso   1.00
O1046  O     0.92128   0.31891   0.35629   0.00000  Uiso   1.00
O1047  O     0.93853   0.32846   0.59688   0.00000  Uiso   1.00
O1048  O     0.54509   0.29509   0.53958   0.00000  Uiso   1.00
O1049  O     0.88573   0.34935   0.61389   0.00000  Uiso   1.00
O1050  O     0.88166   0.28102   0.61123   0.00000  Uiso   1.00
O1051  O     0.55975   0.18949   0.39583   0.00000  Uiso   1.00
O1052  O     0.61507   0.20183   0.42753   0.00000  Uiso   1.00
O1053  O     0.61440   0.16859   0.35922   0.00000  Uiso   1.00
O1054  O     0.68533   0.42588   0.40357   0.00000  Uiso   1.00
O1055  O     0.65180   0.39080   0.35089   0.00000  Uiso   1.00
O1056  O     0.63406   0.45480   0.38085   0.00000  Uiso   1.00
O1057  O     0.84442   0.12387   0.60590   0.00000  Uiso   1.00
O1058  O     0.82320   0.05464   0.60068   0.00000  Uiso   1.00
O1059  O     0.54509   0.29509   0.46042   0.00000  Uiso   1.00
O1060  O     0.88972   0.06858   0.59388   0.00000  Uiso   1.00
O1061  O     0.81357   0.07939   0.40591   0.00000  Uiso   1.00
O1062  O     0.84594   0.11421   0.35247   0.00000  Uiso   1.00
O1063  O     0.86704   0.05145   0.38025   0.00000  Uiso   1.00
O1064  O     0.65375   0.37721   0.60766   0.00000  Uiso   1.00
O1065  O     0.67769   0.44513   0.60137   0.00000  Uiso   1.00
O1066  O     0.61097   0.43462   0.59443   0.00000  Uiso   1.00
O1067  O     0.81069   0.43049   0.59687   0.00000  Uiso   1.00
O1068  O     0.83194   0.37345   0.62700   0.00000  Uiso   1.00
O1069  O     0.86672   0.43795   0.62556   0.00000  Uiso   1.00
O1070  O     0.95492   0.20491   0.53958   0.00000  Uiso   1.00
O1071  O     0.65330   0.11614   0.38674   0.00000  Uiso   1.00
O1072  O     0.67714   0.05230   0.39936   0.00000  Uiso   1.00
O1073  O     0.60757   0.05996   0.40098   0.00000  Uiso   1.00
O1074  O     0.68894   0.07090   0.59692   0.00000  Uiso   1.00
O1075  O     0.66947   0.12813   0.62751   0.00000  Uiso   1.00
O1076  O     0.63262   0.06493   0.62699   0.00000  Uiso   1.00
O1077  O     0.85089   0.38378   0.38029   0.00000  Uiso   1.00
O1078  O     0.82191   0.44586   0.39864   0.00000  Uiso   1.00
O1079  O     0.89161   0.44303   0.40104   0.00000  Uiso   1.00
O1080  O     0.79509   0.45491   0.53958   0.00000  Uiso   1.00
S1081  S     0.99599   0.15852   0.37993   0.00000  Uiso   1.00
S1082  S     0.59461   0.32463   0.59356   0.00000  Uiso   1.00
S1083  S     0.60578   0.30142   0.41341   0.00000  Uiso   1.00
S1084  S     0.90273   0.17822   0.59193   0.00000  Uiso   1.00
S1085  S     0.60364   0.18689   0.58623   0.00000  Uiso   1.00
S1086  S     0.91064   0.32677   0.40601   0.00000  Uiso   1.00
S1087  S     0.89996   0.32218   0.58464   0.00000  Uiso   1.00
S1088  S     0.59405   0.16792   0.40706   0.00000  Uiso   1.00
S1089  S     0.64958   0.40997   0.39491   0.00000  Uiso   1.00
S1090  S     0.84933   0.08633   0.58150   0.00000  Uiso   1.00
S1091  S     0.84920   0.09461   0.39574   0.00000  Uiso   1.00
S1092  S     0.50619   0.33589   0.62528   0.00000  Uiso   1.00
S1093  S     0.65068   0.41425   0.58252   0.00000  Uiso   1.00
S1094  S     0.84208   0.40582   0.59550   0.00000  Uiso   1.00
S1095  S     0.64791   0.08115   0.41399   0.00000  Uiso   1.00
S1096  S     0.65782   0.09607   0.59650   0.00000  Uiso   1.00
S1097  S     0.85224   0.41793   0.41140   0.00000  Uiso   1.00
S1098  S     0.50765   0.33839   0.38638   0.00000  Uiso   1.00
S1099  S     0.99702   0.16426   0.62000   0.00000  Uiso   1.00
S1100  S     0.75144   0.41451   0.37787   0.00000  Uiso   1.00
S1101  S     0.75570   0.08605   0.61613   0.00000  Uiso   1.00
S1102  S     0.74753   0.08486   0.37864   0.00000  Uiso   1.00
S1103  S     0.74417   0.41311   0.61679   0.00000  Uiso   1.00
S1104  S     0.89970   0.19349   0.40969   0.00000  Uiso   1.00
C1105  C     0.05989   0.69249   0.49956   0.00000  Uiso   1.00
C1106  C     0.49922   0.78520   0.64510   0.00000  Uiso   1.00
C1107  C     0.00422   0.78560   0.35885   0.00000  Uiso   1.00
C1108  C     0.00184   0.71465   0.64320   0.00000  Uiso   1.00
C1109  C     0.24956   0.96466   0.35530   0.00000  Uiso   1.00
C1110  C     0.25308   0.53522   0.64190   0.00000  Uiso   1.00
C1111  C     0.25026   0.53503   0.35567   0.00000  Uiso   1.00
C1112  C     0.24673   0.96455   0.64175   0.00000  Uiso   1.00
C1113  C     0.38659   0.65687   0.45658   0.00000  Uiso   1.00
C1114  C     0.10918   0.85383   0.53921   0.00000  Uiso   1.00
C1115  C     0.11418   0.84348   0.45726   0.00000  Uiso   1.00
C1116  C     0.44047   0.80771   0.49949   0.00000  Uiso   1.00
C1117  C     0.38901   0.64805   0.53855   0.00000  Uiso   1.00
C1118  C     0.11431   0.65160   0.53878   0.00000  Uiso   1.00
C1119  C     0.39415   0.85809   0.45634   0.00000  Uiso   1.00
C1120  C     0.38699   0.85170   0.53672   0.00000  Uiso   1.00
C1121  C     0.10808   0.64066   0.45857   0.00000  Uiso   1.00
C1122  C     0.13892   0.88368   0.45122   0.00000  Uiso   1.00
C1123  C     0.35912   0.61380   0.53366   0.00000  Uiso   1.00
C1124  C     0.36072   0.61814   0.45148   0.00000  Uiso   1.00
C1125  C     0.13997   0.88731   0.53416   0.00000  Uiso   1.00
C1126  C     0.35868   0.88632   0.54017   0.00000  Uiso   1.00
C1127  C     0.43973   0.69416   0.49995   0.00000  Uiso   1.00
C1128  C     0.13899   0.60900   0.46180   0.00000  Uiso   1.00
C1129  C     0.14201   0.61576   0.54196   0.00000  Uiso   1.00
C1130  C     0.36217   0.89012   0.45939   0.00000  Uiso   1.00
C1131  C     0.09546   0.83540   0.49911   0.00000  Uiso   1.00
C1132  C     0.40396   0.66573   0.49870   0.00000  Uiso   1.00
C1133  C     0.40671   0.84023   0.49706   0.00000  Uiso   1.00
C1134  C     0.09444   0.66051   0.49864   0.00000  Uiso   1.00
C1135  C     0.34329   0.59798   0.49314   0.00000  Uiso   1.00
C1136  C     0.15611   0.90313   0.49332   0.00000  Uiso   1.00
C1137  C     0.15698   0.59529   0.50176   0.00000  Uiso   1.00
C1138  C     0.06009   0.80621   0.49995   0.00000  Uiso   1.00
C1139  C     0.34358   0.90501   0.50003   0.00000  Uiso   1.00
C1140  C     0.30966   0.94067   0.49991   0.00000  Uiso   1.00
C1141  C     0.18978   0.55861   0.50015   0.00000  Uiso   1.00
C1142  C     0.19057   0.93984   0.49858   0.00000  Uiso   1.00
C1143  C     0.30929   0.56046   0.49851   0.00000  Uiso   1.00
C1144  C     0.49792   0.71363   0.35705   0.00000  Uiso   1.00
Cu1145 Cu    0.00000   0.75000   0.54689   0.00000  Uiso   1.00
Cu1146 Cu    0.00000   0.75000   0.45311   0.00000  Uiso   1.00
Cu1147 Cu    0.25000   0.50000   0.54689   0.00000  Uiso   1.00
Cu1148 Cu    0.25000   0.50000   0.45311   0.00000  Uiso   1.00
H1149  H     0.02688   0.64180   0.43597   0.00000  Uiso   1.00
H1150  H     0.09717   0.85835   0.66349   0.00000  Uiso   1.00
H1151  H     0.09665   0.75506   0.36305   0.00000  Uiso   1.00
H1152  H     0.40015   0.63855   0.64697   0.00000  Uiso   1.00
H1153  H     0.11830   0.72063   0.64637   0.00000  Uiso   1.00
H1154  H     0.40324   0.82600   0.33870   0.00000  Uiso   1.00
H1155  H     0.37511   0.78543   0.64205   0.00000  Uiso   1.00
H1156  H     0.11866   0.64393   0.34377   0.00000  Uiso   1.00
H1157  H     0.15417   0.96385   0.36017   0.00000  Uiso   1.00
H1158  H     0.38949   0.54049   0.58157   0.00000  Uiso   1.00
H1159  H     0.34668   0.54135   0.36099   0.00000  Uiso   1.00
H1160  H     0.02768   0.85499   0.56724   0.00000  Uiso   1.00
H1161  H     0.11301   0.96266   0.58246   0.00000  Uiso   1.00
H1162  H     0.34933   0.94391   0.64986   0.00000  Uiso   1.00
H1163  H     0.11196   0.53042   0.39980   0.00000  Uiso   1.00
H1164  H     0.14971   0.55919   0.65115   0.00000  Uiso   1.00
H1165  H     0.38510   0.97082   0.41698   0.00000  Uiso   1.00
H1166  H     0.46953   0.85769   0.43610   0.00000  Uiso   1.00
H1167  H     0.47478   0.64527   0.56287   0.00000  Uiso   1.00
H1168  H     0.25058   0.90801   0.44324   0.00000  Uiso   1.00
H1169  H     0.23253   0.59503   0.53829   0.00000  Uiso   1.00
H1170  H     0.24891   0.59438   0.44882   0.00000  Uiso   1.00
H1171  H     0.23372   0.90234   0.53580   0.00000  Uiso   1.00
H1172  H     0.40989   0.73792   0.35856   0.00000  Uiso   1.00
N1173  N     0.00000   0.75000   0.61736   0.00000  Uiso   1.00
N1174  N     0.00000   0.75000   0.38264   0.00000  Uiso   1.00
N1175  N     0.25000   0.50000   0.61736   0.00000  Uiso   1.00
N1176  N     0.25000   0.50000   0.38264   0.00000  Uiso   1.00
O1177  O     0.04509   0.70491   0.53958   0.00000  Uiso   1.00
O1178  O     0.20492   0.54509   0.46042   0.00000  Uiso   1.00
O1179  O     0.20492   0.54509   0.53958   0.00000  Uiso   1.00
O1180  O     0.29509   0.95491   0.46042   0.00000  Uiso   1.00
O1181  O     0.20492   0.95491   0.46042   0.00000  Uiso   1.00
O1182  O     0.29509   0.54509   0.53958   0.00000  Uiso   1.00
O1183  O     0.29509   0.54509   0.46042   0.00000  Uiso   1.00
O1184  O     0.20492   0.95491   0.53958   0.00000  Uiso   1.00
O1185  O     0.46256   0.63041   0.37360   0.00000  Uiso   1.00
O1186  O     0.02782   0.63776   0.36003   0.00000  Uiso   1.00
O1187  O     0.00221   0.65390   0.43181   0.00000  Uiso   1.00
O1188  O     0.45492   0.79509   0.46042   0.00000  Uiso   1.00
O1189  O     0.48210   0.87206   0.63095   0.00000  Uiso   1.00
O1190  O     0.04113   0.84988   0.64402   0.00000  Uiso   1.00
O1191  O     0.00715   0.83595   0.57458   0.00000  Uiso   1.00
O1192  O     0.04231   0.86500   0.38207   0.00000  Uiso   1.00
O1193  O     0.47867   0.86167   0.36659   0.00000  Uiso   1.00
O1194  O     0.49502   0.84617   0.43609   0.00000  Uiso   1.00
O1195  O     0.02427   0.63082   0.62310   0.00000  Uiso   1.00
O1196  O     0.46179   0.64753   0.63734   0.00000  Uiso   1.00
O1197  O     0.49523   0.66466   0.56960   0.00000  Uiso   1.00
O1198  O     0.22153   0.88344   0.36882   0.00000  Uiso   1.00
O1199  O     0.45492   0.79509   0.53958   0.00000  Uiso   1.00
O1200  O     0.28443   0.88931   0.37600   0.00000  Uiso   1.00
O1201  O     0.24954   0.93057   0.42344   0.00000  Uiso   1.00
O1202  O     0.22795   0.61018   0.63744   0.00000  Uiso   1.00
O1203  O     0.28744   0.61116   0.62933   0.00000  Uiso   1.00
O1204  O     0.25202   0.59698   0.56142   0.00000  Uiso   1.00
O1205  O     0.27651   0.61579   0.36674   0.00000  Uiso   1.00
O1206  O     0.21430   0.60852   0.37479   0.00000  Uiso   1.00
O1207  O     0.25054   0.57332   0.42651   0.00000  Uiso   1.00
O1208  O     0.27294   0.89012   0.63726   0.00000  Uiso   1.00
O1209  O     0.21250   0.88751   0.63005   0.00000  Uiso   1.00
O1210  O     0.04509   0.70491   0.46042   0.00000  Uiso   1.00
O1211  O     0.23887   0.90184   0.56247   0.00000  Uiso   1.00
O1212  O     0.43821   0.69292   0.39722   0.00000  Uiso   1.00
O1213  O     0.38077   0.66841   0.37955   0.00000  Uiso   1.00
O1214  O     0.39163   0.73614   0.38275   0.00000  Uiso   1.00
O1215  O     0.06445   0.79295   0.60344   0.00000  Uiso   1.00
O1216  O     0.12328   0.79493   0.58412   0.00000  Uiso   1.00
O1217  O     0.10853   0.83797   0.64407   0.00000  Uiso   1.00
O1218  O     0.06809   0.80265   0.39695   0.00000  Uiso   1.00
O1219  O     0.13139   0.82258   0.38448   0.00000  Uiso   1.00
O1220  O     0.11427   0.75762   0.38742   0.00000  Uiso   1.00
O1221  O     0.45492   0.70491   0.46042   0.00000  Uiso   1.00
O1222  O     0.43633   0.70357   0.60398   0.00000  Uiso   1.00
O1223  O     0.37883   0.71274   0.58242   0.00000  Uiso   1.00
O1224  O     0.38853   0.66451   0.63998   0.00000  Uiso   1.00
O1225  O     0.06547   0.68435   0.60166   0.00000  Uiso   1.00
O1226  O     0.12026   0.66112   0.61366   0.00000  Uiso   1.00
O1227  O     0.12231   0.72643   0.61517   0.00000  Uiso   1.00
O1228  O     0.44215   0.79972   0.39684   0.00000  Uiso   1.00
O1229  O     0.38138   0.79612   0.41507   0.00000  Uiso   1.00
O1230  O     0.42128   0.81891   0.35629   0.00000  Uiso   1.00
O1231  O     0.43853   0.82846   0.59688   0.00000  Uiso   1.00
O1232  O     0.04509   0.79509   0.53958   0.00000  Uiso   1.00
O1233  O     0.38573   0.84935   0.61389   0.00000  Uiso   1.00
O1234  O     0.38166   0.78102   0.61123   0.00000  Uiso   1.00
O1235  O     0.05975   0.68949   0.39583   0.00000  Uiso   1.00
O1236  O     0.11507   0.70183   0.42753   0.00000  Uiso   1.00
O1237  O     0.11440   0.66859   0.35922   0.00000  Uiso   1.00
O1238  O     0.18533   0.92588   0.40357   0.00000  Uiso   1.00
O1239  O     0.15180   0.89080   0.35089   0.00000  Uiso   1.00
O1240  O     0.13406   0.95480   0.38085   0.00000  Uiso   1.00
O1241  O     0.34442   0.62387   0.60590   0.00000  Uiso   1.00
O1242  O     0.32320   0.55464   0.60068   0.00000  Uiso   1.00
O1243  O     0.04509   0.79509   0.46042   0.00000  Uiso   1.00
O1244  O     0.38972   0.56858   0.59388   0.00000  Uiso   1.00
O1245  O     0.31357   0.57939   0.40591   0.00000  Uiso   1.00
O1246  O     0.34594   0.61421   0.35247   0.00000  Uiso   1.00
O1247  O     0.36704   0.55145   0.38025   0.00000  Uiso   1.00
O1248  O     0.15375   0.87721   0.60766   0.00000  Uiso   1.00
O1249  O     0.17769   0.94513   0.60137   0.00000  Uiso   1.00
O1250  O     0.11097   0.93462   0.59443   0.00000  Uiso   1.00
O1251  O     0.31069   0.93049   0.59687   0.00000  Uiso   1.00
O1252  O     0.33194   0.87345   0.62700   0.00000  Uiso   1.00
O1253  O     0.36672   0.93795   0.62556   0.00000  Uiso   1.00
O1254  O     0.45492   0.70491   0.53958   0.00000  Uiso   1.00
O1255  O     0.15330   0.61614   0.38674   0.00000  Uiso   1.00
O1256  O     0.17714   0.55230   0.39936   0.00000  Uiso   1.00
O1257  O     0.10757   0.55996   0.40098   0.00000  Uiso   1.00
O1258  O     0.18894   0.57090   0.59692   0.00000  Uiso   1.00
O1259  O     0.16947   0.62813   0.62751   0.00000  Uiso   1.00
O1260  O     0.13262   0.56493   0.62699   0.00000  Uiso   1.00
O1261  O     0.35089   0.88378   0.38029   0.00000  Uiso   1.00
O1262  O     0.32191   0.94586   0.39864   0.00000  Uiso   1.00
O1263  O     0.39161   0.94303   0.40104   0.00000  Uiso   1.00
O1264  O     0.29509   0.95491   0.53958   0.00000  Uiso   1.00
S1265  S     0.49599   0.65852   0.37993   0.00000  Uiso   1.00
S1266  S     0.09461   0.82463   0.59356   0.00000  Uiso   1.00
S1267  S     0.10578   0.80142   0.41341   0.00000  Uiso   1.00
S1268  S     0.40273   0.67822   0.59193   0.00000  Uiso   1.00
S1269  S     0.10364   0.68689   0.58623   0.00000  Uiso   1.00
S1270  S     0.41064   0.82677   0.40601   0.00000  Uiso   1.00
S1271  S     0.39996   0.82218   0.58464   0.00000  Uiso   1.00
S1272  S     0.09405   0.66792   0.40706   0.00000  Uiso   1.00
S1273  S     0.14958   0.90997   0.39491   0.00000  Uiso   1.00
S1274  S     0.34933   0.58633   0.58150   0.00000  Uiso   1.00
S1275  S     0.34920   0.59461   0.39574   0.00000  Uiso   1.00
S1276  S     0.00619   0.83589   0.62528   0.00000  Uiso   1.00
S1277  S     0.15068   0.91425   0.58252   0.00000  Uiso   1.00
S1278  S     0.34208   0.90582   0.59550   0.00000  Uiso   1.00
S1279  S     0.14791   0.58115   0.41399   0.00000  Uiso   1.00
S1280  S     0.15782   0.59607   0.59650   0.00000  Uiso   1.00
S1281  S     0.35224   0.91793   0.41140   0.00000  Uiso   1.00
S1282  S     0.00765   0.83839   0.38638   0.00000  Uiso   1.00
S1283  S     0.49702   0.66426   0.62000   0.00000  Uiso   1.00
S1284  S     0.25144   0.91451   0.37787   0.00000  Uiso   1.00
S1285  S     0.25570   0.58605   0.61613   0.00000  Uiso   1.00
S1286  S     0.24753   0.58486   0.37864   0.00000  Uiso   1.00
S1287  S     0.24417   0.91311   0.61679   0.00000  Uiso   1.00
S1288  S     0.39970   0.69349   0.40969   0.00000  Uiso   1.00
C1289  C     0.55989   0.69249   0.49956   0.00000  Uiso   1.00
C1290  C     0.99922   0.78520   0.64510   0.00000  Uiso   1.00
C1291  C     0.50422   0.78560   0.35885   0.00000  Uiso   1.00
C1292  C     0.50184   0.71465   0.64320   0.00000  Uiso   1.00
C1293  C     0.74956   0.96466   0.35530   0.00000  Uiso   1.00
C1294  C     0.75308   0.53522   0.64190   0.00000  Uiso   1.00
C1295  C     0.75026   0.53503   0.35567   0.00000  Uiso   1.00
C1296  C     0.74673   0.96455   0.64175   0.00000  Uiso   1.00
C1297  C     0.88659   0.65687   0.45658   0.00000  Uiso   1.00
C1298  C     0.60918   0.85383   0.53921   0.00000  Uiso   1.00
C1299  C     0.61418   0.84348   0.45726   0.00000  Uiso   1.00
C1300  C     0.94047   0.80771   0.49949   0.00000  Uiso   1.00
C1301  C     0.88901   0.64805   0.53855   0.00000  Uiso   1.00
C1302  C     0.61431   0.65160   0.53878   0.00000  Uiso   1.00
C1303  C     0.89415   0.85809   0.45634   0.00000  Uiso   1.00
C1304  C     0.88699   0.85170   0.53672   0.00000  Uiso   1.00
C1305  C     0.60808   0.64066   0.45857   0.00000  Uiso   1.00
C1306  C     0.63892   0.88368   0.45122   0.00000  Uiso   1.00
C1307  C     0.85912   0.61380   0.53366   0.00000  Uiso   1.00
C1308  C     0.86072   0.61814   0.45148   0.00000  Uiso   1.00
C1309  C     0.63997   0.88731   0.53416   0.00000  Uiso   1.00
C1310  C     0.85868   0.88632   0.54017   0.00000  Uiso   1.00
C1311  C     0.93973   0.69416   0.49995   0.00000  Uiso   1.00
C1312  C     0.63899   0.60900   0.46180   0.00000  Uiso   1.00
C1313  C     0.64201   0.61576   0.54196   0.00000  Uiso   1.00
C1314  C     0.86217   0.89012   0.45939   0.00000  Uiso   1.00
C1315  C     0.59546   0.83540   0.49911   0.00000  Uiso   1.00
C1316  C     0.90396   0.66573   0.49870   0.00000  Uiso   1.00
C1317  C     0.90671   0.84023   0.49706   0.00000  Uiso   1.00
C1318  C     0.59444   0.66051   0.49864   0.00000  Uiso   1.00
C1319  C     0.84329   0.59798   0.49314   0.00000  Uiso   1.00
C1320  C     0.65611   0.90313   0.49332   0.00000  Uiso   1.00
C1321  C     0.65698   0.59529   0.50176   0.00000  Uiso   1.00
C1322  C     0.56009   0.80621   0.49995   0.00000  Uiso   1.00
C1323  C     0.84358   0.90501   0.50003   0.00000  Uiso   1.00
C1324  C     0.80966   0.94067   0.49991   0.00000  Uiso   1.00
C1325  C     0.68978   0.55861   0.50015   0.00000  Uiso   1.00
C1326  C     0.69057   0.93984   0.49858   0.00000  Uiso   1.00
C1327  C     0.80929   0.56046   0.49851   0.00000  Uiso   1.00
C1328  C     0.99792   0.71363   0.35705   0.00000  Uiso   1.00
Cu1329 Cu    0.50000   0.75000   0.54689   0.00000  Uiso   1.00
Cu1330 Cu    0.50000   0.75000   0.45311   0.00000  Uiso   1.00
Cu1331 Cu    0.75000   0.50000   0.54689   0.00000  Uiso   1.00
Cu1332 Cu    0.75000   0.50000   0.45311   0.00000  Uiso   1.00
H1333  H     0.52688   0.64180   0.43597   0.00000  Uiso   1.00
H1334  H     0.59717   0.85835   0.66349   0.00000  Uiso   1.00
H1335  H     0.59665   0.75506   0.36305   0.00000  Uiso   1.00
H1336  H     0.90015   0.63855   0.64697   0.00000  Uiso   1.00
H1337  H     0.61830   0.72063   0.64637   0.00000  Uiso   1.00
H1338  H     0.90324   0.82600   0.33870   0.00000  Uiso   1.00
H1339  H     0.87511   0.78543   0.64205   0.00000  Uiso   1.00
H1340  H     0.61866   0.64393   0.34377   0.00000  Uiso   1.00
H1341  H     0.65417   0.96385   0.36017   0.00000  Uiso   1.00
H1342  H     0.88949   0.54049   0.58157   0.00000  Uiso   1.00
H1343  H     0.84668   0.54135   0.36099   0.00000  Uiso   1.00
H1344  H     0.52768   0.85499   0.56724   0.00000  Uiso   1.00
H1345  H     0.61301   0.96266   0.58246   0.00000  Uiso   1.00
H1346  H     0.84933   0.94391   0.64986   0.00000  Uiso   1.00
H1347  H     0.61196   0.53042   0.39980   0.00000  Uiso   1.00
H1348  H     0.64971   0.55919   0.65115   0.00000  Uiso   1.00
H1349  H     0.88510   0.97082   0.41698   0.00000  Uiso   1.00
H1350  H     0.96953   0.85769   0.43610   0.00000  Uiso   1.00
H1351  H     0.97478   0.64527   0.56287   0.00000  Uiso   1.00
H1352  H     0.75058   0.90801   0.44324   0.00000  Uiso   1.00
H1353  H     0.73253   0.59503   0.53829   0.00000  Uiso   1.00
H1354  H     0.74891   0.59438   0.44882   0.00000  Uiso   1.00
H1355  H     0.73372   0.90234   0.53580   0.00000  Uiso   1.00
H1356  H     0.90989   0.73792   0.35856   0.00000  Uiso   1.00
N1357  N     0.50000   0.75000   0.61736   0.00000  Uiso   1.00
N1358  N     0.50000   0.75000   0.38264   0.00000  Uiso   1.00
N1359  N     0.75000   0.50000   0.61736   0.00000  Uiso   1.00
N1360  N     0.75000   0.50000   0.38264   0.00000  Uiso   1.00
O1361  O     0.54509   0.70491   0.53958   0.00000  Uiso   1.00
O1362  O     0.70492   0.54509   0.46042   0.00000  Uiso   1.00
O1363  O     0.70492   0.54509   0.53958   0.00000  Uiso   1.00
O1364  O     0.79509   0.95491   0.46042   0.00000  Uiso   1.00
O1365  O     0.70492   0.95491   0.46042   0.00000  Uiso   1.00
O1366  O     0.79509   0.54509   0.53958   0.00000  Uiso   1.00
O1367  O     0.79509   0.54509   0.46042   0.00000  Uiso   1.00
O1368  O     0.70492   0.95491   0.53958   0.00000  Uiso   1.00
O1369  O     0.96256   0.63041   0.37360   0.00000  Uiso   1.00
O1370  O     0.52782   0.63776   0.36003   0.00000  Uiso   1.00
O1371  O     0.50221   0.65390   0.43181   0.00000  Uiso   1.00
O1372  O     0.95492   0.79509   0.46042   0.00000  Uiso   1.00
O1373  O     0.98210   0.87206   0.63095   0.00000  Uiso   1.00
O1374  O     0.54113   0.84988   0.64402   0.00000  Uiso   1.00
O1375  O     0.50715   0.83595   0.57458   0.00000  Uiso   1.00
O1376  O     0.54231   0.86500   0.38207   0.00000  Uiso   1.00
O1377  O     0.97867   0.86167   0.36659   0.00000  Uiso   1.00
O1378  O     0.99502   0.84617   0.43609   0.00000  Uiso   1.00
O1379  O     0.52427   0.63082   0.62310   0.00000  Uiso   1.00
O1380  O     0.96179   0.64753   0.63734   0.00000  Uiso   1.00
O1381  O     0.99523   0.66466   0.56960   0.00000  Uiso   1.00
O1382  O     0.72153   0.88344   0.36882   0.00000  Uiso   1.00
O1383  O     0.95492   0.79509   0.53958   0.00000  Uiso   1.00
O1384  O     0.78443   0.88931   0.37600   0.00000  Uiso   1.00
O1385  O     0.74954   0.93057   0.42344   0.00000  Uiso   1.00
O1386  O     0.72795   0.61018   0.63744   0.00000  Uiso   1.00
O1387  O     0.78744   0.61116   0.62933   0.00000  Uiso   1.00
O1388  O     0.75202   0.59698   0.56142   0.00000  Uiso   1.00
O1389  O     0.77651   0.61579   0.36674   0.00000  Uiso   1.00
O1390  O     0.71430   0.60852   0.37479   0.00000  Uiso   1.00
O1391  O     0.75054   0.57332   0.42651   0.00000  Uiso   1.00
O1392  O     0.77294   0.89012   0.63726   0.00000  Uiso   1.00
O1393  O     0.71250   0.88751   0.63005   0.00000  Uiso   1.00
O1394  O     0.54509   0.70491   0.46042   0.00000  Uiso   1.00
O1395  O     0.73887   0.90184   0.56247   0.00000  Uiso   1.00
O1396  O     0.93821   0.69292   0.39722   0.00000  Uiso   1.00
O1397  O     0.88077   0.66841   0.37955   0.00000  Uiso   1.00
O1398  O     0.89163   0.73614   0.38275   0.00000  Uiso   1.00
O1399  O     0.56445   0.79295   0.60344   0.00000  Uiso   1.00
O1400  O     0.62328   0.79493   0.58412   0.00000  Uiso   1.00
O1401  O     0.60853   0.83797   0.64407   0.00000  Uiso   1.00
O1402  O     0.56809   0.80265   0.39695   0.00000  Uiso   1.00
O1403  O     0.63139   0.82258   0.38448   0.00000  Uiso   1.00
O1404  O     0.61427   0.75762   0.38742   0.00000  Uiso   1.00
O1405  O     0.95492   0.70491   0.46042   0.00000  Uiso   1.00
O1406  O     0.93633   0.70357   0.60398   0.00000  Uiso   1.00
O1407  O     0.87883   0.71274   0.58242   0.00000  Uiso   1.00
O1408  O     0.88853   0.66451   0.63998   0.00000  Uiso   1.00
O1409  O     0.56547   0.68435   0.60166   0.00000  Uiso   1.00
O1410  O     0.62026   0.66112   0.61366   0.00000  Uiso   1.00
O1411  O     0.62231   0.72643   0.61517   0.00000  Uiso   1.00
O1412  O     0.94215   0.79972   0.39684   0.00000  Uiso   1.00
O1413  O     0.88138   0.79612   0.41507   0.00000  Uiso   1.00
O1414  O     0.92128   0.81891   0.35629   0.00000  Uiso   1.00
O1415  O     0.93853   0.82846   0.59688   0.00000  Uiso   1.00
O1416  O     0.54509   0.79509   0.53958   0.00000  Uiso   1.00
O1417  O     0.88573   0.84935   0.61389   0.00000  Uiso   1.00
O1418  O     0.88166   0.78102   0.61123   0.00000  Uiso   1.00
O1419  O     0.55975   0.68949   0.39583   0.00000  Uiso   1.00
O1420  O     0.61507   0.70183   0.42753   0.00000  Uiso   1.00
O1421  O     0.61440   0.66859   0.35922   0.00000  Uiso   1.00
O1422  O     0.68533   0.92588   0.40357   0.00000  Uiso   1.00
O1423  O     0.65180   0.89080   0.35089   0.00000  Uiso   1.00
O1424  O     0.63406   0.95480   0.38085   0.00000  Uiso   1.00
O1425  O     0.84442   0.62387   0.60590   0.00000  Uiso   1.00
O1426  O     0.82320   0.55464   0.60068   0.00000  Uiso   1.00
O1427  O     0.54509   0.79509   0.46042   0.00000  Uiso   1.00
O1428  O     0.88972   0.56858   0.59388   0.00000  Uiso   1.00
O1429  O     0.81357   0.57939   0.40591   0.00000  Uiso   1.00
O1430  O     0.84594   0.61421   0.35247   0.00000  Uiso   1.00
O1431  O     0.86704   0.55145   0.38025   0.00000  Uiso   1.00
O1432  O     0.65375   0.87721   0.60766   0.00000  Uiso   1.00
O1433  O     0.67769   0.94513   0.60137   0.00000  Uiso   1.00
O1434  O     0.61097   0.93462   0.59443   0.00000  Uiso   1.00
O1435  O     0.81069   0.93049   0.59687   0.00000  Uiso   1.00
O1436  O     0.83194   0.87345   0.62700   0.00000  Uiso   1.00
O1437  O     0.86672   0.93795   0.62556   0.00000  Uiso   1.00
O1438  O     0.95492   0.70491   0.53958   0.00000  Uiso   1.00
O1439  O     0.65330   0.61614   0.38674   0.00000  Uiso   1.00
O1440  O     0.67714   0.55230   0.39936   0.00000  Uiso   1.00
O1441  O     0.60757   0.55996   0.40098   0.00000  Uiso   1.00
O1442  O     0.68894   0.57090   0.59692   0.00000  Uiso   1.00
O1443  O     0.66947   0.62813   0.62751   0.00000  Uiso   1.00
O1444  O     0.63262   0.56493   0.62699   0.00000  Uiso   1.00
O1445  O     0.85089   0.88378   0.38029   0.00000  Uiso   1.00
O1446  O     0.82191   0.94586   0.39864   0.00000  Uiso   1.00
O1447  O     0.89161   0.94303   0.40104   0.00000  Uiso   1.00
O1448  O     0.79509   0.95491   0.53958   0.00000  Uiso   1.00
S1449  S     0.99599   0.65852   0.37993   0.00000  Uiso   1.00
S1450  S     0.59461   0.82463   0.59356   0.00000  Uiso   1.00
S1451  S     0.60578   0.80142   0.41341   0.00000  Uiso   1.00
S1452  S     0.90273   0.67822   0.59193   0.00000  Uiso   1.00
S1453  S     0.60364   0.68689   0.58623   0.00000  Uiso   1.00
S1454  S     0.91064   0.82677   0.40601   0.00000  Uiso   1.00
S1455  S     0.89996   0.82218   0.58464   0.00000  Uiso   1.00
S1456  S     0.59405   0.66792   0.40706   0.00000  Uiso   1.00
S1457  S     0.64958   0.90997   0.39491   0.00000  Uiso   1.00
S1458  S     0.84933   0.58633   0.58150   0.00000  Uiso   1.00
S1459  S     0.84920   0.59461   0.39574   0.00000  Uiso   1.00
S1460  S     0.50619   0.83589   0.62528   0.00000  Uiso   1.00
S1461  S     0.65068   0.91425   0.58252   0.00000  Uiso   1.00
S1462  S     0.84208   0.90582   0.59550   0.00000  Uiso   1.00
S1463  S     0.64791   0.58115   0.41399   0.00000  Uiso   1.00
S1464  S     0.65782   0.59607   0.59650   0.00000  Uiso   1.00
S1465  S     0.85224   0.91793   0.41140   0.00000  Uiso   1.00
S1466  S     0.50765   0.83839   0.38638   0.00000  Uiso   1.00
S1467  S     0.99702   0.66426   0.62000   0.00000  Uiso   1.00
S1468  S     0.75144   0.91451   0.37787   0.00000  Uiso   1.00
S1469  S     0.75570   0.58605   0.61613   0.00000  Uiso   1.00
S1470  S     0.74753   0.58486   0.37864   0.00000  Uiso   1.00
S1471  S     0.74417   0.91311   0.61679   0.00000  Uiso   1.00
S1472  S     0.89970   0.69349   0.40969   0.00000  Uiso   1.00
C1473  C     0.05989   0.19249   0.83290   0.00000  Uiso   1.00
C1474  C     0.49922   0.28520   0.97844   0.00000  Uiso   1.00
C1475  C     0.00422   0.28560   0.69218   0.00000  Uiso   1.00
C1476  C     0.00184   0.21465   0.97653   0.00000  Uiso   1.00
C1477  C     0.24956   0.46466   0.68864   0.00000  Uiso   1.00
C1478  C     0.25308   0.03522   0.97523   0.00000  Uiso   1.00
C1479  C     0.25026   0.03503   0.68900   0.00000  Uiso   1.00
C1480  C     0.24673   0.46455   0.97508   0.00000  Uiso   1.00
C1481  C     0.38659   0.15687   0.78991   0.00000  Uiso   1.00
C1482  C     0.10918   0.35383   0.87254   0.00000  Uiso   1.00
C1483  C     0.11418   0.34348   0.79059   0.00000  Uiso   1.00
C1484  C     0.44047   0.30771   0.83283   0.00000  Uiso   1.00
C1485  C     0.38901   0.14805   0.87188   0.00000  Uiso   1.00
C1486  C     0.11431   0.15160   0.87211   0.00000  Uiso   1.00
C1487  C     0.39415   0.35809   0.78967   0.00000  Uiso   1.00
C1488  C     0.38699   0.35170   0.87005   0.00000  Uiso   1.00
C1489  C     0.10808   0.14066   0.79191   0.00000  Uiso   1.00
C1490  C     0.13892   0.38368   0.78455   0.00000  Uiso   1.00
C1491  C     0.35912   0.11380   0.86700   0.00000  Uiso   1.00
C1492  C     0.36072   0.11814   0.78481   0.00000  Uiso   1.00
C1493  C     0.13997   0.38731   0.86749   0.00000  Uiso   1.00
C1494  C     0.35868   0.38632   0.87351   0.00000  Uiso   1.00
C1495  C     0.43973   0.19416   0.83328   0.00000  Uiso   1.00
C1496  C     0.13899   0.10900   0.79514   0.00000  Uiso   1.00
C1497  C     0.14201   0.11576   0.87529   0.00000  Uiso   1.00
C1498  C     0.36217   0.39012   0.79272   0.00000  Uiso   1.00
C1499  C     0.09546   0.33540   0.83245   0.00000  Uiso   1.00
C1500  C     0.40396   0.16573   0.83204   0.00000  Uiso   1.00
C1501  C     0.40671   0.34023   0.83039   0.00000  Uiso   1.00
C1502  C     0.09444   0.16051   0.83198   0.00000  Uiso   1.00
C1503  C     0.34329   0.09798   0.82648   0.00000  Uiso   1.00
C1504  C     0.15611   0.40313   0.82665   0.00000  Uiso   1.00
C1505  C     0.15698   0.09529   0.83509   0.00000  Uiso   1.00
C1506  C     0.06009   0.30621   0.83328   0.00000  Uiso   1.00
C1507  C     0.34358   0.40501   0.83336   0.00000  Uiso   1.00
C1508  C     0.30966   0.44067   0.83324   0.00000  Uiso   1.00
C1509  C     0.18978   0.05861   0.83349   0.00000  Uiso   1.00
C1510  C     0.19057   0.43984   0.83192   0.00000  Uiso   1.00
C1511  C     0.30929   0.06046   0.83184   0.00000  Uiso   1.00
C1512  C     0.49792   0.21363   0.69039   0.00000  Uiso   1.00
Cu1513 Cu    0.00000   0.25000   0.88022   0.00000  Uiso   1.00
Cu1514 Cu    0.00000   0.25000   0.78645   0.00000  Uiso   1.00
Cu1515 Cu    0.25000   0.00000   0.88022   0.00000  Uiso   1.00
Cu1516 Cu    0.25000   0.00000   0.78645   0.00000  Uiso   1.00
H1517  H     0.02688   0.14180   0.76930   0.00000  Uiso   1.00
H1518  H     0.09717   0.35835   0.99682   0.00000  Uiso   1.00
H1519  H     0.09665   0.25506   0.69638   0.00000  Uiso   1.00
H1520  H     0.40015   0.13855   0.98030   0.00000  Uiso   1.00
H1521  H     0.11830   0.22063   0.97970   0.00000  Uiso   1.00
H1522  H     0.40324   0.32600   0.67204   0.00000  Uiso   1.00
H1523  H     0.37511   0.28543   0.97538   0.00000  Uiso   1.00
H1524  H     0.11866   0.14393   0.67711   0.00000  Uiso   1.00
H1525  H     0.15417   0.46385   0.69350   0.00000  Uiso   1.00
H1526  H     0.38949   0.04049   0.91490   0.00000  Uiso   1.00
H1527  H     0.34668   0.04135   0.69432   0.00000  Uiso   1.00
H1528  H     0.02768   0.35499   0.90057   0.00000  Uiso   1.00
H1529  H     0.11301   0.46266   0.91579   0.00000  Uiso   1.00
H1530  H     0.34933   0.44391   0.98319   0.00000  Uiso   1.00
H1531  H     0.11196   0.03042   0.73313   0.00000  Uiso   1.00
H1532  H     0.14971   0.05919   0.98449   0.00000  Uiso   1.00
H1533  H     0.38510   0.47082   0.75032   0.00000  Uiso   1.00
H1534  H     0.46953   0.35769   0.76943   0.00000  Uiso   1.00
H1535  H     0.47478   0.14527   0.89621   0.00000  Uiso   1.00
H1536  H     0.25058   0.40801   0.77657   0.00000  Uiso   1.00
H1537  H     0.23253   0.09503   0.87162   0.00000  Uiso   1.00
H1538  H     0.24891   0.09438   0.78215   0.00000  Uiso   1.00
H1539  H     0.23372   0.40234   0.86913   0.00000  Uiso   1.00
H1540  H     0.40989   0.23792   0.69190   0.00000  Uiso   1.00
N1541  N     0.00000   0.25000   0.95069   0.00000  Uiso   1.00
N1542  N     0.00000   0.25000   0.71598   0.00000  Uiso   1.00
N1543  N     0.25000   0.00000   0.95069   0.00000  Uiso   1.00
N1544  N     0.25000   0.00000   0.71598   0.00000  Uiso   1.00
O1545  O     0.04509   0.20491   0.87291   0.00000  Uiso   1.00
O1546  O     0.20492   0.04509   0.79375   0.00000  Uiso   1.00
O1547  O     0.20492   0.04509   0.87291   0.00000  Uiso   1.00
O1548  O     0.29509   0.45491   0.79375   0.00000  Uiso   1.00
O1549  O     0.20492   0.45491   0.79375   0.00000  Uiso   1.00
O1550  O     0.29509   0.04509   0.87291   0.00000  Uiso   1.00
O1551  O     0.29509   0.04509   0.79375   0.00000  Uiso   1.00
O1552  O     0.20492   0.45491   0.87291   0.00000  Uiso   1.00
O1553  O     0.46256   0.13041   0.70694   0.00000  Uiso   1.00
O1554  O     0.02782   0.13776   0.69337   0.00000  Uiso   1.00
O1555  O     0.00221   0.15390   0.76514   0.00000  Uiso   1.00
O1556  O     0.45492   0.29509   0.79375   0.00000  Uiso   1.00
O1557  O     0.48210   0.37206   0.96429   0.00000  Uiso   1.00
O1558  O     0.04113   0.34988   0.97736   0.00000  Uiso   1.00
O1559  O     0.00715   0.33595   0.90791   0.00000  Uiso   1.00
O1560  O     0.04231   0.36500   0.71540   0.00000  Uiso   1.00
O1561  O     0.47867   0.36167   0.69993   0.00000  Uiso   1.00
O1562  O     0.49502   0.34617   0.76942   0.00000  Uiso   1.00
O1563  O     0.02427   0.13082   0.95643   0.00000  Uiso   1.00
O1564  O     0.46179   0.14753   0.97067   0.00000  Uiso   1.00
O1565  O     0.49523   0.16466   0.90293   0.00000  Uiso   1.00
O1566  O     0.22153   0.38344   0.70215   0.00000  Uiso   1.00
O1567  O     0.45492   0.29509   0.87291   0.00000  Uiso   1.00
O1568  O     0.28443   0.38931   0.70934   0.00000  Uiso   1.00
O1569  O     0.24954   0.43057   0.75677   0.00000  Uiso   1.00
O1570  O     0.22795   0.11018   0.97077   0.00000  Uiso   1.00
O1571  O     0.28744   0.11116   0.96266   0.00000  Uiso   1.00
O1572  O     0.25202   0.09698   0.89475   0.00000  Uiso   1.00
O1573  O     0.27651   0.11579   0.70008   0.00000  Uiso   1.00
O1574  O     0.21430   0.10852   0.70813   0.00000  Uiso   1.00
O1575  O     0.25054   0.07332   0.75984   0.00000  Uiso   1.00
O1576  O     0.27294   0.39012   0.97059   0.00000  Uiso   1.00
O1577  O     0.21250   0.38751   0.96339   0.00000  Uiso   1.00
O1578  O     0.04509   0.20491   0.79375   0.00000  Uiso   1.00
O1579  O     0.23887   0.40184   0.89581   0.00000  Uiso   1.00
O1580  O     0.43821   0.19292   0.73055   0.00000  Uiso   1.00
O1581  O     0.38077   0.16841   0.71288   0.00000  Uiso   1.00
O1582  O     0.39163   0.23614   0.71609   0.00000  Uiso   1.00
O1583  O     0.06445   0.29295   0.93677   0.00000  Uiso   1.00
O1584  O     0.12328   0.29493   0.91746   0.00000  Uiso   1.00
O1585  O     0.10853   0.33797   0.97740   0.00000  Uiso   1.00
O1586  O     0.06809   0.30265   0.73028   0.00000  Uiso   1.00
O1587  O     0.13139   0.32258   0.71781   0.00000  Uiso   1.00
O1588  O     0.11427   0.25762   0.72075   0.00000  Uiso   1.00
O1589  O     0.45492   0.20491   0.79375   0.00000  Uiso   1.00
O1590  O     0.43633   0.20357   0.93731   0.00000  Uiso   1.00
O1591  O     0.37883   0.21274   0.91575   0.00000  Uiso   1.00
O1592  O     0.38853   0.16451   0.97332   0.00000  Uiso   1.00
O1593  O     0.06547   0.18435   0.93499   0.00000  Uiso   1.00
O1594  O     0.12026   0.16112   0.94700   0.00000  Uiso   1.00
O1595  O     0.12231   0.22643   0.94850   0.00000  Uiso   1.00
O1596  O     0.44215   0.29972   0.73018   0.00000  Uiso   1.00
O1597  O     0.38138   0.29612   0.74840   0.00000  Uiso   1.00
O1598  O     0.42128   0.31891   0.68962   0.00000  Uiso   1.00
O1599  O     0.43853   0.32846   0.93021   0.00000  Uiso   1.00
O1600  O     0.04509   0.29509   0.87291   0.00000  Uiso   1.00
O1601  O     0.38573   0.34935   0.94723   0.00000  Uiso   1.00
O1602  O     0.38166   0.28102   0.94456   0.00000  Uiso   1.00
O1603  O     0.05975   0.18949   0.72917   0.00000  Uiso   1.00
O1604  O     0.11507   0.20183   0.76086   0.00000  Uiso   1.00
O1605  O     0.11440   0.16859   0.69255   0.00000  Uiso   1.00
O1606  O     0.18533   0.42588   0.73690   0.00000  Uiso   1.00
O1607  O     0.15180   0.39080   0.68422   0.00000  Uiso   1.00
O1608  O     0.13406   0.45480   0.71418   0.00000  Uiso   1.00
O1609  O     0.34442   0.12387   0.93924   0.00000  Uiso   1.00
O1610  O     0.32320   0.05464   0.93402   0.00000  Uiso   1.00
O1611  O     0.04509   0.29509   0.79375   0.00000  Uiso   1.00
O1612  O     0.38972   0.06858   0.92721   0.00000  Uiso   1.00
O1613  O     0.31357   0.07939   0.73925   0.00000  Uiso   1.00
O1614  O     0.34594   0.11421   0.68580   0.00000  Uiso   1.00
O1615  O     0.36704   0.05145   0.71359   0.00000  Uiso   1.00
O1616  O     0.15375   0.37721   0.94100   0.00000  Uiso   1.00
O1617  O     0.17769   0.44513   0.93471   0.00000  Uiso   1.00
O1618  O     0.11097   0.43462   0.92777   0.00000  Uiso   1.00
O1619  O     0.31069   0.43049   0.93021   0.00000  Uiso   1.00
O1620  O     0.33194   0.37345   0.96033   0.00000  Uiso   1.00
O1621  O     0.36672   0.43795   0.95889   0.00000  Uiso   1.00
O1622  O     0.45492   0.20491   0.87291   0.00000  Uiso   1.00
O1623  O     0.15330   0.11614   0.72008   0.00000  Uiso   1.00
O1624  O     0.17714   0.05230   0.73269   0.00000  Uiso   1.00
O1625  O     0.10757   0.05996   0.73431   0.00000  Uiso   1.00
O1626  O     0.18894   0.07090   0.93026   0.00000  Uiso   1.00
O1627  O     0.16947   0.12813   0.96085   0.00000  Uiso   1.00
O1628  O     0.13262   0.06493   0.96032   0.00000  Uiso   1.00
O1629  O     0.35089   0.38378   0.71363   0.00000  Uiso   1.00
O1630  O     0.32191   0.44586   0.73197   0.00000  Uiso   1.00
O1631  O     0.39161   0.44303   0.73437   0.00000  Uiso   1.00
O1632  O     0.29509   0.45491   0.87291   0.00000  Uiso   1.00
S1633  S     0.49599   0.15852   0.71326   0.00000  Uiso   1.00
S1634  S     0.09461   0.32463   0.92689   0.00000  Uiso   1.00
S1635  S     0.10578   0.30142   0.74675   0.00000  Uiso   1.00
S1636  S     0.40273   0.17822   0.92526   0.00000  Uiso   1.00
S1637  S     0.10364   0.18689   0.91956   0.00000  Uiso   1.00
S1638  S     0.41064   0.32677   0.73934   0.00000  Uiso   1.00
S1639  S     0.39996   0.32218   0.91797   0.00000  Uiso   1.00
S1640  S     0.09405   0.16792   0.74039   0.00000  Uiso   1.00
S1641  S     0.14958   0.40997   0.72824   0.00000  Uiso   1.00
S1642  S     0.34933   0.08633   0.91483   0.00000  Uiso   1.00
S1643  S     0.34920   0.09461   0.72908   0.00000  Uiso   1.00
S1644  S     0.00619   0.33589   0.95861   0.00000  Uiso   1.00
S1645  S     0.15068   0.41425   0.91586   0.00000  Uiso   1.00
S1646  S     0.34208   0.40582   0.92883   0.00000  Uiso   1.00
S1647  S     0.14791   0.08115   0.74732   0.00000  Uiso   1.00
S1648  S     0.15782   0.09607   0.92983   0.00000  Uiso   1.00
S1649  S     0.35224   0.41793   0.74473   0.00000  Uiso   1.00
S1650  S     0.00765   0.33839   0.71972   0.00000  Uiso   1.00
S1651  S     0.49702   0.16426   0.95333   0.00000  Uiso   1.00
S1652  S     0.25144   0.41451   0.71120   0.00000  Uiso   1.00
S1653  S     0.25570   0.08605   0.94947   0.00000  Uiso   1.00
S1654  S     0.24753   0.08486   0.71197   0.00000  Uiso   1.00
S1655  S     0.24417   0.41311   0.95012   0.00000  Uiso   1.00
S1656  S     0.39970   0.19349   0.74302   0.00000  Uiso   1.00
C1657  C     0.55989   0.19249   0.83290   0.00000  Uiso   1.00
C1658  C     0.99922   0.28520   0.97844   0.00000  Uiso   1.00
C1659  C     0.50422   0.28560   0.69218   0.00000  Uiso   1.00
C1660  C     0.50184   0.21465   0.97653   0.00000  Uiso   1.00
C1661  C     0.74956   0.46466   0.68864   0.00000  Uiso   1.00
C1662  C     0.75308   0.03522   0.97523   0.00000  Uiso   1.00
C1663  C     0.75026   0.03503   0.68900   0.00000  Uiso   1.00
C1664  C     0.74673   0.46455   0.97508   0.00000  Uiso   1.00
C1665  C     0.88659   0.15687   0.78991   0.00000  Uiso   1.00
C1666  C     0.60918   0.35383   0.87254   0.00000  Uiso   1.00
C1667  C     0.61418   0.34348   0.79059   0.00000  Uiso   1.00
C1668  C     0.94047   0.30771   0.83283   0.00000  Uiso   1.00
C1669  C     0.88901   0.14805   0.87188   0.00000  Uiso   1.00
C1670  C     0.61431   0.15160   0.87211   0.00000  Uiso   1.00
C1671  C     0.89415   0.35809   0.78967   0.00000  Uiso   1.00
C1672  C     0.88699   0.35170   0.87005   0.00000  Uiso   1.00
C1673  C     0.60808   0.14066   0.79191   0.00000  Uiso   1.00
C1674  C     0.63892   0.38368   0.78455   0.00000  Uiso   1.00
C1675  C     0.85912   0.11380   0.86700   0.00000  Uiso   1.00
C1676  C     0.86072   0.11814   0.78481   0.00000  Uiso   1.00
C1677  C     0.63997   0.38731   0.86749   0.00000  Uiso   1.00
C1678  C     0.85868   0.38632   0.87351   0.00000  Uiso   1.00
C1679  C     0.93973   0.19416   0.83328   0.00000  Uiso   1.00
C1680  C     0.63899   0.10900   0.79514   0.00000  Uiso   1.00
C1681  C     0.64201   0.11576   0.87529   0.00000  Uiso   1.00
C1682  C     0.86217   0.39012   0.79272   0.00000  Uiso   1.00
C1683  C     0.59546   0.33540   0.83245   0.00000  Uiso   1.00
C1684  C     0.90396   0.16573   0.83204   0.00000  Uiso   1.00
C1685  C     0.90671   0.34023   0.83039   0.00000  Uiso   1.00
C1686  C     0.59444   0.16051   0.83198   0.00000  Uiso   1.00
C1687  C     0.84329   0.09798   0.82648   0.00000  Uiso   1.00
C1688  C     0.65611   0.40313   0.82665   0.00000  Uiso   1.00
C1689  C     0.65698   0.09529   0.83509   0.00000  Uiso   1.00
C1690  C     0.56009   0.30621   0.83328   0.00000  Uiso   1.00
C1691  C     0.84358   0.40501   0.83336   0.00000  Uiso   1.00
C1692  C     0.80966   0.44067   0.83324   0.00000  Uiso   1.00
C1693  C     0.68978   0.05861   0.83349   0.00000  Uiso   1.00
C1694  C     0.69057   0.43984   0.83192   0.00000  Uiso   1.00
C1695  C     0.80929   0.06046   0.83184   0.00000  Uiso   1.00
C1696  C     0.99792   0.21363   0.69039   0.00000  Uiso   1.00
Cu1697 Cu    0.50000   0.25000   0.88022   0.00000  Uiso   1.00
Cu1698 Cu    0.50000   0.25000   0.78645   0.00000  Uiso   1.00
Cu1699 Cu    0.75000   0.00000   0.88022   0.00000  Uiso   1.00
Cu1700 Cu    0.75000   0.00000   0.78645   0.00000  Uiso   1.00
H1701  H     0.52688   0.14180   0.76930   0.00000  Uiso   1.00
H1702  H     0.59717   0.35835   0.99682   0.00000  Uiso   1.00
H1703  H     0.59665   0.25506   0.69638   0.00000  Uiso   1.00
H1704  H     0.90015   0.13855   0.98030   0.00000  Uiso   1.00
H1705  H     0.61830   0.22063   0.97970   0.00000  Uiso   1.00
H1706  H     0.90324   0.32600   0.67204   0.00000  Uiso   1.00
H1707  H     0.87511   0.28543   0.97538   0.00000  Uiso   1.00
H1708  H     0.61866   0.14393   0.67711   0.00000  Uiso   1.00
H1709  H     0.65417   0.46385   0.69350   0.00000  Uiso   1.00
H1710  H     0.88949   0.04049   0.91490   0.00000  Uiso   1.00
H1711  H     0.84668   0.04135   0.69432   0.00000  Uiso   1.00
H1712  H     0.52768   0.35499   0.90057   0.00000  Uiso   1.00
H1713  H     0.61301   0.46266   0.91579   0.00000  Uiso   1.00
H1714  H     0.84933   0.44391   0.98319   0.00000  Uiso   1.00
H1715  H     0.61196   0.03042   0.73313   0.00000  Uiso   1.00
H1716  H     0.64971   0.05919   0.98449   0.00000  Uiso   1.00
H1717  H     0.88510   0.47082   0.75032   0.00000  Uiso   1.00
H1718  H     0.96953   0.35769   0.76943   0.00000  Uiso   1.00
H1719  H     0.97478   0.14527   0.89621   0.00000  Uiso   1.00
H1720  H     0.75058   0.40801   0.77657   0.00000  Uiso   1.00
H1721  H     0.73253   0.09503   0.87162   0.00000  Uiso   1.00
H1722  H     0.74891   0.09438   0.78215   0.00000  Uiso   1.00
H1723  H     0.73372   0.40234   0.86913   0.00000  Uiso   1.00
H1724  H     0.90989   0.23792   0.69190   0.00000  Uiso   1.00
N1725  N     0.50000   0.25000   0.95069   0.00000  Uiso   1.00
N1726  N     0.50000   0.25000   0.71598   0.00000  Uiso   1.00
N1727  N     0.75000   0.00000   0.95069   0.00000  Uiso   1.00
N1728  N     0.75000   0.00000   0.71598   0.00000  Uiso   1.00
O1729  O     0.54509   0.20491   0.87291   0.00000  Uiso   1.00
O1730  O     0.70492   0.04509   0.79375   0.00000  Uiso   1.00
O1731  O     0.70492   0.04509   0.87291   0.00000  Uiso   1.00
O1732  O     0.79509   0.45491   0.79375   0.00000  Uiso   1.00
O1733  O     0.70492   0.45491   0.79375   0.00000  Uiso   1.00
O1734  O     0.79509   0.04509   0.87291   0.00000  Uiso   1.00
O1735  O     0.79509   0.04509   0.79375   0.00000  Uiso   1.00
O1736  O     0.70492   0.45491   0.87291   0.00000  Uiso   1.00
O1737  O     0.96256   0.13041   0.70694   0.00000  Uiso   1.00
O1738  O     0.52782   0.13776   0.69337   0.00000  Uiso   1.00
O1739  O     0.50221   0.15390   0.76514   0.00000  Uiso   1.00
O1740  O     0.95492   0.29509   0.79375   0.00000  Uiso   1.00
O1741  O     0.98210   0.37206   0.96429   0.00000  Uiso   1.00
O1742  O     0.54113   0.34988   0.97736   0.00000  Uiso   1.00
O1743  O     0.50715   0.33595   0.90791   0.00000  Uiso   1.00
O1744  O     0.54231   0.36500   0.71540   0.00000  Uiso   1.00
O1745  O     0.97867   0.36167   0.69993   0.00000  Uiso   1.00
O1746  O     0.99502   0.34617   0.76942   0.00000  Uiso   1.00
O1747  O     0.52427   0.13082   0.95643   0.00000  Uiso   1.00
O1748  O     0.96179   0.14753   0.97067   0.00000  Uiso   1.00
O1749  O     0.99523   0.16466   0.90293   0.00000  Uiso   1.00
O1750  O     0.72153   0.38344   0.70215   0.00000  Uiso   1.00
O1751  O     0.95492   0.29509   0.87291   0.00000  Uiso   1.00
O1752  O     0.78443   0.38931   0.70934   0.00000  Uiso   1.00
O1753  O     0.74954   0.43057   0.75677   0.00000  Uiso   1.00
O1754  O     0.72795   0.11018   0.97077   0.00000  Uiso   1.00
O1755  O     0.78744   0.11116   0.96266   0.00000  Uiso   1.00
O1756  O     0.75202   0.09698   0.89475   0.00000  Uiso   1.00
O1757  O     0.77651   0.11579   0.70008   0.00000  Uiso   1.00
O1758  O     0.71430   0.10852   0.70813   0.00000  Uiso   1.00
O1759  O     0.75054   0.07332   0.75984   0.00000  Uiso   1.00
O1760  O     0.77294   0.39012   0.97059   0.00000  Uiso   1.00
O1761  O     0.71250   0.38751   0.96339   0.00000  Uiso   1.00
O1762  O     0.54509   0.20491   0.79375   0.00000  Uiso   1.00
O1763  O     0.73887   0.40184   0.89581   0.00000  Uiso   1.00
O1764  O     0.93821   0.19292   0.73055   0.00000  Uiso   1.00
O1765  O     0.88077   0.16841   0.71288   0.00000  Uiso   1.00
O1766  O     0.89163   0.23614   0.71609   0.00000  Uiso   1.00
O1767  O     0.56445   0.29295   0.93677   0.00000  Uiso   1.00
O1768  O     0.62328   0.29493   0.91746   0.00000  Uiso   1.00
O1769  O     0.60853   0.33797   0.97740   0.00000  Uiso   1.00
O1770  O     0.56809   0.30265   0.73028   0.00000  Uiso   1.00
O1771  O     0.63139   0.32258   0.71781   0.00000  Uiso   1.00
O1772  O     0.61427   0.25762   0.72075   0.00000  Uiso   1.00
O1773  O     0.95492   0.20491   0.79375   0.00000  Uiso   1.00
O1774  O     0.93633   0.20357   0.93731   0.00000  Uiso   1.00
O1775  O     0.87883   0.21274   0.91575   0.00000  Uiso   1.00
O1776  O     0.88853   0.16451   0.97332   0.00000  Uiso   1.00
O1777  O     0.56547   0.18435   0.93499   0.00000  Uiso   1.00
O1778  O     0.62026   0.16112   0.94700   0.00000  Uiso   1.00
O1779  O     0.62231   0.22643   0.94850   0.00000  Uiso   1.00
O1780  O     0.94215   0.29972   0.73018   0.00000  Uiso   1.00
O1781  O     0.88138   0.29612   0.74840   0.00000  Uiso   1.00
O1782  O     0.92128   0.31891   0.68962   0.00000  Uiso   1.00
O1783  O     0.93853   0.32846   0.93021   0.00000  Uiso   1.00
O1784  O     0.54509   0.29509   0.87291   0.00000  Uiso   1.00
O1785  O     0.88573   0.34935   0.94723   0.00000  Uiso   1.00
O1786  O     0.88166   0.28102   0.94456   0.00000  Uiso   1.00
O1787  O     0.55975   0.18949   0.72917   0.00000  Uiso   1.00
O1788  O     0.61507   0.20183   0.76086   0.00000  Uiso   1.00
O1789  O     0.61440   0.16859   0.69255   0.00000  Uiso   1.00
O1790  O     0.68533   0.42588   0.73690   0.00000  Uiso   1.00
O1791  O     0.65180   0.39080   0.68422   0.00000  Uiso   1.00
O1792  O     0.63406   0.45480   0.71418   0.00000  Uiso   1.00
O1793  O     0.84442   0.12387   0.93924   0.00000  Uiso   1.00
O1794  O     0.82320   0.05464   0.93402   0.00000  Uiso   1.00
O1795  O     0.54509   0.29509   0.79375   0.00000  Uiso   1.00
O1796  O     0.88972   0.06858   0.92721   0.00000  Uiso   1.00
O1797  O     0.81357   0.07939   0.73925   0.00000  Uiso   1.00
O1798  O     0.84594   0.11421   0.68580   0.00000  Uiso   1.00
O1799  O     0.86704   0.05145   0.71359   0.00000  Uiso   1.00
O1800  O     0.65375   0.37721   0.94100   0.00000  Uiso   1.00
O1801  O     0.67769   0.44513   0.93471   0.00000  Uiso   1.00
O1802  O     0.61097   0.43462   0.92777   0.00000  Uiso   1.00
O1803  O     0.81069   0.43049   0.93021   0.00000  Uiso   1.00
O1804  O     0.83194   0.37345   0.96033   0.00000  Uiso   1.00
O1805  O     0.86672   0.43795   0.95889   0.00000  Uiso   1.00
O1806  O     0.95492   0.20491   0.87291   0.00000  Uiso   1.00
O1807  O     0.65330   0.11614   0.72008   0.00000  Uiso   1.00
O1808  O     0.67714   0.05230   0.73269   0.00000  Uiso   1.00
O1809  O     0.60757   0.05996   0.73431   0.00000  Uiso   1.00
O1810  O     0.68894   0.07090   0.93026   0.00000  Uiso   1.00
O1811  O     0.66947   0.12813   0.96085   0.00000  Uiso   1.00
O1812  O     0.63262   0.06493   0.96032   0.00000  Uiso   1.00
O1813  O     0.85089   0.38378   0.71363   0.00000  Uiso   1.00
O1814  O     0.82191   0.44586   0.73197   0.00000  Uiso   1.00
O1815  O     0.89161   0.44303   0.73437   0.00000  Uiso   1.00
O1816  O     0.79509   0.45491   0.87291   0.00000  Uiso   1.00
S1817  S     0.99599   0.15852   0.71326   0.00000  Uiso   1.00
S1818  S     0.59461   0.32463   0.92689   0.00000  Uiso   1.00
S1819  S     0.60578   0.30142   0.74675   0.00000  Uiso   1.00
S1820  S     0.90273   0.17822   0.92526   0.00000  Uiso   1.00
S1821  S     0.60364   0.18689   0.91956   0.00000  Uiso   1.00
S1822  S     0.91064   0.32677   0.73934   0.00000  Uiso   1.00
S1823  S     0.89996   0.32218   0.91797   0.00000  Uiso   1.00
S1824  S     0.59405   0.16792   0.74039   0.00000  Uiso   1.00
S1825  S     0.64958   0.40997   0.72824   0.00000  Uiso   1.00
S1826  S     0.84933   0.08633   0.91483   0.00000  Uiso   1.00
S1827  S     0.84920   0.09461   0.72908   0.00000  Uiso   1.00
S1828  S     0.50619   0.33589   0.95861   0.00000  Uiso   1.00
S1829  S     0.65068   0.41425   0.91586   0.00000  Uiso   1.00
S1830  S     0.84208   0.40582   0.92883   0.00000  Uiso   1.00
S1831  S     0.64791   0.08115   0.74732   0.00000  Uiso   1.00
S1832  S     0.65782   0.09607   0.92983   0.00000  Uiso   1.00
S1833  S     0.85224   0.41793   0.74473   0.00000  Uiso   1.00
S1834  S     0.50765   0.33839   0.71972   0.00000  Uiso   1.00
S1835  S     0.99702   0.16426   0.95333   0.00000  Uiso   1.00
S1836  S     0.75144   0.41451   0.71120   0.00000  Uiso   1.00
S1837  S     0.75570   0.08605   0.94947   0.00000  Uiso   1.00
S1838  S     0.74753   0.08486   0.71197   0.00000  Uiso   1.00
S1839  S     0.74417   0.41311   0.95012   0.00000  Uiso   1.00
S1840  S     0.89970   0.19349   0.74302   0.00000  Uiso   1.00
C1841  C     0.05989   0.69249   0.83290   0.00000  Uiso   1.00
C1842  C     0.49922   0.78520   0.97844   0.00000  Uiso   1.00
C1843  C     0.00422   0.78560   0.69218   0.00000  Uiso   1.00
C1844  C     0.00184   0.71465   0.97653   0.00000  Uiso   1.00
C1845  C     0.24956   0.96466   0.68864   0.00000  Uiso   1.00
C1846  C     0.25308   0.53522   0.97523   0.00000  Uiso   1.00
C1847  C     0.25026   0.53503   0.68900   0.00000  Uiso   1.00
C1848  C     0.24673   0.96455   0.97508   0.00000  Uiso   1.00
C1849  C     0.38659   0.65687   0.78991   0.00000  Uiso   1.00
C1850  C     0.10918   0.85383   0.87254   0.00000  Uiso   1.00
C1851  C     0.11418   0.84348   0.79059   0.00000  Uiso   1.00
C1852  C     0.44047   0.80771   0.83283   0.00000  Uiso   1.00
C1853  C     0.38901   0.64805   0.87188   0.00000  Uiso   1.00
C1854  C     0.11431   0.65160   0.87211   0.00000  Uiso   1.00
C1855  C     0.39415   0.85809   0.78967   0.00000  Uiso   1.00
C1856  C     0.38699   0.85170   0.87005   0.00000  Uiso   1.00
C1857  C     0.10808   0.64066   0.79191   0.00000  Uiso   1.00
C1858  C     0.13892   0.88368   0.78455   0.00000  Uiso   1.00
C1859  C     0.35912   0.61380   0.86700   0.00000  Uiso   1.00
C1860  C     0.36072   0.61814   0.78481   0.00000  Uiso   1.00
C1861  C     0.13997   0.88731   0.86749   0.00000  Uiso   1.00
C1862  C     0.35868   0.88632   0.87351   0.00000  Uiso   1.00
C1863  C     0.43973   0.69416   0.83328   0.00000  Uiso   1.00
C1864  C     0.13899   0.60900   0.79514   0.00000  Uiso   1.00
C1865  C     0.14201   0.61576   0.87529   0.00000  Uiso   1.00
C1866  C     0.36217   0.89012   0.79272   0.00000  Uiso   1.00
C1867  C     0.09546   0.83540   0.83245   0.00000  Uiso   1.00
C1868  C     0.40396   0.66573   0.83204   0.00000  Uiso   1.00
C1869  C     0.40671   0.84023   0.83039   0.00000  Uiso   1.00
C1870  C     0.09444   0.66051   0.83198   0.00000  Uiso   1.00
C1871  C     0.34329   0.59798   0.82648   0.00000  Uiso   1.00
C1872  C     0.15611   0.90313   0.82665   0.00000  Uiso   1.00
C1873  C     0.15698   0.59529   0.83509   0.00000  Uiso   1.00
C1874  C     0.06009   0.80621   0.83328   0.00000  Uiso   1.00
C1875  C     0.34358   0.90501   0.83336   0.00000  Uiso   1.00
C1876  C     0.30966   0.94067   0.83324   0.00000  Uiso   1.00
C1877  C     0.18978   0.55861   0.83349   0.00000  Uiso   1.00
C1878  C     0.19057   0.93984   0.83192   0.00000  Uiso   1.00
C1879  C     0.30929   0.56046   0.83184   0.00000  Uiso   1.00
C1880  C     0.49792   0.71363   0.69039   0.00000  Uiso   1.00
Cu1881 Cu    0.00000   0.75000   0.88022   0.00000  Uiso   1.00
Cu1882 Cu    0.00000   0.75000   0.78645   0.00000  Uiso   1.00
Cu1883 Cu    0.25000   0.50000   0.88022   0.00000  Uiso   1.00
Cu1884 Cu    0.25000   0.50000   0.78645   0.00000  Uiso   1.00
H1885  H     0.02688   0.64180   0.76930   0.00000  Uiso   1.00
H1886  H     0.09717   0.85835   0.99682   0.00000  Uiso   1.00
H1887  H     0.09665   0.75506   0.69638   0.00000  Uiso   1.00
H1888  H     0.40015   0.63855   0.98030   0.00000  Uiso   1.00
H1889  H     0.11830   0.72063   0.97970   0.00000  Uiso   1.00
H1890  H     0.40324   0.82600   0.67204   0.00000  Uiso   1.00
H1891  H     0.37511   0.78543   0.97538   0.00000  Uiso   1.00
H1892  H     0.11866   0.64393   0.67711   0.00000  Uiso   1.00
H1893  H     0.15417   0.96385   0.69350   0.00000  Uiso   1.00
H1894  H     0.38949   0.54049   0.91490   0.00000  Uiso   1.00
H1895  H     0.34668   0.54135   0.69432   0.00000  Uiso   1.00
H1896  H     0.02768   0.85499   0.90057   0.00000  Uiso   1.00
H1897  H     0.11301   0.96266   0.91579   0.00000  Uiso   1.00
H1898  H     0.34933   0.94391   0.98319   0.00000  Uiso   1.00
H1899  H     0.11196   0.53042   0.73313   0.00000  Uiso   1.00
H1900  H     0.14971   0.55919   0.98449   0.00000  Uiso   1.00
H1901  H     0.38510   0.97082   0.75032   0.00000  Uiso   1.00
H1902  H     0.46953   0.85769   0.76943   0.00000  Uiso   1.00
H1903  H     0.47478   0.64527   0.89621   0.00000  Uiso   1.00
H1904  H     0.25058   0.90801   0.77657   0.00000  Uiso   1.00
H1905  H     0.23253   0.59503   0.87162   0.00000  Uiso   1.00
H1906  H     0.24891   0.59438   0.78215   0.00000  Uiso   1.00
H1907  H     0.23372   0.90234   0.86913   0.00000  Uiso   1.00
H1908  H     0.40989   0.73792   0.69190   0.00000  Uiso   1.00
N1909  N     0.00000   0.75000   0.95069   0.00000  Uiso   1.00
N1910  N     0.00000   0.75000   0.71598   0.00000  Uiso   1.00
N1911  N     0.25000   0.50000   0.95069   0.00000  Uiso   1.00
N1912  N     0.25000   0.50000   0.71598   0.00000  Uiso   1.00
O1913  O     0.04509   0.70491   0.87291   0.00000  Uiso   1.00
O1914  O     0.20492   0.54509   0.79375   0.00000  Uiso   1.00
O1915  O     0.20492   0.54509   0.87291   0.00000  Uiso   1.00
O1916  O     0.29509   0.95491   0.79375   0.00000  Uiso   1.00
O1917  O     0.20492   0.95491   0.79375   0.00000  Uiso   1.00
O1918  O     0.29509   0.54509   0.87291   0.00000  Uiso   1.00
O1919  O     0.29509   0.54509   0.79375   0.00000  Uiso   1.00
O1920  O     0.20492   0.95491   0.87291   0.00000  Uiso   1.00
O1921  O     0.46256   0.63041   0.70694   0.00000  Uiso   1.00
O1922  O     0.02782   0.63776   0.69337   0.00000  Uiso   1.00
O1923  O     0.00221   0.65390   0.76514   0.00000  Uiso   1.00
O1924  O     0.45492   0.79509   0.79375   0.00000  Uiso   1.00
O1925  O     0.48210   0.87206   0.96429   0.00000  Uiso   1.00
O1926  O     0.04113   0.84988   0.97736   0.00000  Uiso   1.00
O1927  O     0.00715   0.83595   0.90791   0.00000  Uiso   1.00
O1928  O     0.04231   0.86500   0.71540   0.00000  Uiso   1.00
O1929  O     0.47867   0.86167   0.69993   0.00000  Uiso   1.00
O1930  O     0.49502   0.84617   0.76942   0.00000  Uiso   1.00
O1931  O     0.02427   0.63082   0.95643   0.00000  Uiso   1.00
O1932  O     0.46179   0.64753   0.97067   0.00000  Uiso   1.00
O1933  O     0.49523   0.66466   0.90293   0.00000  Uiso   1.00
O1934  O     0.22153   0.88344   0.70215   0.00000  Uiso   1.00
O1935  O     0.45492   0.79509   0.87291   0.00000  Uiso   1.00
O1936  O     0.28443   0.88931   0.70934   0.00000  Uiso   1.00
O1937  O     0.24954   0.93057   0.75677   0.00000  Uiso   1.00
O1938  O     0.22795   0.61018   0.97077   0.00000  Uiso   1.00
O1939  O     0.28744   0.61116   0.96266   0.00000  Uiso   1.00
O1940  O     0.25202   0.59698   0.89475   0.00000  Uiso   1.00
O1941  O     0.27651   0.61579   0.70008   0.00000  Uiso   1.00
O1942  O     0.21430   0.60852   0.70813   0.00000  Uiso   1.00
O1943  O     0.25054   0.57332   0.75984   0.00000  Uiso   1.00
O1944  O     0.27294   0.89012   0.97059   0.00000  Uiso   1.00
O1945  O     0.21250   0.88751   0.96339   0.00000  Uiso   1.00
O1946  O     0.04509   0.70491   0.79375   0.00000  Uiso   1.00
O1947  O     0.23887   0.90184   0.89581   0.00000  Uiso   1.00
O1948  O     0.43821   0.69292   0.73055   0.00000  Uiso   1.00
O1949  O     0.38077   0.66841   0.71288   0.00000  Uiso   1.00
O1950  O     0.39163   0.73614   0.71609   0.00000  Uiso   1.00
O1951  O     0.06445   0.79295   0.93677   0.00000  Uiso   1.00
O1952  O     0.12328   0.79493   0.91746   0.00000  Uiso   1.00
O1953  O     0.10853   0.83797   0.97740   0.00000  Uiso   1.00
O1954  O     0.06809   0.80265   0.73028   0.00000  Uiso   1.00
O1955  O     0.13139   0.82258   0.71781   0.00000  Uiso   1.00
O1956  O     0.11427   0.75762   0.72075   0.00000  Uiso   1.00
O1957  O     0.45492   0.70491   0.79375   0.00000  Uiso   1.00
O1958  O     0.43633   0.70357   0.93731   0.00000  Uiso   1.00
O1959  O     0.37883   0.71274   0.91575   0.00000  Uiso   1.00
O1960  O     0.38853   0.66451   0.97332   0.00000  Uiso   1.00
O1961  O     0.06547   0.68435   0.93499   0.00000  Uiso   1.00
O1962  O     0.12026   0.66112   0.94700   0.00000  Uiso   1.00
O1963  O     0.12231   0.72643   0.94850   0.00000  Uiso   1.00
O1964  O     0.44215   0.79972   0.73018   0.00000  Uiso   1.00
O1965  O     0.38138   0.79612   0.74840   0.00000  Uiso   1.00
O1966  O     0.42128   0.81891   0.68962   0.00000  Uiso   1.00
O1967  O     0.43853   0.82846   0.93021   0.00000  Uiso   1.00
O1968  O     0.04509   0.79509   0.87291   0.00000  Uiso   1.00
O1969  O     0.38573   0.84935   0.94723   0.00000  Uiso   1.00
O1970  O     0.38166   0.78102   0.94456   0.00000  Uiso   1.00
O1971  O     0.05975   0.68949   0.72917   0.00000  Uiso   1.00
O1972  O     0.11507   0.70183   0.76086   0.00000  Uiso   1.00
O1973  O     0.11440   0.66859   0.69255   0.00000  Uiso   1.00
O1974  O     0.18533   0.92588   0.73690   0.00000  Uiso   1.00
O1975  O     0.15180   0.89080   0.68422   0.00000  Uiso   1.00
O1976  O     0.13406   0.95480   0.71418   0.00000  Uiso   1.00
O1977  O     0.34442   0.62387   0.93924   0.00000  Uiso   1.00
O1978  O     0.32320   0.55464   0.93402   0.00000  Uiso   1.00
O1979  O     0.04509   0.79509   0.79375   0.00000  Uiso   1.00
O1980  O     0.38972   0.56858   0.92721   0.00000  Uiso   1.00
O1981  O     0.31357   0.57939   0.73925   0.00000  Uiso   1.00
O1982  O     0.34594   0.61421   0.68580   0.00000  Uiso   1.00
O1983  O     0.36704   0.55145   0.71359   0.00000  Uiso   1.00
O1984  O     0.15375   0.87721   0.94100   0.00000  Uiso   1.00
O1985  O     0.17769   0.94513   0.93471   0.00000  Uiso   1.00
O1986  O     0.11097   0.93462   0.92777   0.00000  Uiso   1.00
O1987  O     0.31069   0.93049   0.93021   0.00000  Uiso   1.00
O1988  O     0.33194   0.87345   0.96033   0.00000  Uiso   1.00
O1989  O     0.36672   0.93795   0.95889   0.00000  Uiso   1.00
O1990  O     0.45492   0.70491   0.87291   0.00000  Uiso   1.00
O1991  O     0.15330   0.61614   0.72008   0.00000  Uiso   1.00
O1992  O     0.17714   0.55230   0.73269   0.00000  Uiso   1.00
O1993  O     0.10757   0.55996   0.73431   0.00000  Uiso   1.00
O1994  O     0.18894   0.57090   0.93026   0.00000  Uiso   1.00
O1995  O     0.16947   0.62813   0.96085   0.00000  Uiso   1.00
O1996  O     0.13262   0.56493   0.96032   0.00000  Uiso   1.00
O1997  O     0.35089   0.88378   0.71363   0.00000  Uiso   1.00
O1998  O     0.32191   0.94586   0.73197   0.00000  Uiso   1.00
O1999  O     0.39161   0.94303   0.73437   0.00000  Uiso   1.00
O2000  O     0.29509   0.95491   0.87291   0.00000  Uiso   1.00
S2001  S     0.49599   0.65852   0.71326   0.00000  Uiso   1.00
S2002  S     0.09461   0.82463   0.92689   0.00000  Uiso   1.00
S2003  S     0.10578   0.80142   0.74675   0.00000  Uiso   1.00
S2004  S     0.40273   0.67822   0.92526   0.00000  Uiso   1.00
S2005  S     0.10364   0.68689   0.91956   0.00000  Uiso   1.00
S2006  S     0.41064   0.82677   0.73934   0.00000  Uiso   1.00
S2007  S     0.39996   0.82218   0.91797   0.00000  Uiso   1.00
S2008  S     0.09405   0.66792   0.74039   0.00000  Uiso   1.00
S2009  S     0.14958   0.90997   0.72824   0.00000  Uiso   1.00
S2010  S     0.34933   0.58633   0.91483   0.00000  Uiso   1.00
S2011  S     0.34920   0.59461   0.72908   0.00000  Uiso   1.00
S2012  S     0.00619   0.83589   0.95861   0.00000  Uiso   1.00
S2013  S     0.15068   0.91425   0.91586   0.00000  Uiso   1.00
S2014  S     0.34208   0.90582   0.92883   0.00000  Uiso   1.00
S2015  S     0.14791   0.58115   0.74732   0.00000  Uiso   1.00
S2016  S     0.15782   0.59607   0.92983   0.00000  Uiso   1.00
S2017  S     0.35224   0.91793   0.74473   0.00000  Uiso   1.00
S2018  S     0.00765   0.83839   0.71972   0.00000  Uiso   1.00
S2019  S     0.49702   0.66426   0.95333   0.00000  Uiso   1.00
S2020  S     0.25144   0.91451   0.71120   0.00000  Uiso   1.00
S2021  S     0.25570   0.58605   0.94947   0.00000  Uiso   1.00
S2022  S     0.24753   0.58486   0.71197   0.00000  Uiso   1.00
S2023  S     0.24417   0.91311   0.95012   0.00000  Uiso   1.00
S2024  S     0.39970   0.69349   0.74302   0.00000  Uiso   1.00
C2025  C     0.55989   0.69249   0.83290   0.00000  Uiso   1.00
C2026  C     0.99922   0.78520   0.97844   0.00000  Uiso   1.00
C2027  C     0.50422   0.78560   0.69218   0.00000  Uiso   1.00
C2028  C     0.50184   0.71465   0.97653   0.00000  Uiso   1.00
C2029  C     0.74956   0.96466   0.68864   0.00000  Uiso   1.00
C2030  C     0.75308   0.53522   0.97523   0.00000  Uiso   1.00
C2031  C     0.75026   0.53503   0.68900   0.00000  Uiso   1.00
C2032  C     0.74673   0.96455   0.97508   0.00000  Uiso   1.00
C2033  C     0.88659   0.65687   0.78991   0.00000  Uiso   1.00
C2034  C     0.60918   0.85383   0.87254   0.00000  Uiso   1.00
C2035  C     0.61418   0.84348   0.79059   0.00000  Uiso   1.00
C2036  C     0.94047   0.80771   0.83283   0.00000  Uiso   1.00
C2037  C     0.88901   0.64805   0.87188   0.00000  Uiso   1.00
C2038  C     0.61431   0.65160   0.87211   0.00000  Uiso   1.00
C2039  C     0.89415   0.85809   0.78967   0.00000  Uiso   1.00
C2040  C     0.88699   0.85170   0.87005   0.00000  Uiso   1.00
C2041  C     0.60808   0.64066   0.79191   0.00000  Uiso   1.00
C2042  C     0.63892   0.88368   0.78455   0.00000  Uiso   1.00
C2043  C     0.85912   0.61380   0.86700   0.00000  Uiso   1.00
C2044  C     0.86072   0.61814   0.78481   0.00000  Uiso   1.00
C2045  C     0.63997   0.88731   0.86749   0.00000  Uiso   1.00
C2046  C     0.85868   0.88632   0.87351   0.00000  Uiso   1.00
C2047  C     0.93973   0.69416   0.83328   0.00000  Uiso   1.00
C2048  C     0.63899   0.60900   0.79514   0.00000  Uiso   1.00
C2049  C     0.64201   0.61576   0.87529   0.00000  Uiso   1.00
C2050  C     0.86217   0.89012   0.79272   0.00000  Uiso   1.00
C2051  C     0.59546   0.83540   0.83245   0.00000  Uiso   1.00
C2052  C     0.90396   0.66573   0.83204   0.00000  Uiso   1.00
C2053  C     0.90671   0.84023   0.83039   0.00000  Uiso   1.00
C2054  C     0.59444   0.66051   0.83198   0.00000  Uiso   1.00
C2055  C     0.84329   0.59798   0.82648   0.00000  Uiso   1.00
C2056  C     0.65611   0.90313   0.82665   0.00000  Uiso   1.00
C2057  C     0.65698   0.59529   0.83509   0.00000  Uiso   1.00
C2058  C     0.56009   0.80621   0.83328   0.00000  Uiso   1.00
C2059  C     0.84358   0.90501   0.83336   0.00000  Uiso   1.00
C2060  C     0.80966   0.94067   0.83324   0.00000  Uiso   1.00
C2061  C     0.68978   0.55861   0.83349   0.00000  Uiso   1.00
C2062  C     0.69057   0.93984   0.83192   0.00000  Uiso   1.00
C2063  C     0.80929   0.56046   0.83184   0.00000  Uiso   1.00
C2064  C     0.99792   0.71363   0.69039   0.00000  Uiso   1.00
Cu2065 Cu    0.50000   0.75000   0.88022   0.00000  Uiso   1.00
Cu2066 Cu    0.50000   0.75000   0.78645   0.00000  Uiso   1.00
Cu2067 Cu    0.75000   0.50000   0.88022   0.00000  Uiso   1.00
Cu2068 Cu    0.75000   0.50000   0.78645   0.00000  Uiso   1.00
H2069  H     0.52688   0.64180   0.76930   0.00000  Uiso   1.00
H2070  H     0.59717   0.85835   0.99682   0.00000  Uiso   1.00
H2071  H     0.59665   0.75506   0.69638   0.00000  Uiso   1.00
H2072  H     0.90015   0.63855   0.98030   0.00000  Uiso   1.00
H2073  H     0.61830   0.72063   0.97970   0.00000  Uiso   1.00
H2074  H     0.90324   0.82600   0.67204   0.00000  Uiso   1.00
H2075  H     0.87511   0.78543   0.97538   0.00000  Uiso   1.00
H2076  H     0.61866   0.64393   0.67711   0.00000  Uiso   1.00
H2077  H     0.65417   0.96385   0.69350   0.00000  Uiso   1.00
H2078  H     0.88949   0.54049   0.91490   0.00000  Uiso   1.00
H2079  H     0.84668   0.54135   0.69432   0.00000  Uiso   1.00
H2080  H     0.52768   0.85499   0.90057   0.00000  Uiso   1.00
H2081  H     0.61301   0.96266   0.91579   0.00000  Uiso   1.00
H2082  H     0.84933   0.94391   0.98319   0.00000  Uiso   1.00
H2083  H     0.61196   0.53042   0.73313   0.00000  Uiso   1.00
H2084  H     0.64971   0.55919   0.98449   0.00000  Uiso   1.00
H2085  H     0.88510   0.97082   0.75032   0.00000  Uiso   1.00
H2086  H     0.96953   0.85769   0.76943   0.00000  Uiso   1.00
H2087  H     0.97478   0.64527   0.89621   0.00000  Uiso   1.00
H2088  H     0.75058   0.90801   0.77657   0.00000  Uiso   1.00
H2089  H     0.73253   0.59503   0.87162   0.00000  Uiso   1.00
H2090  H     0.74891   0.59438   0.78215   0.00000  Uiso   1.00
H2091  H     0.73372   0.90234   0.86913   0.00000  Uiso   1.00
H2092  H     0.90989   0.73792   0.69190   0.00000  Uiso   1.00
N2093  N     0.50000   0.75000   0.95069   0.00000  Uiso   1.00
N2094  N     0.50000   0.75000   0.71598   0.00000  Uiso   1.00
N2095  N     0.75000   0.50000   0.95069   0.00000  Uiso   1.00
N2096  N     0.75000   0.50000   0.71598   0.00000  Uiso   1.00
O2097  O     0.54509   0.70491   0.87291   0.00000  Uiso   1.00
O2098  O     0.70492   0.54509   0.79375   0.00000  Uiso   1.00
O2099  O     0.70492   0.54509   0.87291   0.00000  Uiso   1.00
O2100  O     0.79509   0.95491   0.79375   0.00000  Uiso   1.00
O2101  O     0.70492   0.95491   0.79375   0.00000  Uiso   1.00
O2102  O     0.79509   0.54509   0.87291   0.00000  Uiso   1.00
O2103  O     0.79509   0.54509   0.79375   0.00000  Uiso   1.00
O2104  O     0.70492   0.95491   0.87291   0.00000  Uiso   1.00
O2105  O     0.96256   0.63041   0.70694   0.00000  Uiso   1.00
O2106  O     0.52782   0.63776   0.69337   0.00000  Uiso   1.00
O2107  O     0.50221   0.65390   0.76514   0.00000  Uiso   1.00
O2108  O     0.95492   0.79509   0.79375   0.00000  Uiso   1.00
O2109  O     0.98210   0.87206   0.96429   0.00000  Uiso   1.00
O2110  O     0.54113   0.84988   0.97736   0.00000  Uiso   1.00
O2111  O     0.50715   0.83595   0.90791   0.00000  Uiso   1.00
O2112  O     0.54231   0.86500   0.71540   0.00000  Uiso   1.00
O2113  O     0.97867   0.86167   0.69993   0.00000  Uiso   1.00
O2114  O     0.99502   0.84617   0.76942   0.00000  Uiso   1.00
O2115  O     0.52427   0.63082   0.95643   0.00000  Uiso   1.00
O2116  O     0.96179   0.64753   0.97067   0.00000  Uiso   1.00
O2117  O     0.99523   0.66466   0.90293   0.00000  Uiso   1.00
O2118  O     0.72153   0.88344   0.70215   0.00000  Uiso   1.00
O2119  O     0.95492   0.79509   0.87291   0.00000  Uiso   1.00
O2120  O     0.78443   0.88931   0.70934   0.00000  Uiso   1.00
O2121  O     0.74954   0.93057   0.75677   0.00000  Uiso   1.00
O2122  O     0.72795   0.61018   0.97077   0.00000  Uiso   1.00
O2123  O     0.78744   0.61116   0.96266   0.00000  Uiso   1.00
O2124  O     0.75202   0.59698   0.89475   0.00000  Uiso   1.00
O2125  O     0.77651   0.61579   0.70008   0.00000  Uiso   1.00
O2126  O     0.71430   0.60852   0.70813   0.00000  Uiso   1.00
O2127  O     0.75054   0.57332   0.75984   0.00000  Uiso   1.00
O2128  O     0.77294   0.89012   0.97059   0.00000  Uiso   1.00
O2129  O     0.71250   0.88751   0.96339   0.00000  Uiso   1.00
O2130  O     0.54509   0.70491   0.79375   0.00000  Uiso   1.00
O2131  O     0.73887   0.90184   0.89581   0.00000  Uiso   1.00
O2132  O     0.93821   0.69292   0.73055   0.00000  Uiso   1.00
O2133  O     0.88077   0.66841   0.71288   0.00000  Uiso   1.00
O2134  O     0.89163   0.73614   0.71609   0.00000  Uiso   1.00
O2135  O     0.56445   0.79295   0.93677   0.00000  Uiso   1.00
O2136  O     0.62328   0.79493   0.91746   0.00000  Uiso   1.00
O2137  O     0.60853   0.83797   0.97740   0.00000  Uiso   1.00
O2138  O     0.56809   0.80265   0.73028   0.00000  Uiso   1.00
O2139  O     0.63139   0.82258   0.71781   0.00000  Uiso   1.00
O2140  O     0.61427   0.75762   0.72075   0.00000  Uiso   1.00
O2141  O     0.95492   0.70491   0.79375   0.00000  Uiso   1.00
O2142  O     0.93633   0.70357   0.93731   0.00000  Uiso   1.00
O2143  O     0.87883   0.71274   0.91575   0.00000  Uiso   1.00
O2144  O     0.88853   0.66451   0.97332   0.00000  Uiso   1.00
O2145  O     0.56547   0.68435   0.93499   0.00000  Uiso   1.00
O2146  O     0.62026   0.66112   0.94700   0.00000  Uiso   1.00
O2147  O     0.62231   0.72643   0.94850   0.00000  Uiso   1.00
O2148  O     0.94215   0.79972   0.73018   0.00000  Uiso   1.00
O2149  O     0.88138   0.79612   0.74840   0.00000  Uiso   1.00
O2150  O     0.92128   0.81891   0.68962   0.00000  Uiso   1.00
O2151  O     0.93853   0.82846   0.93021   0.00000  Uiso   1.00
O2152  O     0.54509   0.79509   0.87291   0.00000  Uiso   1.00
O2153  O     0.88573   0.84935   0.94723   0.00000  Uiso   1.00
O2154  O     0.88166   0.78102   0.94456   0.00000  Uiso   1.00
O2155  O     0.55975   0.68949   0.72917   0.00000  Uiso   1.00
O2156  O     0.61507   0.70183   0.76086   0.00000  Uiso   1.00
O2157  O     0.61440   0.66859   0.69255   0.00000  Uiso   1.00
O2158  O     0.68533   0.92588   0.73690   0.00000  Uiso   1.00
O2159  O     0.65180   0.89080   0.68422   0.00000  Uiso   1.00
O2160  O     0.63406   0.95480   0.71418   0.00000  Uiso   1.00
O2161  O     0.84442   0.62387   0.93924   0.00000  Uiso   1.00
O2162  O     0.82320   0.55464   0.93402   0.00000  Uiso   1.00
O2163  O     0.54509   0.79509   0.79375   0.00000  Uiso   1.00
O2164  O     0.88972   0.56858   0.92721   0.00000  Uiso   1.00
O2165  O     0.81357   0.57939   0.73925   0.00000  Uiso   1.00
O2166  O     0.84594   0.61421   0.68580   0.00000  Uiso   1.00
O2167  O     0.86704   0.55145   0.71359   0.00000  Uiso   1.00
O2168  O     0.65375   0.87721   0.94100   0.00000  Uiso   1.00
O2169  O     0.67769   0.94513   0.93471   0.00000  Uiso   1.00
O2170  O     0.61097   0.93462   0.92777   0.00000  Uiso   1.00
O2171  O     0.81069   0.93049   0.93021   0.00000  Uiso   1.00
O2172  O     0.83194   0.87345   0.96033   0.00000  Uiso   1.00
O2173  O     0.86672   0.93795   0.95889   0.00000  Uiso   1.00
O2174  O     0.95492   0.70491   0.87291   0.00000  Uiso   1.00
O2175  O     0.65330   0.61614   0.72008   0.00000  Uiso   1.00
O2176  O     0.67714   0.55230   0.73269   0.00000  Uiso   1.00
O2177  O     0.60757   0.55996   0.73431   0.00000  Uiso   1.00
O2178  O     0.68894   0.57090   0.93026   0.00000  Uiso   1.00
O2179  O     0.66947   0.62813   0.96085   0.00000  Uiso   1.00
O2180  O     0.63262   0.56493   0.96032   0.00000  Uiso   1.00
O2181  O     0.85089   0.88378   0.71363   0.00000  Uiso   1.00
O2182  O     0.82191   0.94586   0.73197   0.00000  Uiso   1.00
O2183  O     0.89161   0.94303   0.73437   0.00000  Uiso   1.00
O2184  O     0.79509   0.95491   0.87291   0.00000  Uiso   1.00
S2185  S     0.99599   0.65852   0.71326   0.00000  Uiso   1.00
S2186  S     0.59461   0.82463   0.92689   0.00000  Uiso   1.00
S2187  S     0.60578   0.80142   0.74675   0.00000  Uiso   1.00
S2188  S     0.90273   0.67822   0.92526   0.00000  Uiso   1.00
S2189  S     0.60364   0.68689   0.91956   0.00000  Uiso   1.00
S2190  S     0.91064   0.82677   0.73934   0.00000  Uiso   1.00
S2191  S     0.89996   0.82218   0.91797   0.00000  Uiso   1.00
S2192  S     0.59405   0.66792   0.74039   0.00000  Uiso   1.00
S2193  S     0.64958   0.90997   0.72824   0.00000  Uiso   1.00
S2194  S     0.84933   0.58633   0.91483   0.00000  Uiso   1.00
S2195  S     0.84920   0.59461   0.72908   0.00000  Uiso   1.00
S2196  S     0.50619   0.83589   0.95861   0.00000  Uiso   1.00
S2197  S     0.65068   0.91425   0.91586   0.00000  Uiso   1.00
S2198  S     0.84208   0.90582   0.92883   0.00000  Uiso   1.00
S2199  S     0.64791   0.58115   0.74732   0.00000  Uiso   1.00
S2200  S     0.65782   0.59607   0.92983   0.00000  Uiso   1.00
S2201  S     0.85224   0.91793   0.74473   0.00000  Uiso   1.00
S2202  S     0.50765   0.83839   0.71972   0.00000  Uiso   1.00
S2203  S     0.99702   0.66426   0.95333   0.00000  Uiso   1.00
S2204  S     0.75144   0.91451   0.71120   0.00000  Uiso   1.00
S2205  S     0.75570   0.58605   0.94947   0.00000  Uiso   1.00
S2206  S     0.74753   0.58486   0.71197   0.00000  Uiso   1.00
S2207  S     0.74417   0.91311   0.95012   0.00000  Uiso   1.00
S2208  S     0.89970   0.69349   0.74302   0.00000  Uiso   1.00
loop_
_geom_bond_atom_site_label_1
_geom_bond_atom_site_label_2
_geom_bond_distance
_geom_bond_site_symmetry_2
_ccdc_geom_bond_type
C1     O106    1.423   .     A
C1     O73     1.431   .     A
C1     C30     1.660   .     S
C2     C923    1.502   .     S
C2     N253    1.434   .     S
C2     S356    1.774   .     S
C3     S178    1.915   .     S
C3     C1658   1.502   1_454 S
C3     N70     1.387   .     S
C4     N69     1.417   .     A
C4     C960    1.498   1_455 S
C4     S363    1.790   1_455 S
C5     S180    1.784   .     S
C5     C1480   1.488   1_554 S
C5     N440    1.429   .     S
C6     S181    1.844   .     S
C6     C743    1.492   .     S
C6     N71     1.378   .     S
C7     N72     1.426   .     A
C7     S182    1.771   .     S
C7     C1478   1.492   1_554 S
C8     S183    1.839   .     S
C8     N439    1.391   .     A
C8     C741    1.488   .     S
C9     C20     1.560   .     A
C9     S184    1.955   .     S
C9     C28     1.505   .     A
C10    C27     1.483   .     A
C10    C21     1.551   .     A
C10    S162    2.029   .     S
C11    C18     1.578   .     A
C11    C27     1.506   .     A
C11    S163    1.957   .     S
C12    C29     1.652   .     S
C12    O84     1.402   .     A
C12    O95     1.446   .     A
C13    C28     1.482   .     A
C13    S164    2.005   .     S
C13    C19     1.545   .     A
C14    C30     1.504   .     A
C14    S165    1.923   .     S
C14    C25     1.569   .     A
C15    S166    1.980   .     S
C15    C29     1.499   .     A
C15    C26     1.591   .     A
C16    S167    1.872   .     S
C16    C22     1.553   .     A
C16    C29     1.492   .     A
C17    C30     1.504   .     A
C17    S168    1.941   .     S
C17    C24     1.556   .     A
C18    C32     1.596   .     A
C18    S169    2.011   .     S
C19    S170    1.790   .     S
C19    C31     1.493   .     A
C20    S171    1.960   .     S
C20    C31     1.595   .     A
C21    C32     1.504   .     A
C21    S173    1.796   .     S
C22    C35     1.527   .     A
C22    S174    1.953   .     S
C23    C28     1.582   .     S
C23    O150    1.414   .     A
C23    O117    1.406   .     A
C24    C33     1.508   .     A
C24    S175    1.787   .     S
C25    S176    1.944   .     S
C25    C33     1.533   .     A
C26    S177    1.817   .     S
C26    C35     1.530   .     A
C27    C34     1.584   .     S
C31    C39     1.725   .     S
C32    C38     1.719   .     S
C33    C37     1.716   .     S
C34    O139    1.411   .     A
C34    O128    1.409   .     A
C35    C36     1.722   .     S
C36    O76     1.448   .     A
C36    O160    1.437   .     A
C37    O74     1.439   .     A
C37    O75     1.446   .     A
C38    O77     1.398   .     A
C38    O80     1.478   .     A
C39    O78     1.480   .     A
C39    O79     1.400   .     A
C40    N254    1.425   .     A
C40    S161    1.932   .     S
C40    C1660   1.498   1_554 S
Cu41   O128    2.187   .     S
Cu41   N69     2.229   .     S
Cu41   O334    2.188   1_455 S
Cu42   O139    2.188   .     S
Cu42   N70     2.229   .     S
Cu42   O301    2.187   1_455 S
Cu43   O448    2.188   1_545 S
Cu43   N71     2.229   .     S
Cu43   O78     2.187   .     S
Cu44   O445    2.187   1_545 S
Cu44   N72     2.229   .     S
Cu44   O79     2.188   .     S
H45    O83     1.007   .     S
H46    O113    0.996   .     S
H47    O116    1.012   .     S
H48    O120    0.982   .     S
H49    O123    1.015   .     S
H50    O126    0.905   .     S
H51    O130    1.012   .     S
H52    O133    0.949   .     S
H53    O136    1.019   .     S
H54    O140    0.987   .     S
H55    O143    1.014   .     S
H56    O87     0.987   .     S
H57    O146    0.988   .     S
H58    O149    1.015   .     S
H59    O153    0.976   .     S
H60    O156    1.015   .     S
H61    O159    1.061   .     S
H62    O90     1.017   .     S
H63    O93     0.988   .     S
H64    O97     0.969   .     S
H65    O100    1.028   .     S
H66    O103    0.980   .     S
H67    O107    0.867   .     S
H68    O110    1.013   .     S
N69    C186    1.434   1_455 S
N70    C224    1.425   1_455 A
N71    C376    1.391   1_545 A
N72    C373    1.429   1_545 S
O77    Cu412   2.187   .     S
O80    Cu411   2.188   .     S
O81    S161    1.520   .     D
O82    S345    1.495   1_455 S
O83    S345    1.668   1_455 S
O85    S356    1.497   .     S
O86    S172    1.475   .     D
O87    S172    1.604   .     S
O88    S178    1.521   .     D
O89    S362    1.469   .     S
O90    S362    1.654   .     S
O91    S363    1.500   1_455 S
O92    S179    1.488   .     D
O93    S179    1.596   .     S
O94    S180    1.496   .     D
O96    S180    1.480   .     D
O97    S180    1.530   .     S
O98    S181    1.458   .     D
O99    S181    1.463   .     D
O100   S181    1.777   .     S
O101   S182    1.488   .     D
O102   S182    1.465   .     D
O103   S182    1.568   .     S
O104   S183    1.468   .     D
O105   S183    1.467   .     D
O107   S183    1.765   .     S
O108   S184    1.463   .     D
O109   S184    1.421   .     D
O110   S184    1.665   .     S
O111   S162    1.519   .     D
O112   S162    1.473   .     D
O113   S162    1.730   .     S
O114   S163    1.484   .     D
O115   S163    1.465   .     D
O116   S163    1.670   .     S
O117   Cu226   2.187   .     S
O118   S164    1.512   .     D
O119   S164    1.476   .     D
O120   S164    1.662   .     S
O121   S165    1.478   .     D
O122   S165    1.369   .     D
O123   S165    1.701   .     S
O124   S166    1.495   .     D
O124   O126    1.637   .     S
O125   S166    1.469   .     D
O126   S166    1.636   .     S
O127   S167    1.478   .     D
O129   S167    1.381   .     D
O130   S167    1.701   .     S
O131   S168    1.504   .     D
O132   S168    1.473   .     D
O133   S168    1.681   .     S
O134   S169    1.423   .     D
O135   S169    1.522   .     D
O136   S169    1.642   .     S
O137   S170    1.450   .     D
O138   S170    1.511   .     D
O140   S170    1.656   .     S
O141   S171    1.418   .     D
O142   S171    1.521   .     D
O143   S171    1.631   .     S
O144   S173    1.453   .     D
O145   S173    1.511   .     D
O146   S173    1.655   .     S
O147   S174    1.421   .     D
O148   S174    1.490   .     D
O149   S174    1.659   .     S
O150   Cu225   2.188   .     S
O151   S175    1.438   .     D
O152   S175    1.510   .     D
O153   S175    1.667   .     S
O154   S176    1.422   .     D
O155   S176    1.480   .     D
O156   S176    1.658   .     S
O157   S177    1.475   .     D
O158   S177    1.514   .     D
O159   S177    1.668   .     S
S161   O266    1.495   .     S
S161   O267    1.668   .     S
S172   C186    1.774   1_455 S
S172   O269    1.497   1_455 S
S178   O273    1.469   1_455 S
S178   O274    1.654   1_455 S
S179   O275    1.500   .     S
S179   C188    1.790   .     S
C185   O290    1.423   .     A
C185   O257    1.431   .     A
C185   C214    1.660   .     S
C186   C739    1.502   1_655 S
C186   N69     1.434   1_655 S
C186   S172    1.774   1_655 S
C187   S362    1.915   .     S
C187   C1474   1.502   1_554 S
C187   N254    1.387   .     S
C188   N253    1.417   .     A
C188   C776    1.498   .     S
C189   S364    1.784   .     S
C189   C1664   1.488   1_554 S
C189   N624    1.429   .     S
C190   S365    1.844   .     S
C190   C927    1.492   .     S
C190   N255    1.378   .     S
C191   N256    1.426   .     A
C191   S366    1.771   .     S
C191   C1662   1.492   1_554 S
C192   S367    1.839   .     S
C192   N623    1.391   .     A
C192   C925    1.488   .     S
C193   C204    1.560   .     A
C193   S368    1.955   .     S
C193   C212    1.505   .     A
C194   C211    1.483   .     A
C194   C205    1.551   .     A
C194   S346    2.029   .     S
C195   C202    1.578   .     A
C195   C211    1.506   .     A
C195   S347    1.957   .     S
C196   C213    1.652   .     S
C196   O268    1.402   .     A
C196   O279    1.446   .     A
C197   C212    1.482   .     A
C197   S348    2.005   .     S
C197   C203    1.545   .     A
C198   C214    1.504   .     A
C198   S349    1.923   .     S
C198   C209    1.569   .     A
C199   S350    1.980   .     S
C199   C213    1.499   .     A
C199   C210    1.591   .     A
C200   S351    1.872   .     S
C200   C206    1.553   .     A
C200   C213    1.492   .     A
C201   C214    1.504   .     A
C201   S352    1.941   .     S
C201   C208    1.556   .     A
C202   C216    1.596   .     A
C202   S353    2.011   .     S
C203   S354    1.790   .     S
C203   C215    1.493   .     A
C204   S355    1.960   .     S
C204   C215    1.595   .     A
C205   C216    1.504   .     A
C205   S357    1.796   .     S
C206   C219    1.527   .     A
C206   S358    1.953   .     S
C207   C212    1.582   .     S
C207   O334    1.414   .     A
C207   O301    1.406   .     A
C208   C217    1.508   .     A
C208   S359    1.787   .     S
C209   S360    1.944   .     S
C209   C217    1.533   .     A
C210   S361    1.817   .     S
C210   C219    1.530   .     A
C211   C218    1.584   .     S
C215   C223    1.725   .     S
C216   C222    1.719   .     S
C217   C221    1.716   .     S
C218   O323    1.411   .     A
C218   O312    1.409   .     A
C219   C220    1.722   .     S
C220   O260    1.448   .     A
C220   O344    1.437   .     A
C221   O258    1.439   .     A
C221   O259    1.446   .     A
C222   O261    1.398   .     A
C222   O264    1.478   .     A
C223   O262    1.480   .     A
C223   O263    1.400   .     A
C224   N70     1.425   1_655 A
C224   S345    1.932   .     S
C224   C1476   1.498   1_654 S
Cu225  O312    2.187   .     S
Cu225  N253    2.229   .     S
Cu226  O323    2.188   .     S
Cu226  N254    2.229   .     S
Cu227  O632    2.188   1_545 S
Cu227  N255    2.229   .     S
Cu227  O262    2.187   .     S
Cu228  O629    2.187   1_545 S
Cu228  N256    2.229   .     S
Cu228  O263    2.188   .     S
H229   O267    1.007   .     S
H230   O297    0.996   .     S
H231   O300    1.012   .     S
H232   O304    0.982   .     S
H233   O307    1.015   .     S
H234   O310    0.905   .     S
H235   O314    1.012   .     S
H236   O317    0.949   .     S
H237   O320    1.019   .     S
H238   O324    0.987   .     S
H239   O327    1.014   .     S
H240   O271    0.987   .     S
H241   O330    0.988   .     S
H242   O333    1.015   .     S
H243   O337    0.976   .     S
H244   O340    1.015   .     S
H245   O343    1.061   .     S
H246   O274    1.017   .     S
H247   O277    0.988   .     S
H248   O281    0.969   .     S
H249   O284    1.028   .     S
H250   O287    0.980   .     S
H251   O291    0.867   .     S
H252   O294    1.013   .     S
N255   C560    1.391   1_545 A
N256   C557    1.429   1_545 S
O261   Cu596   2.187   .     S
O264   Cu595   2.188   .     S
O265   S345    1.520   .     D
O269   S172    1.497   1_655 S
O270   S356    1.475   .     D
O271   S356    1.604   .     S
O272   S362    1.521   .     D
O273   S178    1.469   1_655 S
O274   S178    1.654   1_655 S
O276   S363    1.488   .     D
O277   S363    1.596   .     S
O278   S364    1.496   .     D
O280   S364    1.480   .     D
O281   S364    1.530   .     S
O282   S365    1.458   .     D
O283   S365    1.463   .     D
O284   S365    1.777   .     S
O285   S366    1.488   .     D
O286   S366    1.465   .     D
O287   S366    1.568   .     S
O288   S367    1.468   .     D
O289   S367    1.467   .     D
O291   S367    1.765   .     S
O292   S368    1.463   .     D
O293   S368    1.421   .     D
O294   S368    1.665   .     S
O295   S346    1.519   .     D
O296   S346    1.473   .     D
O297   S346    1.730   .     S
O298   S347    1.484   .     D
O299   S347    1.465   .     D
O300   S347    1.670   .     S
O301   Cu42    2.187   1_655 S
O302   S348    1.512   .     D
O303   S348    1.476   .     D
O304   S348    1.662   .     S
O305   S349    1.478   .     D
O306   S349    1.369   .     D
O307   S349    1.701   .     S
O308   S350    1.495   .     D
O308   O310    1.637   .     S
O309   S350    1.469   .     D
O310   S350    1.636   .     S
O311   S351    1.478   .     D
O313   S351    1.381   .     D
O314   S351    1.701   .     S
O315   S352    1.504   .     D
O316   S352    1.473   .     D
O317   S352    1.681   .     S
O318   S353    1.423   .     D
O319   S353    1.522   .     D
O320   S353    1.642   .     S
O321   S354    1.450   .     D
O322   S354    1.511   .     D
O324   S354    1.656   .     S
O325   S355    1.418   .     D
O326   S355    1.521   .     D
O327   S355    1.631   .     S
O328   S357    1.453   .     D
O329   S357    1.511   .     D
O330   S357    1.655   .     S
O331   S358    1.421   .     D
O332   S358    1.490   .     D
O333   S358    1.659   .     S
O334   Cu41    2.188   1_655 S
O335   S359    1.438   .     D
O336   S359    1.510   .     D
O337   S359    1.667   .     S
O338   S360    1.422   .     D
O339   S360    1.480   .     D
O340   S360    1.658   .     S
O341   S361    1.475   .     D
O342   S361    1.514   .     D
O343   S361    1.668   .     S
S345   O82     1.495   1_655 S
S345   O83     1.668   1_655 S
S363   O91     1.500   1_655 S
S363   C4      1.790   1_655 S
C369   O474    1.423   .     A
C369   O441    1.431   .     A
C369   C398    1.660   .     S
C370   C1291   1.502   .     S
C370   N621    1.434   .     S
C370   S724    1.774   .     S
C371   S546    1.915   .     S
C371   C2026   1.502   1_454 S
C371   N438    1.387   .     S
C372   N437    1.417   .     A
C372   C1328   1.498   1_455 S
C372   S731    1.790   1_455 S
C373   S548    1.784   .     S
C373   C1848   1.488   1_554 S
C373   N72     1.429   1_565 S
C374   S549    1.844   .     S
C374   C1111   1.492   .     S
C374   N439    1.378   .     S
C375   N440    1.426   .     A
C375   S550    1.771   .     S
C375   C1846   1.492   1_554 S
C376   S551    1.839   .     S
C376   N71     1.391   1_565 A
C376   C1109   1.488   .     S
C377   C388    1.560   .     A
C377   S552    1.955   .     S
C377   C396    1.505   .     A
C378   C395    1.483   .     A
C378   C389    1.551   .     A
C378   S530    2.029   .     S
C379   C386    1.578   .     A
C379   C395    1.506   .     A
C379   S531    1.957   .     S
C380   C397    1.652   .     S
C380   O452    1.402   .     A
C380   O463    1.446   .     A
C381   C396    1.482   .     A
C381   S532    2.005   .     S
C381   C387    1.545   .     A
C382   C398    1.504   .     A
C382   S533    1.923   .     S
C382   C393    1.569   .     A
C383   S534    1.980   .     S
C383   C397    1.499   .     A
C383   C394    1.591   .     A
C384   S535    1.872   .     S
C384   C390    1.553   .     A
C384   C397    1.492   .     A
C385   C398    1.504   .     A
C385   S536    1.941   .     S
C385   C392    1.556   .     A
C386   C400    1.596   .     A
C386   S537    2.011   .     S
C387   S538    1.790   .     S
C387   C399    1.493   .     A
C388   S539    1.960   .     S
C388   C399    1.595   .     A
C389   C400    1.504   .     A
C389   S541    1.796   .     S
C390   C403    1.527   .     A
C390   S542    1.953   .     S
C391   C396    1.582   .     S
C391   O518    1.414   .     A
C391   O485    1.406   .     A
C392   C401    1.508   .     A
C392   S543    1.787   .     S
C393   S544    1.944   .     S
C393   C401    1.533   .     A
C394   S545    1.817   .     S
C394   C403    1.530   .     A
C395   C402    1.584   .     S
C399   C407    1.725   .     S
C400   C406    1.719   .     S
C401   C405    1.716   .     S
C402   O507    1.411   .     A
C402   O496    1.409   .     A
C403   C404    1.722   .     S
C404   O444    1.448   .     A
C404   O528    1.437   .     A
C405   O442    1.439   .     A
C405   O443    1.446   .     A
C406   O445    1.398   .     A
C406   O448    1.478   .     A
C407   O446    1.480   .     A
C407   O447    1.400   .     A
C408   N622    1.425   .     A
C408   S529    1.932   .     S
C408   C2028   1.498   1_554 S
Cu409  O496    2.187   .     S
Cu409  N437    2.229   .     S
Cu409  O702    2.188   1_455 S
Cu410  O507    2.188   .     S
Cu410  N438    2.229   .     S
Cu410  O669    2.187   1_455 S
Cu411  N439    2.229   .     S
Cu411  O446    2.187   .     S
Cu412  N440    2.229   .     S
Cu412  O447    2.188   .     S
H413   O451    1.007   .     S
H414   O481    0.996   .     S
H415   O484    1.012   .     S
H416   O488    0.982   .     S
H417   O491    1.015   .     S
H418   O494    0.905   .     S
H419   O498    1.012   .     S
H420   O501    0.949   .     S
H421   O504    1.019   .     S
H422   O508    0.987   .     S
H423   O511    1.014   .     S
H424   O455    0.987   .     S
H425   O514    0.988   .     S
H426   O517    1.015   .     S
H427   O521    0.976   .     S
H428   O524    1.015   .     S
H429   O527    1.061   .     S
H430   O458    1.017   .     S
H431   O461    0.988   .     S
H432   O465    0.969   .     S
H433   O468    1.028   .     S
H434   O471    0.980   .     S
H435   O475    0.867   .     S
H436   O478    1.013   .     S
N437   C554    1.434   1_455 S
N438   C592    1.425   1_455 A
O445   Cu44    2.187   1_565 S
O448   Cu43    2.188   1_565 S
O449   S529    1.520   .     D
O450   S713    1.495   1_455 S
O451   S713    1.668   1_455 S
O453   S724    1.497   .     S
O454   S540    1.475   .     D
O455   S540    1.604   .     S
O456   S546    1.521   .     D
O457   S730    1.469   .     S
O458   S730    1.654   .     S
O459   S731    1.500   1_455 S
O460   S547    1.488   .     D
O461   S547    1.596   .     S
O462   S548    1.496   .     D
O464   S548    1.480   .     D
O465   S548    1.530   .     S
O466   S549    1.458   .     D
O467   S549    1.463   .     D
O468   S549    1.777   .     S
O469   S550    1.488   .     D
O470   S550    1.465   .     D
O471   S550    1.568   .     S
O472   S551    1.468   .     D
O473   S551    1.467   .     D
O475   S551    1.765   .     S
O476   S552    1.463   .     D
O477   S552    1.421   .     D
O478   S552    1.665   .     S
O479   S530    1.519   .     D
O480   S530    1.473   .     D
O481   S530    1.730   .     S
O482   S531    1.484   .     D
O483   S531    1.465   .     D
O484   S531    1.670   .     S
O485   Cu594   2.187   .     S
O486   S532    1.512   .     D
O487   S532    1.476   .     D
O488   S532    1.662   .     S
O489   S533    1.478   .     D
O490   S533    1.369   .     D
O491   S533    1.701   .     S
O492   S534    1.495   .     D
O492   O494    1.637   .     S
O493   S534    1.469   .     D
O494   S534    1.636   .     S
O495   S535    1.478   .     D
O497   S535    1.381   .     D
O498   S535    1.701   .     S
O499   S536    1.504   .     D
O500   S536    1.473   .     D
O501   S536    1.681   .     S
O502   S537    1.423   .     D
O503   S537    1.522   .     D
O504   S537    1.642   .     S
O505   S538    1.450   .     D
O506   S538    1.511   .     D
O508   S538    1.656   .     S
O509   S539    1.418   .     D
O510   S539    1.521   .     D
O511   S539    1.631   .     S
O512   S541    1.453   .     D
O513   S541    1.511   .     D
O514   S541    1.655   .     S
O515   S542    1.421   .     D
O516   S542    1.490   .     D
O517   S542    1.659   .     S
O518   Cu593   2.188   .     S
O519   S543    1.438   .     D
O520   S543    1.510   .     D
O521   S543    1.667   .     S
O522   S544    1.422   .     D
O523   S544    1.480   .     D
O524   S544    1.658   .     S
O525   S545    1.475   .     D
O526   S545    1.514   .     D
O527   S545    1.668   .     S
S529   O634    1.495   .     S
S529   O635    1.668   .     S
S540   C554    1.774   1_455 S
S540   O637    1.497   1_455 S
S546   O641    1.469   1_455 S
S546   O642    1.654   1_455 S
S547   O643    1.500   .     S
S547   C556    1.790   .     S
C553   O658    1.423   .     A
C553   O625    1.431   .     A
C553   C582    1.660   .     S
C554   C1107   1.502   1_655 S
C554   N437    1.434   1_655 S
C554   S540    1.774   1_655 S
C555   S730    1.915   .     S
C555   C1842   1.502   1_554 S
C555   N622    1.387   .     S
C556   N621    1.417   .     A
C556   C1144   1.498   .     S
C557   S732    1.784   .     S
C557   C2032   1.488   1_554 S
C557   N256    1.429   1_565 S
C558   S733    1.844   .     S
C558   C1295   1.492   .     S
C558   N623    1.378   .     S
C559   N624    1.426   .     A
C559   S734    1.771   .     S
C559   C2030   1.492   1_554 S
C560   S735    1.839   .     S
C560   N255    1.391   1_565 A
C560   C1293   1.488   .     S
C561   C572    1.560   .     A
C561   S736    1.955   .     S
C561   C580    1.505   .     A
C562   C579    1.483   .     A
C562   C573    1.551   .     A
C562   S714    2.029   .     S
C563   C570    1.578   .     A
C563   C579    1.506   .     A
C563   S715    1.957   .     S
C564   C581    1.652   .     S
C564   O636    1.402   .     A
C564   O647    1.446   .     A
C565   C580    1.482   .     A
C565   S716    2.005   .     S
C565   C571    1.545   .     A
C566   C582    1.504   .     A
C566   S717    1.923   .     S
C566   C577    1.569   .     A
C567   S718    1.980   .     S
C567   C581    1.499   .     A
C567   C578    1.591   .     A
C568   S719    1.872   .     S
C568   C574    1.553   .     A
C568   C581    1.492   .     A
C569   C582    1.504   .     A
C569   S720    1.941   .     S
C569   C576    1.556   .     A
C570   C584    1.596   .     A
C570   S721    2.011   .     S
C571   S722    1.790   .     S
C571   C583    1.493   .     A
C572   S723    1.960   .     S
C572   C583    1.595   .     A
C573   C584    1.504   .     A
C573   S725    1.796   .     S
C574   C587    1.527   .     A
C574   S726    1.953   .     S
C575   C580    1.582   .     S
C575   O702    1.414   .     A
C575   O669    1.406   .     A
C576   C585    1.508   .     A
C576   S727    1.787   .     S
C577   S728    1.944   .     S
C577   C585    1.533   .     A
C578   S729    1.817   .     S
C578   C587    1.530   .     A
C579   C586    1.584   .     S
C583   C591    1.725   .     S
C584   C590    1.719   .     S
C585   C589    1.716   .     S
C586   O691    1.411   .     A
C586   O680    1.409   .     A
C587   C588    1.722   .     S
C588   O628    1.448   .     A
C588   O712    1.437   .     A
C589   O626    1.439   .     A
C589   O627    1.446   .     A
C590   O629    1.398   .     A
C590   O632    1.478   .     A
C591   O630    1.480   .     A
C591   O631    1.400   .     A
C592   N438    1.425   1_655 A
C592   S713    1.932   .     S
C592   C1844   1.498   1_654 S
Cu593  O680    2.187   .     S
Cu593  N621    2.229   .     S
Cu594  O691    2.188   .     S
Cu594  N622    2.229   .     S
Cu595  N623    2.229   .     S
Cu595  O630    2.187   .     S
Cu596  N624    2.229   .     S
Cu596  O631    2.188   .     S
H597   O635    1.007   .     S
H598   O665    0.996   .     S
H599   O668    1.012   .     S
H600   O672    0.982   .     S
H601   O675    1.015   .     S
H602   O678    0.905   .     S
H603   O682    1.012   .     S
H604   O685    0.949   .     S
H605   O688    1.019   .     S
H606   O692    0.987   .     S
H607   O695    1.014   .     S
H608   O639    0.987   .     S
H609   O698    0.988   .     S
H610   O701    1.015   .     S
H611   O705    0.976   .     S
H612   O708    1.015   .     S
H613   O711    1.061   .     S
H614   O642    1.017   .     S
H615   O645    0.988   .     S
H616   O649    0.969   .     S
H617   O652    1.028   .     S
H618   O655    0.980   .     S
H619   O659    0.867   .     S
H620   O662    1.013   .     S
O629   Cu228   2.187   1_565 S
O632   Cu227   2.188   1_565 S
O633   S713    1.520   .     D
O637   S540    1.497   1_655 S
O638   S724    1.475   .     D
O639   S724    1.604   .     S
O640   S730    1.521   .     D
O641   S546    1.469   1_655 S
O642   S546    1.654   1_655 S
O644   S731    1.488   .     D
O645   S731    1.596   .     S
O646   S732    1.496   .     D
O648   S732    1.480   .     D
O649   S732    1.530   .     S
O650   S733    1.458   .     D
O651   S733    1.463   .     D
O652   S733    1.777   .     S
O653   S734    1.488   .     D
O654   S734    1.465   .     D
O655   S734    1.568   .     S
O656   S735    1.468   .     D
O657   S735    1.467   .     D
O659   S735    1.765   .     S
O660   S736    1.463   .     D
O661   S736    1.421   .     D
O662   S736    1.665   .     S
O663   S714    1.519   .     D
O664   S714    1.473   .     D
O665   S714    1.730   .     S
O666   S715    1.484   .     D
O667   S715    1.465   .     D
O668   S715    1.670   .     S
O669   Cu410   2.187   1_655 S
O670   S716    1.512   .     D
O671   S716    1.476   .     D
O672   S716    1.662   .     S
O673   S717    1.478   .     D
O674   S717    1.369   .     D
O675   S717    1.701   .     S
O676   S718    1.495   .     D
O676   O678    1.637   .     S
O677   S718    1.469   .     D
O678   S718    1.636   .     S
O679   S719    1.478   .     D
O681   S719    1.381   .     D
O682   S719    1.701   .     S
O683   S720    1.504   .     D
O684   S720    1.473   .     D
O685   S720    1.681   .     S
O686   S721    1.423   .     D
O687   S721    1.522   .     D
O688   S721    1.642   .     S
O689   S722    1.450   .     D
O690   S722    1.511   .     D
O692   S722    1.656   .     S
O693   S723    1.418   .     D
O694   S723    1.521   .     D
O695   S723    1.631   .     S
O696   S725    1.453   .     D
O697   S725    1.511   .     D
O698   S725    1.655   .     S
O699   S726    1.421   .     D
O700   S726    1.490   .     D
O701   S726    1.659   .     S
O702   Cu409   2.188   1_655 S
O703   S727    1.438   .     D
O704   S727    1.510   .     D
O705   S727    1.667   .     S
O706   S728    1.422   .     D
O707   S728    1.480   .     D
O708   S728    1.658   .     S
O709   S729    1.475   .     D
O710   S729    1.514   .     D
O711   S729    1.668   .     S
S713   O450    1.495   1_655 S
S713   O451    1.668   1_655 S
S731   O459    1.500   1_655 S
S731   C372    1.790   1_655 S
C737   O842    1.423   .     A
C737   O809    1.431   .     A
C737   C766    1.660   .     S
C738   C1659   1.502   .     S
C738   N989    1.434   .     S
C738   S1092   1.774   .     S
C739   S914    1.915   .     S
C739   C186    1.502   1_455 S
C739   N806    1.387   .     S
C740   N805    1.417   .     A
C740   C1696   1.498   1_455 S
C740   S1099   1.790   1_455 S
C741   S916    1.784   .     S
C741   N1176   1.429   .     S
C742   S917    1.844   .     S
C742   C1479   1.492   .     S
C742   N807    1.378   .     S
C743   N808    1.426   .     A
C743   S918    1.771   .     S
C744   S919    1.839   .     S
C744   N1175   1.391   .     A
C744   C1477   1.488   .     S
C745   C756    1.560   .     A
C745   S920    1.955   .     S
C745   C764    1.505   .     A
C746   C763    1.483   .     A
C746   C757    1.551   .     A
C746   S898    2.029   .     S
C747   C754    1.578   .     A
C747   C763    1.506   .     A
C747   S899    1.957   .     S
C748   C765    1.652   .     S
C748   O820    1.402   .     A
C748   O831    1.446   .     A
C749   C764    1.482   .     A
C749   S900    2.005   .     S
C749   C755    1.545   .     A
C750   C766    1.504   .     A
C750   S901    1.923   .     S
C750   C761    1.569   .     A
C751   S902    1.980   .     S
C751   C765    1.499   .     A
C751   C762    1.591   .     A
C752   S903    1.872   .     S
C752   C758    1.553   .     A
C752   C765    1.492   .     A
C753   C766    1.504   .     A
C753   S904    1.941   .     S
C753   C760    1.556   .     A
C754   C768    1.596   .     A
C754   S905    2.011   .     S
C755   S906    1.790   .     S
C755   C767    1.493   .     A
C756   S907    1.960   .     S
C756   C767    1.595   .     A
C757   C768    1.504   .     A
C757   S909    1.796   .     S
C758   C771    1.527   .     A
C758   S910    1.953   .     S
C759   C764    1.582   .     S
C759   O886    1.414   .     A
C759   O853    1.406   .     A
C760   C769    1.508   .     A
C760   S911    1.787   .     S
C761   S912    1.944   .     S
C761   C769    1.533   .     A
C762   S913    1.817   .     S
C762   C771    1.530   .     A
C763   C770    1.584   .     S
C767   C775    1.725   .     S
C768   C774    1.719   .     S
C769   C773    1.716   .     S
C770   O875    1.411   .     A
C770   O864    1.409   .     A
C771   C772    1.722   .     S
C772   O812    1.448   .     A
C772   O896    1.437   .     A
C773   O810    1.439   .     A
C773   O811    1.446   .     A
C774   O813    1.398   .     A
C774   O816    1.478   .     A
C775   O814    1.480   .     A
C775   O815    1.400   .     A
C776   N990    1.425   .     A
C776   S897    1.932   .     S
Cu777  O864    2.187   .     S
Cu777  N805    2.229   .     S
Cu777  O1070   2.188   1_455 S
Cu778  O875    2.188   .     S
Cu778  N806    2.229   .     S
Cu778  O1037   2.187   1_455 S
Cu779  O1184   2.188   1_545 S
Cu779  N807    2.229   .     S
Cu779  O814    2.187   .     S
Cu780  O1181   2.187   1_545 S
Cu780  N808    2.229   .     S
Cu780  O815    2.188   .     S
H781   O819    1.007   .     S
H782   O849    0.996   .     S
H783   O852    1.012   .     S
H784   O856    0.982   .     S
H785   O859    1.015   .     S
H786   O862    0.905   .     S
H787   O866    1.012   .     S
H788   O869    0.949   .     S
H789   O872    1.019   .     S
H790   O876    0.987   .     S
H791   O879    1.014   .     S
H792   O823    0.987   .     S
H793   O882    0.988   .     S
H794   O885    1.015   .     S
H795   O889    0.976   .     S
H796   O892    1.015   .     S
H797   O895    1.061   .     S
H798   O826    1.017   .     S
H799   O829    0.988   .     S
H800   O833    0.969   .     S
H801   O836    1.028   .     S
H802   O839    0.980   .     S
H803   O843    0.867   .     S
H804   O846    1.013   .     S
N805   C922    1.434   1_455 S
N806   C960    1.425   1_455 A
N807   C1112   1.391   1_545 A
N808   C1109   1.429   1_545 S
O813   Cu1148  2.187   .     S
O816   Cu1147  2.188   .     S
O817   S897    1.520   .     D
O818   S1081   1.495   1_455 S
O819   S1081   1.668   1_455 S
O821   S1092   1.497   .     S
O822   S908    1.475   .     D
O823   S908    1.604   .     S
O824   S914    1.521   .     D
O825   S1098   1.469   .     S
O826   S1098   1.654   .     S
O827   S1099   1.500   1_455 S
O828   S915    1.488   .     D
O829   S915    1.596   .     S
O830   S916    1.496   .     D
O832   S916    1.480   .     D
O833   S916    1.530   .     S
O834   S917    1.458   .     D
O835   S917    1.463   .     D
O836   S917    1.777   .     S
O837   S918    1.488   .     D
O838   S918    1.465   .     D
O839   S918    1.568   .     S
O840   S919    1.468   .     D
O841   S919    1.467   .     D
O843   S919    1.765   .     S
O844   S920    1.463   .     D
O845   S920    1.421   .     D
O846   S920    1.665   .     S
O847   S898    1.519   .     D
O848   S898    1.473   .     D
O849   S898    1.730   .     S
O850   S899    1.484   .     D
O851   S899    1.465   .     D
O852   S899    1.670   .     S
O853   Cu962   2.187   .     S
O854   S900    1.512   .     D
O855   S900    1.476   .     D
O856   S900    1.662   .     S
O857   S901    1.478   .     D
O858   S901    1.369   .     D
O859   S901    1.701   .     S
O860   S902    1.495   .     D
O860   O862    1.637   .     S
O861   S902    1.469   .     D
O862   S902    1.636   .     S
O863   S903    1.478   .     D
O865   S903    1.381   .     D
O866   S903    1.701   .     S
O867   S904    1.504   .     D
O868   S904    1.473   .     D
O869   S904    1.681   .     S
O870   S905    1.423   .     D
O871   S905    1.522   .     D
O872   S905    1.642   .     S
O873   S906    1.450   .     D
O874   S906    1.511   .     D
O876   S906    1.656   .     S
O877   S907    1.418   .     D
O878   S907    1.521   .     D
O879   S907    1.631   .     S
O880   S909    1.453   .     D
O881   S909    1.511   .     D
O882   S909    1.655   .     S
O883   S910    1.421   .     D
O884   S910    1.490   .     D
O885   S910    1.659   .     S
O886   Cu961   2.188   .     S
O887   S911    1.438   .     D
O888   S911    1.510   .     D
O889   S911    1.667   .     S
O890   S912    1.422   .     D
O891   S912    1.480   .     D
O892   S912    1.658   .     S
O893   S913    1.475   .     D
O894   S913    1.514   .     D
O895   S913    1.668   .     S
S897   O1002   1.495   .     S
S897   O1003   1.668   .     S
S908   C922    1.774   1_455 S
S908   O1005   1.497   1_455 S
S914   O1009   1.469   1_455 S
S914   O1010   1.654   1_455 S
S915   O1011   1.500   .     S
S915   C924    1.790   .     S
C921   O1026   1.423   .     A
C921   O993    1.431   .     A
C921   C950    1.660   .     S
C922   C1475   1.502   1_655 S
C922   N805    1.434   1_655 S
C922   S908    1.774   1_655 S
C923   S1098   1.915   .     S
C923   N990    1.387   .     S
C924   N989    1.417   .     A
C924   C1512   1.498   .     S
C925   S1100   1.784   .     S
C925   N1360   1.429   .     S
C926   S1101   1.844   .     S
C926   C1663   1.492   .     S
C926   N991    1.378   .     S
C927   N992    1.426   .     A
C927   S1102   1.771   .     S
C928   S1103   1.839   .     S
C928   N1359   1.391   .     A
C928   C1661   1.488   .     S
C929   C940    1.560   .     A
C929   S1104   1.955   .     S
C929   C948    1.505   .     A
C930   C947    1.483   .     A
C930   C941    1.551   .     A
C930   S1082   2.029   .     S
C931   C938    1.578   .     A
C931   C947    1.506   .     A
C931   S1083   1.957   .     S
C932   C949    1.652   .     S
C932   O1004   1.402   .     A
C932   O1015   1.446   .     A
C933   C948    1.482   .     A
C933   S1084   2.005   .     S
C933   C939    1.545   .     A
C934   C950    1.504   .     A
C934   S1085   1.923   .     S
C934   C945    1.569   .     A
C935   S1086   1.980   .     S
C935   C949    1.499   .     A
C935   C946    1.591   .     A
C936   S1087   1.872   .     S
C936   C942    1.553   .     A
C936   C949    1.492   .     A
C937   C950    1.504   .     A
C937   S1088   1.941   .     S
C937   C944    1.556   .     A
C938   C952    1.596   .     A
C938   S1089   2.011   .     S
C939   S1090   1.790   .     S
C939   C951    1.493   .     A
C940   S1091   1.960   .     S
C940   C951    1.595   .     A
C941   C952    1.504   .     A
C941   S1093   1.796   .     S
C942   C955    1.527   .     A
C942   S1094   1.953   .     S
C943   C948    1.582   .     S
C943   O1070   1.414   .     A
C943   O1037   1.406   .     A
C944   C953    1.508   .     A
C944   S1095   1.787   .     S
C945   S1096   1.944   .     S
C945   C953    1.533   .     A
C946   S1097   1.817   .     S
C946   C955    1.530   .     A
C947   C954    1.584   .     S
C951   C959    1.725   .     S
C952   C958    1.719   .     S
C953   C957    1.716   .     S
C954   O1059   1.411   .     A
C954   O1048   1.409   .     A
C955   C956    1.722   .     S
C956   O996    1.448   .     A
C956   O1080   1.437   .     A
C957   O994    1.439   .     A
C957   O995    1.446   .     A
C958   O997    1.398   .     A
C958   O1000   1.478   .     A
C959   O998    1.480   .     A
C959   O999    1.400   .     A
C960   N806    1.425   1_655 A
C960   S1081   1.932   .     S
C960   C4      1.498   1_655 S
Cu961  O1048   2.187   .     S
Cu961  N989    2.229   .     S
Cu962  O1059   2.188   .     S
Cu962  N990    2.229   .     S
Cu963  O1368   2.188   1_545 S
Cu963  N991    2.229   .     S
Cu963  O998    2.187   .     S
Cu964  O1365   2.187   1_545 S
Cu964  N992    2.229   .     S
Cu964  O999    2.188   .     S
H965   O1003   1.007   .     S
H966   O1033   0.996   .     S
H967   O1036   1.012   .     S
H968   O1040   0.982   .     S
H969   O1043   1.015   .     S
H970   O1046   0.905   .     S
H971   O1050   1.012   .     S
H972   O1053   0.949   .     S
H973   O1056   1.019   .     S
H974   O1060   0.987   .     S
H975   O1063   1.014   .     S
H976   O1007   0.987   .     S
H977   O1066   0.988   .     S
H978   O1069   1.015   .     S
H979   O1073   0.976   .     S
H980   O1076   1.015   .     S
H981   O1079   1.061   .     S
H982   O1010   1.017   .     S
H983   O1013   0.988   .     S
H984   O1017   0.969   .     S
H985   O1020   1.028   .     S
H986   O1023   0.980   .     S
H987   O1027   0.867   .     S
H988   O1030   1.013   .     S
N991   C1296   1.391   1_545 A
N992   C1293   1.429   1_545 S
O997   Cu1332  2.187   .     S
O1000  Cu1331  2.188   .     S
O1001  S1081   1.520   .     D
O1005  S908    1.497   1_655 S
O1006  S1092   1.475   .     D
O1007  S1092   1.604   .     S
O1008  S1098   1.521   .     D
O1009  S914    1.469   1_655 S
O1010  S914    1.654   1_655 S
O1012  S1099   1.488   .     D
O1013  S1099   1.596   .     S
O1014  S1100   1.496   .     D
O1016  S1100   1.480   .     D
O1017  S1100   1.530   .     S
O1018  S1101   1.458   .     D
O1019  S1101   1.463   .     D
O1020  S1101   1.777   .     S
O1021  S1102   1.488   .     D
O1022  S1102   1.465   .     D
O1023  S1102   1.568   .     S
O1024  S1103   1.468   .     D
O1025  S1103   1.467   .     D
O1027  S1103   1.765   .     S
O1028  S1104   1.463   .     D
O1029  S1104   1.421   .     D
O1030  S1104   1.665   .     S
O1031  S1082   1.519   .     D
O1032  S1082   1.473   .     D
O1033  S1082   1.730   .     S
O1034  S1083   1.484   .     D
O1035  S1083   1.465   .     D
O1036  S1083   1.670   .     S
O1037  Cu778   2.187   1_655 S
O1038  S1084   1.512   .     D
O1039  S1084   1.476   .     D
O1040  S1084   1.662   .     S
O1041  S1085   1.478   .     D
O1042  S1085   1.369   .     D
O1043  S1085   1.701   .     S
O1044  S1086   1.495   .     D
O1044  O1046   1.637   .     S
O1045  S1086   1.469   .     D
O1046  S1086   1.636   .     S
O1047  S1087   1.478   .     D
O1049  S1087   1.381   .     D
O1050  S1087   1.701   .     S
O1051  S1088   1.504   .     D
O1052  S1088   1.473   .     D
O1053  S1088   1.681   .     S
O1054  S1089   1.423   .     D
O1055  S1089   1.522   .     D
O1056  S1089   1.642   .     S
O1057  S1090   1.450   .     D
O1058  S1090   1.511   .     D
O1060  S1090   1.656   .     S
O1061  S1091   1.418   .     D
O1062  S1091   1.521   .     D
O1063  S1091   1.631   .     S
O1064  S1093   1.453   .     D
O1065  S1093   1.511   .     D
O1066  S1093   1.655   .     S
O1067  S1094   1.421   .     D
O1068  S1094   1.490   .     D
O1069  S1094   1.659   .     S
O1070  Cu777   2.188   1_655 S
O1071  S1095   1.438   .     D
O1072  S1095   1.510   .     D
O1073  S1095   1.667   .     S
O1074  S1096   1.422   .     D
O1075  S1096   1.480   .     D
O1076  S1096   1.658   .     S
O1077  S1097   1.475   .     D
O1078  S1097   1.514   .     D
O1079  S1097   1.668   .     S
S1081  O818    1.495   1_655 S
S1081  O819    1.668   1_655 S
S1099  O827    1.500   1_655 S
S1099  C740    1.790   1_655 S
C1105  O1210   1.423   .     A
C1105  O1177   1.431   .     A
C1105  C1134   1.660   .     S
C1106  C2027   1.502   .     S
C1106  N1357   1.434   .     S
C1106  S1460   1.774   .     S
C1107  S1282   1.915   .     S
C1107  C554    1.502   1_455 S
C1107  N1174   1.387   .     S
C1108  N1173   1.417   .     A
C1108  C2064   1.498   1_455 S
C1108  S1467   1.790   1_455 S
C1109  S1284   1.784   .     S
C1109  N808    1.429   1_565 S
C1110  S1285   1.844   .     S
C1110  C1847   1.492   .     S
C1110  N1175   1.378   .     S
C1111  N1176   1.426   .     A
C1111  S1286   1.771   .     S
C1112  S1287   1.839   .     S
C1112  N807    1.391   1_565 A
C1112  C1845   1.488   .     S
C1113  C1124   1.560   .     A
C1113  S1288   1.955   .     S
C1113  C1132   1.505   .     A
C1114  C1131   1.483   .     A
C1114  C1125   1.551   .     A
C1114  S1266   2.029   .     S
C1115  C1122   1.578   .     A
C1115  C1131   1.506   .     A
C1115  S1267   1.957   .     S
C1116  C1133   1.652   .     S
C1116  O1188   1.402   .     A
C1116  O1199   1.446   .     A
C1117  C1132   1.482   .     A
C1117  S1268   2.005   .     S
C1117  C1123   1.545   .     A
C1118  C1134   1.504   .     A
C1118  S1269   1.923   .     S
C1118  C1129   1.569   .     A
C1119  S1270   1.980   .     S
C1119  C1133   1.499   .     A
C1119  C1130   1.591   .     A
C1120  S1271   1.872   .     S
C1120  C1126   1.553   .     A
C1120  C1133   1.492   .     A
C1121  C1134   1.504   .     A
C1121  S1272   1.941   .     S
C1121  C1128   1.556   .     A
C1122  C1136   1.596   .     A
C1122  S1273   2.011   .     S
C1123  S1274   1.790   .     S
C1123  C1135   1.493   .     A
C1124  S1275   1.960   .     S
C1124  C1135   1.595   .     A
C1125  C1136   1.504   .     A
C1125  S1277   1.796   .     S
C1126  C1139   1.527   .     A
C1126  S1278   1.953   .     S
C1127  C1132   1.582   .     S
C1127  O1254   1.414   .     A
C1127  O1221   1.406   .     A
C1128  C1137   1.508   .     A
C1128  S1279   1.787   .     S
C1129  S1280   1.944   .     S
C1129  C1137   1.533   .     A
C1130  S1281   1.817   .     S
C1130  C1139   1.530   .     A
C1131  C1138   1.584   .     S
C1135  C1143   1.725   .     S
C1136  C1142   1.719   .     S
C1137  C1141   1.716   .     S
C1138  O1243   1.411   .     A
C1138  O1232   1.409   .     A
C1139  C1140   1.722   .     S
C1140  O1180   1.448   .     A
C1140  O1264   1.437   .     A
C1141  O1178   1.439   .     A
C1141  O1179   1.446   .     A
C1142  O1181   1.398   .     A
C1142  O1184   1.478   .     A
C1143  O1182   1.480   .     A
C1143  O1183   1.400   .     A
C1144  N1358   1.425   .     A
C1144  S1265   1.932   .     S
Cu1145 O1232   2.187   .     S
Cu1145 N1173   2.229   .     S
Cu1145 O1438   2.188   1_455 S
Cu1146 O1243   2.188   .     S
Cu1146 N1174   2.229   .     S
Cu1146 O1405   2.187   1_455 S
Cu1147 N1175   2.229   .     S
Cu1147 O1182   2.187   .     S
Cu1148 N1176   2.229   .     S
Cu1148 O1183   2.188   .     S
H1149  O1187   1.007   .     S
H1150  O1217   0.996   .     S
H1151  O1220   1.012   .     S
H1152  O1224   0.982   .     S
H1153  O1227   1.015   .     S
H1154  O1230   0.905   .     S
H1155  O1234   1.012   .     S
H1156  O1237   0.949   .     S
H1157  O1240   1.019   .     S
H1158  O1244   0.987   .     S
H1159  O1247   1.014   .     S
H1160  O1191   0.987   .     S
H1161  O1250   0.988   .     S
H1162  O1253   1.015   .     S
H1163  O1257   0.976   .     S
H1164  O1260   1.015   .     S
H1165  O1263   1.061   .     S
H1166  O1194   1.017   .     S
H1167  O1197   0.988   .     S
H1168  O1201   0.969   .     S
H1169  O1204   1.028   .     S
H1170  O1207   0.980   .     S
H1171  O1211   0.867   .     S
H1172  O1214   1.013   .     S
N1173  C1290   1.434   1_455 S
N1174  C1328   1.425   1_455 A
O1181  Cu780   2.187   1_565 S
O1184  Cu779   2.188   1_565 S
O1185  S1265   1.520   .     D
O1186  S1449   1.495   1_455 S
O1187  S1449   1.668   1_455 S
O1189  S1460   1.497   .     S
O1190  S1276   1.475   .     D
O1191  S1276   1.604   .     S
O1192  S1282   1.521   .     D
O1193  S1466   1.469   .     S
O1194  S1466   1.654   .     S
O1195  S1467   1.500   1_455 S
O1196  S1283   1.488   .     D
O1197  S1283   1.596   .     S
O1198  S1284   1.496   .     D
O1200  S1284   1.480   .     D
O1201  S1284   1.530   .     S
O1202  S1285   1.458   .     D
O1203  S1285   1.463   .     D
O1204  S1285   1.777   .     S
O1205  S1286   1.488   .     D
O1206  S1286   1.465   .     D
O1207  S1286   1.568   .     S
O1208  S1287   1.468   .     D
O1209  S1287   1.467   .     D
O1211  S1287   1.765   .     S
O1212  S1288   1.463   .     D
O1213  S1288   1.421   .     D
O1214  S1288   1.665   .     S
O1215  S1266   1.519   .     D
O1216  S1266   1.473   .     D
O1217  S1266   1.730   .     S
O1218  S1267   1.484   .     D
O1219  S1267   1.465   .     D
O1220  S1267   1.670   .     S
O1221  Cu1330  2.187   .     S
O1222  S1268   1.512   .     D
O1223  S1268   1.476   .     D
O1224  S1268   1.662   .     S
O1225  S1269   1.478   .     D
O1226  S1269   1.369   .     D
O1227  S1269   1.701   .     S
O1228  S1270   1.495   .     D
O1228  O1230   1.637   .     S
O1229  S1270   1.469   .     D
O1230  S1270   1.636   .     S
O1231  S1271   1.478   .     D
O1233  S1271   1.381   .     D
O1234  S1271   1.701   .     S
O1235  S1272   1.504   .     D
O1236  S1272   1.473   .     D
O1237  S1272   1.681   .     S
O1238  S1273   1.423   .     D
O1239  S1273   1.522   .     D
O1240  S1273   1.642   .     S
O1241  S1274   1.450   .     D
O1242  S1274   1.511   .     D
O1244  S1274   1.656   .     S
O1245  S1275   1.418   .     D
O1246  S1275   1.521   .     D
O1247  S1275   1.631   .     S
O1248  S1277   1.453   .     D
O1249  S1277   1.511   .     D
O1250  S1277   1.655   .     S
O1251  S1278   1.421   .     D
O1252  S1278   1.490   .     D
O1253  S1278   1.659   .     S
O1254  Cu1329  2.188   .     S
O1255  S1279   1.438   .     D
O1256  S1279   1.510   .     D
O1257  S1279   1.667   .     S
O1258  S1280   1.422   .     D
O1259  S1280   1.480   .     D
O1260  S1280   1.658   .     S
O1261  S1281   1.475   .     D
O1262  S1281   1.514   .     D
O1263  S1281   1.668   .     S
S1265  O1370   1.495   .     S
S1265  O1371   1.668   .     S
S1276  C1290   1.774   1_455 S
S1276  O1373   1.497   1_455 S
S1282  O1377   1.469   1_455 S
S1282  O1378   1.654   1_455 S
S1283  O1379   1.500   .     S
S1283  C1292   1.790   .     S
C1289  O1394   1.423   .     A
C1289  O1361   1.431   .     A
C1289  C1318   1.660   .     S
C1290  C1843   1.502   1_655 S
C1290  N1173   1.434   1_655 S
C1290  S1276   1.774   1_655 S
C1291  S1466   1.915   .     S
C1291  N1358   1.387   .     S
C1292  N1357   1.417   .     A
C1292  C1880   1.498   .     S
C1293  S1468   1.784   .     S
C1293  N992    1.429   1_565 S
C1294  S1469   1.844   .     S
C1294  C2031   1.492   .     S
C1294  N1359   1.378   .     S
C1295  N1360   1.426   .     A
C1295  S1470   1.771   .     S
C1296  S1471   1.839   .     S
C1296  N991    1.391   1_565 A
C1296  C2029   1.488   .     S
C1297  C1308   1.560   .     A
C1297  S1472   1.955   .     S
C1297  C1316   1.505   .     A
C1298  C1315   1.483   .     A
C1298  C1309   1.551   .     A
C1298  S1450   2.029   .     S
C1299  C1306   1.578   .     A
C1299  C1315   1.506   .     A
C1299  S1451   1.957   .     S
C1300  C1317   1.652   .     S
C1300  O1372   1.402   .     A
C1300  O1383   1.446   .     A
C1301  C1316   1.482   .     A
C1301  S1452   2.005   .     S
C1301  C1307   1.545   .     A
C1302  C1318   1.504   .     A
C1302  S1453   1.923   .     S
C1302  C1313   1.569   .     A
C1303  S1454   1.980   .     S
C1303  C1317   1.499   .     A
C1303  C1314   1.591   .     A
C1304  S1455   1.872   .     S
C1304  C1310   1.553   .     A
C1304  C1317   1.492   .     A
C1305  C1318   1.504   .     A
C1305  S1456   1.941   .     S
C1305  C1312   1.556   .     A
C1306  C1320   1.596   .     A
C1306  S1457   2.011   .     S
C1307  S1458   1.790   .     S
C1307  C1319   1.493   .     A
C1308  S1459   1.960   .     S
C1308  C1319   1.595   .     A
C1309  C1320   1.504   .     A
C1309  S1461   1.796   .     S
C1310  C1323   1.527   .     A
C1310  S1462   1.953   .     S
C1311  C1316   1.582   .     S
C1311  O1438   1.414   .     A
C1311  O1405   1.406   .     A
C1312  C1321   1.508   .     A
C1312  S1463   1.787   .     S
C1313  S1464   1.944   .     S
C1313  C1321   1.533   .     A
C1314  S1465   1.817   .     S
C1314  C1323   1.530   .     A
C1315  C1322   1.584   .     S
C1319  C1327   1.725   .     S
C1320  C1326   1.719   .     S
C1321  C1325   1.716   .     S
C1322  O1427   1.411   .     A
C1322  O1416   1.409   .     A
C1323  C1324   1.722   .     S
C1324  O1364   1.448   .     A
C1324  O1448   1.437   .     A
C1325  O1362   1.439   .     A
C1325  O1363   1.446   .     A
C1326  O1365   1.398   .     A
C1326  O1368   1.478   .     A
C1327  O1366   1.480   .     A
C1327  O1367   1.400   .     A
C1328  N1174   1.425   1_655 A
C1328  S1449   1.932   .     S
C1328  C372    1.498   1_655 S
Cu1329 O1416   2.187   .     S
Cu1329 N1357   2.229   .     S
Cu1330 O1427   2.188   .     S
Cu1330 N1358   2.229   .     S
Cu1331 N1359   2.229   .     S
Cu1331 O1366   2.187   .     S
Cu1332 N1360   2.229   .     S
Cu1332 O1367   2.188   .     S
H1333  O1371   1.007   .     S
H1334  O1401   0.996   .     S
H1335  O1404   1.012   .     S
H1336  O1408   0.982   .     S
H1337  O1411   1.015   .     S
H1338  O1414   0.905   .     S
H1339  O1418   1.012   .     S
H1340  O1421   0.949   .     S
H1341  O1424   1.019   .     S
H1342  O1428   0.987   .     S
H1343  O1431   1.014   .     S
H1344  O1375   0.987   .     S
H1345  O1434   0.988   .     S
H1346  O1437   1.015   .     S
H1347  O1441   0.976   .     S
H1348  O1444   1.015   .     S
H1349  O1447   1.061   .     S
H1350  O1378   1.017   .     S
H1351  O1381   0.988   .     S
H1352  O1385   0.969   .     S
H1353  O1388   1.028   .     S
H1354  O1391   0.980   .     S
H1355  O1395   0.867   .     S
H1356  O1398   1.013   .     S
O1365  Cu964   2.187   1_565 S
O1368  Cu963   2.188   1_565 S
O1369  S1449   1.520   .     D
O1373  S1276   1.497   1_655 S
O1374  S1460   1.475   .     D
O1375  S1460   1.604   .     S
O1376  S1466   1.521   .     D
O1377  S1282   1.469   1_655 S
O1378  S1282   1.654   1_655 S
O1380  S1467   1.488   .     D
O1381  S1467   1.596   .     S
O1382  S1468   1.496   .     D
O1384  S1468   1.480   .     D
O1385  S1468   1.530   .     S
O1386  S1469   1.458   .     D
O1387  S1469   1.463   .     D
O1388  S1469   1.777   .     S
O1389  S1470   1.488   .     D
O1390  S1470   1.465   .     D
O1391  S1470   1.568   .     S
O1392  S1471   1.468   .     D
O1393  S1471   1.467   .     D
O1395  S1471   1.765   .     S
O1396  S1472   1.463   .     D
O1397  S1472   1.421   .     D
O1398  S1472   1.665   .     S
O1399  S1450   1.519   .     D
O1400  S1450   1.473   .     D
O1401  S1450   1.730   .     S
O1402  S1451   1.484   .     D
O1403  S1451   1.465   .     D
O1404  S1451   1.670   .     S
O1405  Cu1146  2.187   1_655 S
O1406  S1452   1.512   .     D
O1407  S1452   1.476   .     D
O1408  S1452   1.662   .     S
O1409  S1453   1.478   .     D
O1410  S1453   1.369   .     D
O1411  S1453   1.701   .     S
O1412  S1454   1.495   .     D
O1412  O1414   1.637   .     S
O1413  S1454   1.469   .     D
O1414  S1454   1.636   .     S
O1415  S1455   1.478   .     D
O1417  S1455   1.381   .     D
O1418  S1455   1.701   .     S
O1419  S1456   1.504   .     D
O1420  S1456   1.473   .     D
O1421  S1456   1.681   .     S
O1422  S1457   1.423   .     D
O1423  S1457   1.522   .     D
O1424  S1457   1.642   .     S
O1425  S1458   1.450   .     D
O1426  S1458   1.511   .     D
O1428  S1458   1.656   .     S
O1429  S1459   1.418   .     D
O1430  S1459   1.521   .     D
O1431  S1459   1.631   .     S
O1432  S1461   1.453   .     D
O1433  S1461   1.511   .     D
O1434  S1461   1.655   .     S
O1435  S1462   1.421   .     D
O1436  S1462   1.490   .     D
O1437  S1462   1.659   .     S
O1438  Cu1145  2.188   1_655 S
O1439  S1463   1.438   .     D
O1440  S1463   1.510   .     D
O1441  S1463   1.667   .     S
O1442  S1464   1.422   .     D
O1443  S1464   1.480   .     D
O1444  S1464   1.658   .     S
O1445  S1465   1.475   .     D
O1446  S1465   1.514   .     D
O1447  S1465   1.668   .     S
S1449  O1186   1.495   1_655 S
S1449  O1187   1.668   1_655 S
S1467  O1195   1.500   1_655 S
S1467  C1108   1.790   1_655 S
C1473  O1578   1.423   .     A
C1473  O1545   1.431   .     A
C1473  C1502   1.660   .     S
C1474  C187    1.502   1_556 S
C1474  N1725   1.434   .     S
C1474  S1828   1.774   .     S
C1475  S1650   1.915   .     S
C1475  C922    1.502   1_455 S
C1475  N1542   1.387   .     S
C1476  N1541   1.417   .     A
C1476  C224    1.498   1_456 S
C1476  S1835   1.790   1_455 S
C1477  S1652   1.784   .     S
C1477  N1912   1.429   .     S
C1478  S1653   1.844   .     S
C1478  C7      1.492   1_556 S
C1478  N1543   1.378   .     S
C1479  N1544   1.426   .     A
C1479  S1654   1.771   .     S
C1480  S1655   1.839   .     S
C1480  N1911   1.391   .     A
C1480  C5      1.488   1_556 S
C1481  C1492   1.560   .     A
C1481  S1656   1.955   .     S
C1481  C1500   1.505   .     A
C1482  C1499   1.483   .     A
C1482  C1493   1.551   .     A
C1482  S1634   2.029   .     S
C1483  C1490   1.578   .     A
C1483  C1499   1.506   .     A
C1483  S1635   1.957   .     S
C1484  C1501   1.652   .     S
C1484  O1556   1.402   .     A
C1484  O1567   1.446   .     A
C1485  C1500   1.482   .     A
C1485  S1636   2.005   .     S
C1485  C1491   1.545   .     A
C1486  C1502   1.504   .     A
C1486  S1637   1.923   .     S
C1486  C1497   1.569   .     A
C1487  S1638   1.980   .     S
C1487  C1501   1.499   .     A
C1487  C1498   1.591   .     A
C1488  S1639   1.872   .     S
C1488  C1494   1.553   .     A
C1488  C1501   1.492   .     A
C1489  C1502   1.504   .     A
C1489  S1640   1.941   .     S
C1489  C1496   1.556   .     A
C1490  C1504   1.596   .     A
C1490  S1641   2.011   .     S
C1491  S1642   1.790   .     S
C1491  C1503   1.493   .     A
C1492  S1643   1.960   .     S
C1492  C1503   1.595   .     A
C1493  C1504   1.504   .     A
C1493  S1645   1.796   .     S
C1494  C1507   1.527   .     A
C1494  S1646   1.953   .     S
C1495  C1500   1.582   .     S
C1495  O1622   1.414   .     A
C1495  O1589   1.406   .     A
C1496  C1505   1.508   .     A
C1496  S1647   1.787   .     S
C1497  S1648   1.944   .     S
C1497  C1505   1.533   .     A
C1498  S1649   1.817   .     S
C1498  C1507   1.530   .     A
C1499  C1506   1.584   .     S
C1503  C1511   1.725   .     S
C1504  C1510   1.719   .     S
C1505  C1509   1.716   .     S
C1506  O1611   1.411   .     A
C1506  O1600   1.409   .     A
C1507  C1508   1.722   .     S
C1508  O1548   1.448   .     A
C1508  O1632   1.437   .     A
C1509  O1546   1.439   .     A
C1509  O1547   1.446   .     A
C1510  O1549   1.398   .     A
C1510  O1552   1.478   .     A
C1511  O1550   1.480   .     A
C1511  O1551   1.400   .     A
C1512  N1726   1.425   .     A
C1512  S1633   1.932   .     S
Cu1513 O1600   2.187   .     S
Cu1513 N1541   2.229   .     S
Cu1513 O1806   2.188   1_455 S
Cu1514 O1611   2.188   .     S
Cu1514 N1542   2.229   .     S
Cu1514 O1773   2.187   1_455 S
Cu1515 O1920   2.188   1_545 S
Cu1515 N1543   2.229   .     S
Cu1515 O1550   2.187   .     S
Cu1516 O1917   2.187   1_545 S
Cu1516 N1544   2.229   .     S
Cu1516 O1551   2.188   .     S
H1517  O1555   1.007   .     S
H1518  O1585   0.996   .     S
H1519  O1588   1.012   .     S
H1520  O1592   0.982   .     S
H1521  O1595   1.015   .     S
H1522  O1598   0.905   .     S
H1523  O1602   1.012   .     S
H1524  O1605   0.949   .     S
H1525  O1608   1.019   .     S
H1526  O1612   0.987   .     S
H1527  O1615   1.014   .     S
H1528  O1559   0.987   .     S
H1529  O1618   0.988   .     S
H1530  O1621   1.015   .     S
H1531  O1625   0.976   .     S
H1532  O1628   1.015   .     S
H1533  O1631   1.061   .     S
H1534  O1562   1.017   .     S
H1535  O1565   0.988   .     S
H1536  O1569   0.969   .     S
H1537  O1572   1.028   .     S
H1538  O1575   0.980   .     S
H1539  O1579   0.867   .     S
H1540  O1582   1.013   .     S
N1541  C1658   1.434   1_455 S
N1542  C1696   1.425   1_455 A
N1543  C1848   1.391   1_545 A
N1544  C1845   1.429   1_545 S
O1549  Cu1884  2.187   .     S
O1552  Cu1883  2.188   .     S
O1553  S1633   1.520   .     D
O1554  S1817   1.495   1_455 S
O1555  S1817   1.668   1_455 S
O1557  S1828   1.497   .     S
O1558  S1644   1.475   .     D
O1559  S1644   1.604   .     S
O1560  S1650   1.521   .     D
O1561  S1834   1.469   .     S
O1562  S1834   1.654   .     S
O1563  S1835   1.500   1_455 S
O1564  S1651   1.488   .     D
O1565  S1651   1.596   .     S
O1566  S1652   1.496   .     D
O1568  S1652   1.480   .     D
O1569  S1652   1.530   .     S
O1570  S1653   1.458   .     D
O1571  S1653   1.463   .     D
O1572  S1653   1.777   .     S
O1573  S1654   1.488   .     D
O1574  S1654   1.465   .     D
O1575  S1654   1.568   .     S
O1576  S1655   1.468   .     D
O1577  S1655   1.467   .     D
O1579  S1655   1.765   .     S
O1580  S1656   1.463   .     D
O1581  S1656   1.421   .     D
O1582  S1656   1.665   .     S
O1583  S1634   1.519   .     D
O1584  S1634   1.473   .     D
O1585  S1634   1.730   .     S
O1586  S1635   1.484   .     D
O1587  S1635   1.465   .     D
O1588  S1635   1.670   .     S
O1589  Cu1698  2.187   .     S
O1590  S1636   1.512   .     D
O1591  S1636   1.476   .     D
O1592  S1636   1.662   .     S
O1593  S1637   1.478   .     D
O1594  S1637   1.369   .     D
O1595  S1637   1.701   .     S
O1596  S1638   1.495   .     D
O1596  O1598   1.637   .     S
O1597  S1638   1.469   .     D
O1598  S1638   1.636   .     S
O1599  S1639   1.478   .     D
O1601  S1639   1.381   .     D
O1602  S1639   1.701   .     S
O1603  S1640   1.504   .     D
O1604  S1640   1.473   .     D
O1605  S1640   1.681   .     S
O1606  S1641   1.423   .     D
O1607  S1641   1.522   .     D
O1608  S1641   1.642   .     S
O1609  S1642   1.450   .     D
O1610  S1642   1.511   .     D
O1612  S1642   1.656   .     S
O1613  S1643   1.418   .     D
O1614  S1643   1.521   .     D
O1615  S1643   1.631   .     S
O1616  S1645   1.453   .     D
O1617  S1645   1.511   .     D
O1618  S1645   1.655   .     S
O1619  S1646   1.421   .     D
O1620  S1646   1.490   .     D
O1621  S1646   1.659   .     S
O1622  Cu1697  2.188   .     S
O1623  S1647   1.438   .     D
O1624  S1647   1.510   .     D
O1625  S1647   1.667   .     S
O1626  S1648   1.422   .     D
O1627  S1648   1.480   .     D
O1628  S1648   1.658   .     S
O1629  S1649   1.475   .     D
O1630  S1649   1.514   .     D
O1631  S1649   1.668   .     S
S1633  O1738   1.495   .     S
S1633  O1739   1.668   .     S
S1644  C1658   1.774   1_455 S
S1644  O1741   1.497   1_455 S
S1650  O1745   1.469   1_455 S
S1650  O1746   1.654   1_455 S
S1651  O1747   1.500   .     S
S1651  C1660   1.790   .     S
C1657  O1762   1.423   .     A
C1657  O1729   1.431   .     A
C1657  C1686   1.660   .     S
C1658  C3      1.502   1_656 S
C1658  N1541   1.434   1_655 S
C1658  S1644   1.774   1_655 S
C1659  S1834   1.915   .     S
C1659  N1726   1.387   .     S
C1660  N1725   1.417   .     A
C1660  C40     1.498   1_556 S
C1661  S1836   1.784   .     S
C1661  N2096   1.429   .     S
C1662  S1837   1.844   .     S
C1662  C191    1.492   1_556 S
C1662  N1727   1.378   .     S
C1663  N1728   1.426   .     A
C1663  S1838   1.771   .     S
C1664  S1839   1.839   .     S
C1664  N2095   1.391   .     A
C1664  C189    1.488   1_556 S
C1665  C1676   1.560   .     A
C1665  S1840   1.955   .     S
C1665  C1684   1.505   .     A
C1666  C1683   1.483   .     A
C1666  C1677   1.551   .     A
C1666  S1818   2.029   .     S
C1667  C1674   1.578   .     A
C1667  C1683   1.506   .     A
C1667  S1819   1.957   .     S
C1668  C1685   1.652   .     S
C1668  O1740   1.402   .     A
C1668  O1751   1.446   .     A
C1669  C1684   1.482   .     A
C1669  S1820   2.005   .     S
C1669  C1675   1.545   .     A
C1670  C1686   1.504   .     A
C1670  S1821   1.923   .     S
C1670  C1681   1.569   .     A
C1671  S1822   1.980   .     S
C1671  C1685   1.499   .     A
C1671  C1682   1.591   .     A
C1672  S1823   1.872   .     S
C1672  C1678   1.553   .     A
C1672  C1685   1.492   .     A
C1673  C1686   1.504   .     A
C1673  S1824   1.941   .     S
C1673  C1680   1.556   .     A
C1674  C1688   1.596   .     A
C1674  S1825   2.011   .     S
C1675  S1826   1.790   .     S
C1675  C1687   1.493   .     A
C1676  S1827   1.960   .     S
C1676  C1687   1.595   .     A
C1677  C1688   1.504   .     A
C1677  S1829   1.796   .     S
C1678  C1691   1.527   .     A
C1678  S1830   1.953   .     S
C1679  C1684   1.582   .     S
C1679  O1806   1.414   .     A
C1679  O1773   1.406   .     A
C1680  C1689   1.508   .     A
C1680  S1831   1.787   .     S
C1681  S1832   1.944   .     S
C1681  C1689   1.533   .     A
C1682  S1833   1.817   .     S
C1682  C1691   1.530   .     A
C1683  C1690   1.584   .     S
C1687  C1695   1.725   .     S
C1688  C1694   1.719   .     S
C1689  C1693   1.716   .     S
C1690  O1795   1.411   .     A
C1690  O1784   1.409   .     A
C1691  C1692   1.722   .     S
C1692  O1732   1.448   .     A
C1692  O1816   1.437   .     A
C1693  O1730   1.439   .     A
C1693  O1731   1.446   .     A
C1694  O1733   1.398   .     A
C1694  O1736   1.478   .     A
C1695  O1734   1.480   .     A
C1695  O1735   1.400   .     A
C1696  N1542   1.425   1_655 A
C1696  S1817   1.932   .     S
C1696  C740    1.498   1_655 S
Cu1697 O1784   2.187   .     S
Cu1697 N1725   2.229   .     S
Cu1698 O1795   2.188   .     S
Cu1698 N1726   2.229   .     S
Cu1699 O2104   2.188   1_545 S
Cu1699 N1727   2.229   .     S
Cu1699 O1734   2.187   .     S
Cu1700 O2101   2.187   1_545 S
Cu1700 N1728   2.229   .     S
Cu1700 O1735   2.188   .     S
H1701  O1739   1.007   .     S
H1702  O1769   0.996   .     S
H1703  O1772   1.012   .     S
H1704  O1776   0.982   .     S
H1705  O1779   1.015   .     S
H1706  O1782   0.905   .     S
H1707  O1786   1.012   .     S
H1708  O1789   0.949   .     S
H1709  O1792   1.019   .     S
H1710  O1796   0.987   .     S
H1711  O1799   1.014   .     S
H1712  O1743   0.987   .     S
H1713  O1802   0.988   .     S
H1714  O1805   1.015   .     S
H1715  O1809   0.976   .     S
H1716  O1812   1.015   .     S
H1717  O1815   1.061   .     S
H1718  O1746   1.017   .     S
H1719  O1749   0.988   .     S
H1720  O1753   0.969   .     S
H1721  O1756   1.028   .     S
H1722  O1759   0.980   .     S
H1723  O1763   0.867   .     S
H1724  O1766   1.013   .     S
N1727  C2032   1.391   1_545 A
N1728  C2029   1.429   1_545 S
O1733  Cu2068  2.187   .     S
O1736  Cu2067  2.188   .     S
O1737  S1817   1.520   .     D
O1741  S1644   1.497   1_655 S
O1742  S1828   1.475   .     D
O1743  S1828   1.604   .     S
O1744  S1834   1.521   .     D
O1745  S1650   1.469   1_655 S
O1746  S1650   1.654   1_655 S
O1748  S1835   1.488   .     D
O1749  S1835   1.596   .     S
O1750  S1836   1.496   .     D
O1752  S1836   1.480   .     D
O1753  S1836   1.530   .     S
O1754  S1837   1.458   .     D
O1755  S1837   1.463   .     D
O1756  S1837   1.777   .     S
O1757  S1838   1.488   .     D
O1758  S1838   1.465   .     D
O1759  S1838   1.568   .     S
O1760  S1839   1.468   .     D
O1761  S1839   1.467   .     D
O1763  S1839   1.765   .     S
O1764  S1840   1.463   .     D
O1765  S1840   1.421   .     D
O1766  S1840   1.665   .     S
O1767  S1818   1.519   .     D
O1768  S1818   1.473   .     D
O1769  S1818   1.730   .     S
O1770  S1819   1.484   .     D
O1771  S1819   1.465   .     D
O1772  S1819   1.670   .     S
O1773  Cu1514  2.187   1_655 S
O1774  S1820   1.512   .     D
O1775  S1820   1.476   .     D
O1776  S1820   1.662   .     S
O1777  S1821   1.478   .     D
O1778  S1821   1.369   .     D
O1779  S1821   1.701   .     S
O1780  S1822   1.495   .     D
O1780  O1782   1.637   .     S
O1781  S1822   1.469   .     D
O1782  S1822   1.636   .     S
O1783  S1823   1.478   .     D
O1785  S1823   1.381   .     D
O1786  S1823   1.701   .     S
O1787  S1824   1.504   .     D
O1788  S1824   1.473   .     D
O1789  S1824   1.681   .     S
O1790  S1825   1.423   .     D
O1791  S1825   1.522   .     D
O1792  S1825   1.642   .     S
O1793  S1826   1.450   .     D
O1794  S1826   1.511   .     D
O1796  S1826   1.656   .     S
O1797  S1827   1.418   .     D
O1798  S1827   1.521   .     D
O1799  S1827   1.631   .     S
O1800  S1829   1.453   .     D
O1801  S1829   1.511   .     D
O1802  S1829   1.655   .     S
O1803  S1830   1.421   .     D
O1804  S1830   1.490   .     D
O1805  S1830   1.659   .     S
O1806  Cu1513  2.188   1_655 S
O1807  S1831   1.438   .     D
O1808  S1831   1.510   .     D
O1809  S1831   1.667   .     S
O1810  S1832   1.422   .     D
O1811  S1832   1.480   .     D
O1812  S1832   1.658   .     S
O1813  S1833   1.475   .     D
O1814  S1833   1.514   .     D
O1815  S1833   1.668   .     S
S1817  O1554   1.495   1_655 S
S1817  O1555   1.668   1_655 S
S1835  O1563   1.500   1_655 S
S1835  C1476   1.790   1_655 S
C1841  O1946   1.423   .     A
C1841  O1913   1.431   .     A
C1841  C1870   1.660   .     S
C1842  C555    1.502   1_556 S
C1842  N2093   1.434   .     S
C1842  S2196   1.774   .     S
C1843  S2018   1.915   .     S
C1843  C1290   1.502   1_455 S
C1843  N1910   1.387   .     S
C1844  N1909   1.417   .     A
C1844  C592    1.498   1_456 S
C1844  S2203   1.790   1_455 S
C1845  S2020   1.784   .     S
C1845  N1544   1.429   1_565 S
C1846  S2021   1.844   .     S
C1846  C375    1.492   1_556 S
C1846  N1911   1.378   .     S
C1847  N1912   1.426   .     A
C1847  S2022   1.771   .     S
C1848  S2023   1.839   .     S
C1848  N1543   1.391   1_565 A
C1848  C373    1.488   1_556 S
C1849  C1860   1.560   .     A
C1849  S2024   1.955   .     S
C1849  C1868   1.505   .     A
C1850  C1867   1.483   .     A
C1850  C1861   1.551   .     A
C1850  S2002   2.029   .     S
C1851  C1858   1.578   .     A
C1851  C1867   1.506   .     A
C1851  S2003   1.957   .     S
C1852  C1869   1.652   .     S
C1852  O1924   1.402   .     A
C1852  O1935   1.446   .     A
C1853  C1868   1.482   .     A
C1853  S2004   2.005   .     S
C1853  C1859   1.545   .     A
C1854  C1870   1.504   .     A
C1854  S2005   1.923   .     S
C1854  C1865   1.569   .     A
C1855  S2006   1.980   .     S
C1855  C1869   1.499   .     A
C1855  C1866   1.591   .     A
C1856  S2007   1.872   .     S
C1856  C1862   1.553   .     A
C1856  C1869   1.492   .     A
C1857  C1870   1.504   .     A
C1857  S2008   1.941   .     S
C1857  C1864   1.556   .     A
C1858  C1872   1.596   .     A
C1858  S2009   2.011   .     S
C1859  S2010   1.790   .     S
C1859  C1871   1.493   .     A
C1860  S2011   1.960   .     S
C1860  C1871   1.595   .     A
C1861  C1872   1.504   .     A
C1861  S2013   1.796   .     S
C1862  C1875   1.527   .     A
C1862  S2014   1.953   .     S
C1863  C1868   1.582   .     S
C1863  O1990   1.414   .     A
C1863  O1957   1.406   .     A
C1864  C1873   1.508   .     A
C1864  S2015   1.787   .     S
C1865  S2016   1.944   .     S
C1865  C1873   1.533   .     A
C1866  S2017   1.817   .     S
C1866  C1875   1.530   .     A
C1867  C1874   1.584   .     S
C1871  C1879   1.725   .     S
C1872  C1878   1.719   .     S
C1873  C1877   1.716   .     S
C1874  O1979   1.411   .     A
C1874  O1968   1.409   .     A
C1875  C1876   1.722   .     S
C1876  O1916   1.448   .     A
C1876  O2000   1.437   .     A
C1877  O1914   1.439   .     A
C1877  O1915   1.446   .     A
C1878  O1917   1.398   .     A
C1878  O1920   1.478   .     A
C1879  O1918   1.480   .     A
C1879  O1919   1.400   .     A
C1880  N2094   1.425   .     A
C1880  S2001   1.932   .     S
Cu1881 O1968   2.187   .     S
Cu1881 N1909   2.229   .     S
Cu1881 O2174   2.188   1_455 S
Cu1882 O1979   2.188   .     S
Cu1882 N1910   2.229   .     S
Cu1882 O2141   2.187   1_455 S
Cu1883 N1911   2.229   .     S
Cu1883 O1918   2.187   .     S
Cu1884 N1912   2.229   .     S
Cu1884 O1919   2.188   .     S
H1885  O1923   1.007   .     S
H1886  O1953   0.996   .     S
H1887  O1956   1.012   .     S
H1888  O1960   0.982   .     S
H1889  O1963   1.015   .     S
H1890  O1966   0.905   .     S
H1891  O1970   1.012   .     S
H1892  O1973   0.949   .     S
H1893  O1976   1.019   .     S
H1894  O1980   0.987   .     S
H1895  O1983   1.014   .     S
H1896  O1927   0.987   .     S
H1897  O1986   0.988   .     S
H1898  O1989   1.015   .     S
H1899  O1993   0.976   .     S
H1900  O1996   1.015   .     S
H1901  O1999   1.061   .     S
H1902  O1930   1.017   .     S
H1903  O1933   0.988   .     S
H1904  O1937   0.969   .     S
H1905  O1940   1.028   .     S
H1906  O1943   0.980   .     S
H1907  O1947   0.867   .     S
H1908  O1950   1.013   .     S
N1909  C2026   1.434   1_455 S
N1910  C2064   1.425   1_455 A
O1917  Cu1516  2.187   1_565 S
O1920  Cu1515  2.188   1_565 S
O1921  S2001   1.520   .     D
O1922  S2185   1.495   1_455 S
O1923  S2185   1.668   1_455 S
O1925  S2196   1.497   .     S
O1926  S2012   1.475   .     D
O1927  S2012   1.604   .     S
O1928  S2018   1.521   .     D
O1929  S2202   1.469   .     S
O1930  S2202   1.654   .     S
O1931  S2203   1.500   1_455 S
O1932  S2019   1.488   .     D
O1933  S2019   1.596   .     S
O1934  S2020   1.496   .     D
O1936  S2020   1.480   .     D
O1937  S2020   1.530   .     S
O1938  S2021   1.458   .     D
O1939  S2021   1.463   .     D
O1940  S2021   1.777   .     S
O1941  S2022   1.488   .     D
O1942  S2022   1.465   .     D
O1943  S2022   1.568   .     S
O1944  S2023   1.468   .     D
O1945  S2023   1.467   .     D
O1947  S2023   1.765   .     S
O1948  S2024   1.463   .     D
O1949  S2024   1.421   .     D
O1950  S2024   1.665   .     S
O1951  S2002   1.519   .     D
O1952  S2002   1.473   .     D
O1953  S2002   1.730   .     S
O1954  S2003   1.484   .     D
O1955  S2003   1.465   .     D
O1956  S2003   1.670   .     S
O1957  Cu2066  2.187   .     S
O1958  S2004   1.512   .     D
O1959  S2004   1.476   .     D
O1960  S2004   1.662   .     S
O1961  S2005   1.478   .     D
O1962  S2005   1.369   .     D
O1963  S2005   1.701   .     S
O1964  S2006   1.495   .     D
O1964  O1966   1.637   .     S
O1965  S2006   1.469   .     D
O1966  S2006   1.636   .     S
O1967  S2007   1.478   .     D
O1969  S2007   1.381   .     D
O1970  S2007   1.701   .     S
O1971  S2008   1.504   .     D
O1972  S2008   1.473   .     D
O1973  S2008   1.681   .     S
O1974  S2009   1.423   .     D
O1975  S2009   1.522   .     D
O1976  S2009   1.642   .     S
O1977  S2010   1.450   .     D
O1978  S2010   1.511   .     D
O1980  S2010   1.656   .     S
O1981  S2011   1.418   .     D
O1982  S2011   1.521   .     D
O1983  S2011   1.631   .     S
O1984  S2013   1.453   .     D
O1985  S2013   1.511   .     D
O1986  S2013   1.655   .     S
O1987  S2014   1.421   .     D
O1988  S2014   1.490   .     D
O1989  S2014   1.659   .     S
O1990  Cu2065  2.188   .     S
O1991  S2015   1.438   .     D
O1992  S2015   1.510   .     D
O1993  S2015   1.667   .     S
O1994  S2016   1.422   .     D
O1995  S2016   1.480   .     D
O1996  S2016   1.658   .     S
O1997  S2017   1.475   .     D
O1998  S2017   1.514   .     D
O1999  S2017   1.668   .     S
S2001  O2106   1.495   .     S
S2001  O2107   1.668   .     S
S2012  C2026   1.774   1_455 S
S2012  O2109   1.497   1_455 S
S2018  O2113   1.469   1_455 S
S2018  O2114   1.654   1_455 S
S2019  O2115   1.500   .     S
S2019  C2028   1.790   .     S
C2025  O2130   1.423   .     A
C2025  O2097   1.431   .     A
C2025  C2054   1.660   .     S
C2026  C371    1.502   1_656 S
C2026  N1909   1.434   1_655 S
C2026  S2012   1.774   1_655 S
C2027  S2202   1.915   .     S
C2027  N2094   1.387   .     S
C2028  N2093   1.417   .     A
C2028  C408    1.498   1_556 S
C2029  S2204   1.784   .     S
C2029  N1728   1.429   1_565 S
C2030  S2205   1.844   .     S
C2030  C559    1.492   1_556 S
C2030  N2095   1.378   .     S
C2031  N2096   1.426   .     A
C2031  S2206   1.771   .     S
C2032  S2207   1.839   .     S
C2032  N1727   1.391   1_565 A
C2032  C557    1.488   1_556 S
C2033  C2044   1.560   .     A
C2033  S2208   1.955   .     S
C2033  C2052   1.505   .     A
C2034  C2051   1.483   .     A
C2034  C2045   1.551   .     A
C2034  S2186   2.029   .     S
C2035  C2042   1.578   .     A
C2035  C2051   1.506   .     A
C2035  S2187   1.957   .     S
C2036  C2053   1.652   .     S
C2036  O2108   1.402   .     A
C2036  O2119   1.446   .     A
C2037  C2052   1.482   .     A
C2037  S2188   2.005   .     S
C2037  C2043   1.545   .     A
C2038  C2054   1.504   .     A
C2038  S2189   1.923   .     S
C2038  C2049   1.569   .     A
C2039  S2190   1.980   .     S
C2039  C2053   1.499   .     A
C2039  C2050   1.591   .     A
C2040  S2191   1.872   .     S
C2040  C2046   1.553   .     A
C2040  C2053   1.492   .     A
C2041  C2054   1.504   .     A
C2041  S2192   1.941   .     S
C2041  C2048   1.556   .     A
C2042  C2056   1.596   .     A
C2042  S2193   2.011   .     S
C2043  S2194   1.790   .     S
C2043  C2055   1.493   .     A
C2044  S2195   1.960   .     S
C2044  C2055   1.595   .     A
C2045  C2056   1.504   .     A
C2045  S2197   1.796   .     S
C2046  C2059   1.527   .     A
C2046  S2198   1.953   .     S
C2047  C2052   1.582   .     S
C2047  O2174   1.414   .     A
C2047  O2141   1.406   .     A
C2048  C2057   1.508   .     A
C2048  S2199   1.787   .     S
C2049  S2200   1.944   .     S
C2049  C2057   1.533   .     A
C2050  S2201   1.817   .     S
C2050  C2059   1.530   .     A
C2051  C2058   1.584   .     S
C2055  C2063   1.725   .     S
C2056  C2062   1.719   .     S
C2057  C2061   1.716   .     S
C2058  O2163   1.411   .     A
C2058  O2152   1.409   .     A
C2059  C2060   1.722   .     S
C2060  O2100   1.448   .     A
C2060  O2184   1.437   .     A
C2061  O2098   1.439   .     A
C2061  O2099   1.446   .     A
C2062  O2101   1.398   .     A
C2062  O2104   1.478   .     A
C2063  O2102   1.480   .     A
C2063  O2103   1.400   .     A
C2064  N1910   1.425   1_655 A
C2064  S2185   1.932   .     S
C2064  C1108   1.498   1_655 S
Cu2065 O2152   2.187   .     S
Cu2065 N2093   2.229   .     S
Cu2066 O2163   2.188   .     S
Cu2066 N2094   2.229   .     S
Cu2067 N2095   2.229   .     S
Cu2067 O2102   2.187   .     S
Cu2068 N2096   2.229   .     S
Cu2068 O2103   2.188   .     S
H2069  O2107   1.007   .     S
H2070  O2137   0.996   .     S
H2071  O2140   1.012   .     S
H2072  O2144   0.982   .     S
H2073  O2147   1.015   .     S
H2074  O2150   0.905   .     S
H2075  O2154   1.012   .     S
H2076  O2157   0.949   .     S
H2077  O2160   1.019   .     S
H2078  O2164   0.987   .     S
H2079  O2167   1.014   .     S
H2080  O2111   0.987   .     S
H2081  O2170   0.988   .     S
H2082  O2173   1.015   .     S
H2083  O2177   0.976   .     S
H2084  O2180   1.015   .     S
H2085  O2183   1.061   .     S
H2086  O2114   1.017   .     S
H2087  O2117   0.988   .     S
H2088  O2121   0.969   .     S
H2089  O2124   1.028   .     S
H2090  O2127   0.980   .     S
H2091  O2131   0.867   .     S
H2092  O2134   1.013   .     S
O2101  Cu1700  2.187   1_565 S
O2104  Cu1699  2.188   1_565 S
O2105  S2185   1.520   .     D
O2109  S2012   1.497   1_655 S
O2110  S2196   1.475   .     D
O2111  S2196   1.604   .     S
O2112  S2202   1.521   .     D
O2113  S2018   1.469   1_655 S
O2114  S2018   1.654   1_655 S
O2116  S2203   1.488   .     D
O2117  S2203   1.596   .     S
O2118  S2204   1.496   .     D
O2120  S2204   1.480   .     D
O2121  S2204   1.530   .     S
O2122  S2205   1.458   .     D
O2123  S2205   1.463   .     D
O2124  S2205   1.777   .     S
O2125  S2206   1.488   .     D
O2126  S2206   1.465   .     D
O2127  S2206   1.568   .     S
O2128  S2207   1.468   .     D
O2129  S2207   1.467   .     D
O2131  S2207   1.765   .     S
O2132  S2208   1.463   .     D
O2133  S2208   1.421   .     D
O2134  S2208   1.665   .     S
O2135  S2186   1.519   .     D
O2136  S2186   1.473   .     D
O2137  S2186   1.730   .     S
O2138  S2187   1.484   .     D
O2139  S2187   1.465   .     D
O2140  S2187   1.670   .     S
O2141  Cu1882  2.187   1_655 S
O2142  S2188   1.512   .     D
O2143  S2188   1.476   .     D
O2144  S2188   1.662   .     S
O2145  S2189   1.478   .     D
O2146  S2189   1.369   .     D
O2147  S2189   1.701   .     S
O2148  S2190   1.495   .     D
O2148  O2150   1.637   .     S
O2149  S2190   1.469   .     D
O2150  S2190   1.636   .     S
O2151  S2191   1.478   .     D
O2153  S2191   1.381   .     D
O2154  S2191   1.701   .     S
O2155  S2192   1.504   .     D
O2156  S2192   1.473   .     D
O2157  S2192   1.681   .     S
O2158  S2193   1.423   .     D
O2159  S2193   1.522   .     D
O2160  S2193   1.642   .     S
O2161  S2194   1.450   .     D
O2162  S2194   1.511   .     D
O2164  S2194   1.656   .     S
O2165  S2195   1.418   .     D
O2166  S2195   1.521   .     D
O2167  S2195   1.631   .     S
O2168  S2197   1.453   .     D
O2169  S2197   1.511   .     D
O2170  S2197   1.655   .     S
O2171  S2198   1.421   .     D
O2172  S2198   1.490   .     D
O2173  S2198   1.659   .     S
O2174  Cu1881  2.188   1_655 S
O2175  S2199   1.438   .     D
O2176  S2199   1.510   .     D
O2177  S2199   1.667   .     S
O2178  S2200   1.422   .     D
O2179  S2200   1.480   .     D
O2180  S2200   1.658   .     S
O2181  S2201   1.475   .     D
O2182  S2201   1.514   .     D
O2183  S2201   1.668   .     S
S2185  O1922   1.495   1_655 S
S2185  O1923   1.668   1_655 S
S2203  O1931   1.500   1_655 S
S2203  C1844   1.790   1_655 S
