data_str_m2_o2_o10_pcu_sym.17
_audit_creation_date              2020-01-03
_audit_creation_method            'Materials Studio'
_symmetry_space_group_name_H-M    'P1'
_symmetry_Int_Tables_number       1
_symmetry_cell_setting            triclinic
loop_
_symmetry_equiv_pos_as_xyz
  x,y,z
_cell_length_a                    26.2414
_cell_length_b                    30.1724
_cell_length_c                    28.1182
_cell_angle_alpha                 89.9294
_cell_angle_beta                  96.9273
_cell_angle_gamma                 94.6054
loop_
_atom_site_label
_atom_site_type_symbol
_atom_site_fract_x
_atom_site_fract_y
_atom_site_fract_z
_atom_site_U_iso_or_equiv
_atom_site_adp_type
_atom_site_occupancy
C1     C     0.16667   0.16510   0.25001   0.00000  Uiso   1.00
C2     C     0.19280   0.28341   0.44967   0.00000  Uiso   1.00
C3     C     0.16569   0.25009   0.02708   0.00000  Uiso   1.00
C4     C     0.16517   0.25017   0.47278   0.00000  Uiso   1.00
C5     C     0.06827   0.24832   0.23831   0.00000  Uiso   1.00
C6     C     0.26510   0.25115   0.26153   0.00000  Uiso   1.00
C7     C     0.01352   0.23814   0.23529   0.00000  Uiso   1.00
C8     C     0.31980   0.26161   0.26362   0.00000  Uiso   1.00
C9     C     0.13555   0.04582   0.28229   0.00000  Uiso   1.00
C10    C     0.13979   0.45018   0.20782   0.00000  Uiso   1.00
C11    C     0.13938   0.09240   0.28347   0.00000  Uiso   1.00
C12    C     0.16601   0.33489   0.24988   0.00000  Uiso   1.00
C13    C     0.14255   0.40413   0.20821   0.00000  Uiso   1.00
C14    C     0.16498   0.11670   0.24975   0.00000  Uiso   1.00
C15    C     0.16412   0.38312   0.24946   0.00000  Uiso   1.00
C16    C     0.18811   0.09456   0.21537   0.00000  Uiso   1.00
C17    C     0.18339   0.40841   0.29035   0.00000  Uiso   1.00
C18    C     0.18623   0.04841   0.21506   0.00000  Uiso   1.00
C19    C     0.18194   0.45432   0.28983   0.00000  Uiso   1.00
C20    C     0.16050   0.02396   0.24863   0.00000  Uiso   1.00
C21    C     0.16053   0.47544   0.24865   0.00000  Uiso   1.00
C22    C     0.32576   0.19558   0.20746   0.00000  Uiso   1.00
C23    C     0.20286   0.27591   0.05745   0.00000  Uiso   1.00
C24    C     0.01650   0.15457   0.22936   0.00000  Uiso   1.00
C25    C     0.00751   0.30545   0.28875   0.00000  Uiso   1.00
C26    C     0.31489   0.34515   0.26584   0.00000  Uiso   1.00
C27    C     0.05777   0.02983   0.31030   0.00000  Uiso   1.00
C28    C     0.06469   0.46749   0.16635   0.00000  Uiso   1.00
C29    C     0.23990   0.31198   0.13443   0.00000  Uiso   1.00
C30    C     0.22936   0.35945   0.11945   0.00000  Uiso   1.00
C31    C     0.09361   0.18762   0.36526   0.00000  Uiso   1.00
C32    C     0.03947   0.19953   0.37246   0.00000  Uiso   1.00
C33    C     0.09492   0.18647   0.11845   0.00000  Uiso   1.00
C34    C     0.13692   0.21747   0.44296   0.00000  Uiso   1.00
C35    C     0.10873   0.13967   0.10706   0.00000  Uiso   1.00
C36    C     0.23611   0.31537   0.38281   0.00000  Uiso   1.00
C37    C     0.29049   0.31077   0.40817   0.00000  Uiso   1.00
C38    C     0.20137   0.27795   0.10750   0.00000  Uiso   1.00
C39    C     0.13448   0.21952   0.39245   0.00000  Uiso   1.00
C40    C     0.13191   0.22177   0.10003   0.00000  Uiso   1.00
C41    C     0.19714   0.28120   0.40013   0.00000  Uiso   1.00
C42    C     0.12941   0.22394   0.04962   0.00000  Uiso   1.00
Cu43   Cu    0.16667   0.24999   0.29821   0.00000  Uiso   1.00
Cu44   Cu    0.16667   0.25000   0.20178   0.00000  Uiso   1.00
H45    H     0.12192   0.10956   0.31027   0.00000  Uiso   1.00
H46    H     0.21226   0.31146   0.46995   0.00000  Uiso   1.00
H47    H     0.05874   0.15735   0.22859   0.00000  Uiso   1.00
H48    H     0.00820   0.15045   0.26697   0.00000  Uiso   1.00
H49    H     0.33331   0.12444   0.20856   0.00000  Uiso   1.00
H50    H     0.28371   0.18808   0.20591   0.00000  Uiso   1.00
H51    H     0.00071   0.19906   0.16979   0.00000  Uiso   1.00
H52    H     0.32052   0.34732   0.22735   0.00000  Uiso   1.00
H53    H     0.27314   0.34226   0.26923   0.00000  Uiso   1.00
H54    H     0.33221   0.37633   0.28417   0.00000  Uiso   1.00
H55    H     0.00108   0.30324   0.32671   0.00000  Uiso   1.00
H56    H     0.12688   0.38485   0.17658   0.00000  Uiso   1.00
H57    H     0.04929   0.31359   0.28851   0.00000  Uiso   1.00
H58    H     0.04028   0.02893   0.27214   0.00000  Uiso   1.00
H59    H     0.05263   0.06217   0.32722   0.00000  Uiso   1.00
H60    H     0.03634   0.00355   0.32931   0.00000  Uiso   1.00
H61    H     0.05322   0.48370   0.19855   0.00000  Uiso   1.00
H62    H     0.04833   0.43226   0.16346   0.00000  Uiso   1.00
H63    H     0.04772   0.48519   0.13442   0.00000  Uiso   1.00
H64    H     0.23658   0.36547   0.08180   0.00000  Uiso   1.00
H65    H     0.18886   0.36552   0.12310   0.00000  Uiso   1.00
H66    H     0.25527   0.38351   0.14279   0.00000  Uiso   1.00
H67    H     0.20865   0.11297   0.18952   0.00000  Uiso   1.00
H68    H     0.24028   0.31094   0.17313   0.00000  Uiso   1.00
H69    H     0.27941   0.30551   0.12728   0.00000  Uiso   1.00
H70    H     0.03268   0.19589   0.41053   0.00000  Uiso   1.00
H71    H     0.03421   0.23429   0.36126   0.00000  Uiso   1.00
H72    H     0.01029   0.17707   0.35046   0.00000  Uiso   1.00
H73    H     0.09504   0.18659   0.32676   0.00000  Uiso   1.00
H74    H     0.09879   0.15327   0.37824   0.00000  Uiso   1.00
H75    H     0.10259   0.13310   0.06787   0.00000  Uiso   1.00
H76    H     0.14960   0.13563   0.12055   0.00000  Uiso   1.00
H77    H     0.08394   0.11468   0.12465   0.00000  Uiso   1.00
H78    H     0.20045   0.39283   0.32238   0.00000  Uiso   1.00
H79    H     0.09342   0.18789   0.15683   0.00000  Uiso   1.00
H80    H     0.05516   0.19091   0.10152   0.00000  Uiso   1.00
H81    H     0.29255   0.31541   0.44749   0.00000  Uiso   1.00
H82    H     0.30303   0.27744   0.40075   0.00000  Uiso   1.00
H83    H     0.31765   0.33685   0.39523   0.00000  Uiso   1.00
H84    H     0.23859   0.31361   0.34444   0.00000  Uiso   1.00
H85    H     0.22482   0.34909   0.39048   0.00000  Uiso   1.00
H86    H     0.20546   0.03171   0.18906   0.00000  Uiso   1.00
H87    H     0.19807   0.47353   0.32140   0.00000  Uiso   1.00
H88    H     0.23361   0.29527   0.04284   0.00000  Uiso   1.00
H89    H     0.11496   0.19038   0.45813   0.00000  Uiso   1.00
H90    H     0.09880   0.20408   0.02853   0.00000  Uiso   1.00
N91    N     0.16667   0.25001   0.12934   0.00000  Uiso   1.00
N92    N     0.16667   0.24999   0.37066   0.00000  Uiso   1.00
O93    O     0.16667   0.18572   0.29071   0.00000  Uiso   1.00
O94    O     0.11865   0.47064   0.16693   0.00000  Uiso   1.00
O95    O     0.16666   0.31427   0.20928   0.00000  Uiso   1.00
O96    O     0.16667   0.18573   0.20928   0.00000  Uiso   1.00
O97    O     0.16666   0.31427   0.29072   0.00000  Uiso   1.00
O98    O     0.09161   0.24999   0.28132   0.00000  Uiso   1.00
O99    O     0.24172   0.25000   0.21868   0.00000  Uiso   1.00
O100   O     0.09161   0.25000   0.19989   0.00000  Uiso   1.00
O101   O     0.24172   0.25000   0.30011   0.00000  Uiso   1.00
O102   O     0.11022   0.02118   0.31529   0.00000  Uiso   1.00
C103   C     0.50001   0.16510   0.25001   0.00000  Uiso   1.00
C104   C     0.52614   0.28341   0.44967   0.00000  Uiso   1.00
C105   C     0.49902   0.25009   0.02708   0.00000  Uiso   1.00
C106   C     0.49851   0.25017   0.47278   0.00000  Uiso   1.00
C107   C     0.40160   0.24832   0.23831   0.00000  Uiso   1.00
C108   C     0.59844   0.25115   0.26153   0.00000  Uiso   1.00
C109   C     0.34686   0.23814   0.23529   0.00000  Uiso   1.00
C110   C     0.65313   0.26161   0.26362   0.00000  Uiso   1.00
C111   C     0.46888   0.04582   0.28229   0.00000  Uiso   1.00
C112   C     0.47312   0.45018   0.20782   0.00000  Uiso   1.00
C113   C     0.47272   0.09240   0.28347   0.00000  Uiso   1.00
C114   C     0.49934   0.33489   0.24988   0.00000  Uiso   1.00
C115   C     0.47588   0.40413   0.20821   0.00000  Uiso   1.00
C116   C     0.49831   0.11670   0.24975   0.00000  Uiso   1.00
C117   C     0.49745   0.38312   0.24946   0.00000  Uiso   1.00
C118   C     0.52144   0.09456   0.21537   0.00000  Uiso   1.00
C119   C     0.51672   0.40841   0.29035   0.00000  Uiso   1.00
C120   C     0.51957   0.04841   0.21506   0.00000  Uiso   1.00
C121   C     0.51527   0.45432   0.28983   0.00000  Uiso   1.00
C122   C     0.49384   0.02396   0.24863   0.00000  Uiso   1.00
C123   C     0.49386   0.47544   0.24865   0.00000  Uiso   1.00
C124   C     0.65909   0.19558   0.20746   0.00000  Uiso   1.00
C125   C     0.53619   0.27591   0.05745   0.00000  Uiso   1.00
C126   C     0.34984   0.15457   0.22936   0.00000  Uiso   1.00
C127   C     0.34085   0.30545   0.28875   0.00000  Uiso   1.00
C128   C     0.64822   0.34515   0.26584   0.00000  Uiso   1.00
C129   C     0.39110   0.02983   0.31030   0.00000  Uiso   1.00
C130   C     0.39802   0.46749   0.16635   0.00000  Uiso   1.00
C131   C     0.57324   0.31198   0.13443   0.00000  Uiso   1.00
C132   C     0.56270   0.35945   0.11945   0.00000  Uiso   1.00
C133   C     0.42694   0.18762   0.36526   0.00000  Uiso   1.00
C134   C     0.37280   0.19953   0.37246   0.00000  Uiso   1.00
C135   C     0.42826   0.18647   0.11845   0.00000  Uiso   1.00
C136   C     0.47025   0.21747   0.44296   0.00000  Uiso   1.00
C137   C     0.44207   0.13967   0.10706   0.00000  Uiso   1.00
C138   C     0.56945   0.31537   0.38281   0.00000  Uiso   1.00
C139   C     0.62382   0.31077   0.40817   0.00000  Uiso   1.00
C140   C     0.53471   0.27795   0.10750   0.00000  Uiso   1.00
C141   C     0.46781   0.21952   0.39245   0.00000  Uiso   1.00
C142   C     0.46524   0.22177   0.10003   0.00000  Uiso   1.00
C143   C     0.53048   0.28120   0.40013   0.00000  Uiso   1.00
C144   C     0.46274   0.22394   0.04962   0.00000  Uiso   1.00
Cu145  Cu    0.50000   0.24999   0.29821   0.00000  Uiso   1.00
Cu146  Cu    0.50000   0.25000   0.20178   0.00000  Uiso   1.00
H147   H     0.45525   0.10956   0.31027   0.00000  Uiso   1.00
H148   H     0.54559   0.31146   0.46995   0.00000  Uiso   1.00
H149   H     0.39207   0.15735   0.22859   0.00000  Uiso   1.00
H150   H     0.34153   0.15045   0.26697   0.00000  Uiso   1.00
H151   H     0.66665   0.12444   0.20856   0.00000  Uiso   1.00
H152   H     0.61705   0.18808   0.20591   0.00000  Uiso   1.00
H153   H     0.33405   0.19906   0.16979   0.00000  Uiso   1.00
H154   H     0.65386   0.34732   0.22735   0.00000  Uiso   1.00
H155   H     0.60648   0.34226   0.26923   0.00000  Uiso   1.00
H156   H     0.66554   0.37633   0.28417   0.00000  Uiso   1.00
H157   H     0.33441   0.30324   0.32671   0.00000  Uiso   1.00
H158   H     0.46021   0.38485   0.17658   0.00000  Uiso   1.00
H159   H     0.38262   0.31359   0.28851   0.00000  Uiso   1.00
H160   H     0.37361   0.02893   0.27214   0.00000  Uiso   1.00
H161   H     0.38596   0.06217   0.32722   0.00000  Uiso   1.00
H162   H     0.36968   0.00355   0.32931   0.00000  Uiso   1.00
H163   H     0.38656   0.48370   0.19855   0.00000  Uiso   1.00
H164   H     0.38166   0.43226   0.16346   0.00000  Uiso   1.00
H165   H     0.38105   0.48519   0.13442   0.00000  Uiso   1.00
H166   H     0.56991   0.36547   0.08180   0.00000  Uiso   1.00
H167   H     0.52219   0.36552   0.12310   0.00000  Uiso   1.00
H168   H     0.58860   0.38351   0.14279   0.00000  Uiso   1.00
H169   H     0.54199   0.11297   0.18952   0.00000  Uiso   1.00
H170   H     0.57361   0.31094   0.17313   0.00000  Uiso   1.00
H171   H     0.61274   0.30551   0.12728   0.00000  Uiso   1.00
H172   H     0.36601   0.19589   0.41053   0.00000  Uiso   1.00
H173   H     0.36755   0.23429   0.36126   0.00000  Uiso   1.00
H174   H     0.34362   0.17707   0.35046   0.00000  Uiso   1.00
H175   H     0.42838   0.18659   0.32676   0.00000  Uiso   1.00
H176   H     0.43212   0.15327   0.37824   0.00000  Uiso   1.00
H177   H     0.43593   0.13310   0.06787   0.00000  Uiso   1.00
H178   H     0.48293   0.13563   0.12055   0.00000  Uiso   1.00
H179   H     0.41727   0.11468   0.12465   0.00000  Uiso   1.00
H180   H     0.53378   0.39283   0.32238   0.00000  Uiso   1.00
H181   H     0.42676   0.18789   0.15683   0.00000  Uiso   1.00
H182   H     0.38849   0.19091   0.10152   0.00000  Uiso   1.00
H183   H     0.62588   0.31541   0.44749   0.00000  Uiso   1.00
H184   H     0.63637   0.27744   0.40075   0.00000  Uiso   1.00
H185   H     0.65099   0.33685   0.39523   0.00000  Uiso   1.00
H186   H     0.57192   0.31361   0.34444   0.00000  Uiso   1.00
H187   H     0.55815   0.34909   0.39048   0.00000  Uiso   1.00
H188   H     0.53879   0.03171   0.18906   0.00000  Uiso   1.00
H189   H     0.53140   0.47353   0.32140   0.00000  Uiso   1.00
H190   H     0.56694   0.29527   0.04284   0.00000  Uiso   1.00
H191   H     0.44829   0.19038   0.45813   0.00000  Uiso   1.00
H192   H     0.43213   0.20408   0.02853   0.00000  Uiso   1.00
N193   N     0.50000   0.25001   0.12934   0.00000  Uiso   1.00
N194   N     0.50000   0.24999   0.37066   0.00000  Uiso   1.00
O195   O     0.50000   0.18572   0.29071   0.00000  Uiso   1.00
O196   O     0.45198   0.47064   0.16693   0.00000  Uiso   1.00
O197   O     0.50000   0.31427   0.20928   0.00000  Uiso   1.00
O198   O     0.50000   0.18573   0.20928   0.00000  Uiso   1.00
O199   O     0.50000   0.31427   0.29072   0.00000  Uiso   1.00
O200   O     0.42495   0.24999   0.28132   0.00000  Uiso   1.00
O201   O     0.57505   0.25000   0.21868   0.00000  Uiso   1.00
O202   O     0.42495   0.25000   0.19989   0.00000  Uiso   1.00
O203   O     0.57505   0.25000   0.30011   0.00000  Uiso   1.00
O204   O     0.44355   0.02118   0.31529   0.00000  Uiso   1.00
C205   C     0.83334   0.16510   0.25001   0.00000  Uiso   1.00
C206   C     0.85947   0.28341   0.44967   0.00000  Uiso   1.00
C207   C     0.83236   0.25009   0.02708   0.00000  Uiso   1.00
C208   C     0.83184   0.25017   0.47278   0.00000  Uiso   1.00
C209   C     0.73494   0.24832   0.23831   0.00000  Uiso   1.00
C210   C     0.93177   0.25115   0.26153   0.00000  Uiso   1.00
C211   C     0.68019   0.23814   0.23529   0.00000  Uiso   1.00
C212   C     0.98647   0.26161   0.26362   0.00000  Uiso   1.00
C213   C     0.80221   0.04582   0.28229   0.00000  Uiso   1.00
C214   C     0.80645   0.45018   0.20782   0.00000  Uiso   1.00
C215   C     0.80605   0.09240   0.28347   0.00000  Uiso   1.00
C216   C     0.83267   0.33489   0.24988   0.00000  Uiso   1.00
C217   C     0.80921   0.40413   0.20821   0.00000  Uiso   1.00
C218   C     0.83165   0.11670   0.24975   0.00000  Uiso   1.00
C219   C     0.83078   0.38312   0.24946   0.00000  Uiso   1.00
C220   C     0.85478   0.09456   0.21537   0.00000  Uiso   1.00
C221   C     0.85005   0.40841   0.29035   0.00000  Uiso   1.00
C222   C     0.85290   0.04841   0.21506   0.00000  Uiso   1.00
C223   C     0.84861   0.45432   0.28983   0.00000  Uiso   1.00
C224   C     0.82717   0.02396   0.24863   0.00000  Uiso   1.00
C225   C     0.82720   0.47544   0.24865   0.00000  Uiso   1.00
C226   C     0.99243   0.19558   0.20746   0.00000  Uiso   1.00
C227   C     0.86952   0.27591   0.05745   0.00000  Uiso   1.00
C228   C     0.68317   0.15457   0.22936   0.00000  Uiso   1.00
C229   C     0.67418   0.30545   0.28875   0.00000  Uiso   1.00
C230   C     0.98155   0.34515   0.26584   0.00000  Uiso   1.00
C231   C     0.72443   0.02983   0.31030   0.00000  Uiso   1.00
C232   C     0.73135   0.46749   0.16635   0.00000  Uiso   1.00
C233   C     0.90657   0.31198   0.13443   0.00000  Uiso   1.00
C234   C     0.89603   0.35945   0.11945   0.00000  Uiso   1.00
C235   C     0.76028   0.18762   0.36526   0.00000  Uiso   1.00
C236   C     0.70614   0.19953   0.37246   0.00000  Uiso   1.00
C237   C     0.76159   0.18647   0.11845   0.00000  Uiso   1.00
C238   C     0.80358   0.21747   0.44296   0.00000  Uiso   1.00
C239   C     0.77540   0.13967   0.10706   0.00000  Uiso   1.00
C240   C     0.90278   0.31537   0.38281   0.00000  Uiso   1.00
C241   C     0.95715   0.31077   0.40817   0.00000  Uiso   1.00
C242   C     0.86804   0.27795   0.10750   0.00000  Uiso   1.00
C243   C     0.80114   0.21952   0.39245   0.00000  Uiso   1.00
C244   C     0.79857   0.22177   0.10003   0.00000  Uiso   1.00
C245   C     0.86381   0.28120   0.40013   0.00000  Uiso   1.00
C246   C     0.79608   0.22394   0.04962   0.00000  Uiso   1.00
Cu247  Cu    0.83333   0.24999   0.29821   0.00000  Uiso   1.00
Cu248  Cu    0.83333   0.25000   0.20178   0.00000  Uiso   1.00
H249   H     0.78859   0.10956   0.31027   0.00000  Uiso   1.00
H250   H     0.87892   0.31146   0.46995   0.00000  Uiso   1.00
H251   H     0.72540   0.15735   0.22859   0.00000  Uiso   1.00
H252   H     0.67486   0.15045   0.26697   0.00000  Uiso   1.00
H253   H     0.99998   0.12444   0.20856   0.00000  Uiso   1.00
H254   H     0.95038   0.18808   0.20591   0.00000  Uiso   1.00
H255   H     0.66738   0.19906   0.16979   0.00000  Uiso   1.00
H256   H     0.98719   0.34732   0.22735   0.00000  Uiso   1.00
H257   H     0.93981   0.34226   0.26923   0.00000  Uiso   1.00
H258   H     0.99888   0.37633   0.28417   0.00000  Uiso   1.00
H259   H     0.66775   0.30324   0.32671   0.00000  Uiso   1.00
H260   H     0.79355   0.38485   0.17658   0.00000  Uiso   1.00
H261   H     0.71595   0.31359   0.28851   0.00000  Uiso   1.00
H262   H     0.70695   0.02893   0.27214   0.00000  Uiso   1.00
H263   H     0.71930   0.06217   0.32722   0.00000  Uiso   1.00
H264   H     0.70301   0.00355   0.32931   0.00000  Uiso   1.00
H265   H     0.71989   0.48370   0.19855   0.00000  Uiso   1.00
H266   H     0.71500   0.43226   0.16346   0.00000  Uiso   1.00
H267   H     0.71439   0.48519   0.13442   0.00000  Uiso   1.00
H268   H     0.90324   0.36547   0.08180   0.00000  Uiso   1.00
H269   H     0.85553   0.36552   0.12310   0.00000  Uiso   1.00
H270   H     0.92194   0.38351   0.14279   0.00000  Uiso   1.00
H271   H     0.87532   0.11297   0.18952   0.00000  Uiso   1.00
H272   H     0.90695   0.31094   0.17313   0.00000  Uiso   1.00
H273   H     0.94608   0.30551   0.12728   0.00000  Uiso   1.00
H274   H     0.69934   0.19589   0.41053   0.00000  Uiso   1.00
H275   H     0.70088   0.23429   0.36126   0.00000  Uiso   1.00
H276   H     0.67695   0.17707   0.35046   0.00000  Uiso   1.00
H277   H     0.76171   0.18659   0.32676   0.00000  Uiso   1.00
H278   H     0.76546   0.15327   0.37824   0.00000  Uiso   1.00
H279   H     0.76926   0.13310   0.06787   0.00000  Uiso   1.00
H280   H     0.81627   0.13563   0.12055   0.00000  Uiso   1.00
H281   H     0.75060   0.11468   0.12465   0.00000  Uiso   1.00
H282   H     0.86711   0.39283   0.32238   0.00000  Uiso   1.00
H283   H     0.76009   0.18789   0.15683   0.00000  Uiso   1.00
H284   H     0.72182   0.19091   0.10152   0.00000  Uiso   1.00
H285   H     0.95922   0.31541   0.44749   0.00000  Uiso   1.00
H286   H     0.96970   0.27744   0.40075   0.00000  Uiso   1.00
H287   H     0.98432   0.33685   0.39523   0.00000  Uiso   1.00
H288   H     0.90526   0.31361   0.34444   0.00000  Uiso   1.00
H289   H     0.89149   0.34909   0.39048   0.00000  Uiso   1.00
H290   H     0.87213   0.03171   0.18906   0.00000  Uiso   1.00
H291   H     0.86474   0.47353   0.32140   0.00000  Uiso   1.00
H292   H     0.90028   0.29527   0.04284   0.00000  Uiso   1.00
H293   H     0.78162   0.19038   0.45813   0.00000  Uiso   1.00
H294   H     0.76547   0.20408   0.02853   0.00000  Uiso   1.00
N295   N     0.83333   0.25001   0.12934   0.00000  Uiso   1.00
N296   N     0.83333   0.24999   0.37066   0.00000  Uiso   1.00
O297   O     0.83334   0.18572   0.29071   0.00000  Uiso   1.00
O298   O     0.78532   0.47064   0.16693   0.00000  Uiso   1.00
O299   O     0.83333   0.31427   0.20928   0.00000  Uiso   1.00
O300   O     0.83334   0.18573   0.20928   0.00000  Uiso   1.00
O301   O     0.83333   0.31427   0.29072   0.00000  Uiso   1.00
O302   O     0.75828   0.24999   0.28132   0.00000  Uiso   1.00
O303   O     0.90839   0.25000   0.21868   0.00000  Uiso   1.00
O304   O     0.75828   0.25000   0.19989   0.00000  Uiso   1.00
O305   O     0.90839   0.25000   0.30011   0.00000  Uiso   1.00
O306   O     0.77688   0.02118   0.31529   0.00000  Uiso   1.00
C307   C     0.16667   0.66510   0.25001   0.00000  Uiso   1.00
C308   C     0.19280   0.78341   0.44967   0.00000  Uiso   1.00
C309   C     0.16569   0.75009   0.02708   0.00000  Uiso   1.00
C310   C     0.16517   0.75017   0.47278   0.00000  Uiso   1.00
C311   C     0.06827   0.74832   0.23831   0.00000  Uiso   1.00
C312   C     0.26510   0.75115   0.26153   0.00000  Uiso   1.00
C313   C     0.01352   0.73814   0.23529   0.00000  Uiso   1.00
C314   C     0.31980   0.76161   0.26362   0.00000  Uiso   1.00
C315   C     0.13555   0.54582   0.28229   0.00000  Uiso   1.00
C316   C     0.13979   0.95018   0.20782   0.00000  Uiso   1.00
C317   C     0.13938   0.59240   0.28347   0.00000  Uiso   1.00
C318   C     0.16601   0.83489   0.24988   0.00000  Uiso   1.00
C319   C     0.14255   0.90413   0.20821   0.00000  Uiso   1.00
C320   C     0.16498   0.61670   0.24975   0.00000  Uiso   1.00
C321   C     0.16412   0.88312   0.24946   0.00000  Uiso   1.00
C322   C     0.18811   0.59456   0.21537   0.00000  Uiso   1.00
C323   C     0.18339   0.90841   0.29035   0.00000  Uiso   1.00
C324   C     0.18623   0.54841   0.21506   0.00000  Uiso   1.00
C325   C     0.18194   0.95432   0.28983   0.00000  Uiso   1.00
C326   C     0.16050   0.52396   0.24863   0.00000  Uiso   1.00
C327   C     0.16053   0.97544   0.24865   0.00000  Uiso   1.00
C328   C     0.32576   0.69558   0.20746   0.00000  Uiso   1.00
C329   C     0.20286   0.77591   0.05745   0.00000  Uiso   1.00
C330   C     0.01650   0.65457   0.22936   0.00000  Uiso   1.00
C331   C     0.00751   0.80545   0.28875   0.00000  Uiso   1.00
C332   C     0.31489   0.84515   0.26584   0.00000  Uiso   1.00
C333   C     0.05777   0.52983   0.31030   0.00000  Uiso   1.00
C334   C     0.06469   0.96749   0.16635   0.00000  Uiso   1.00
C335   C     0.23990   0.81198   0.13443   0.00000  Uiso   1.00
C336   C     0.22936   0.85945   0.11945   0.00000  Uiso   1.00
C337   C     0.09361   0.68762   0.36526   0.00000  Uiso   1.00
C338   C     0.03947   0.69953   0.37246   0.00000  Uiso   1.00
C339   C     0.09492   0.68647   0.11845   0.00000  Uiso   1.00
C340   C     0.13692   0.71747   0.44296   0.00000  Uiso   1.00
C341   C     0.10873   0.63967   0.10706   0.00000  Uiso   1.00
C342   C     0.23611   0.81537   0.38281   0.00000  Uiso   1.00
C343   C     0.29049   0.81077   0.40817   0.00000  Uiso   1.00
C344   C     0.20137   0.77795   0.10750   0.00000  Uiso   1.00
C345   C     0.13448   0.71952   0.39245   0.00000  Uiso   1.00
C346   C     0.13191   0.72177   0.10003   0.00000  Uiso   1.00
C347   C     0.19714   0.78120   0.40013   0.00000  Uiso   1.00
C348   C     0.12941   0.72394   0.04962   0.00000  Uiso   1.00
Cu349  Cu    0.16667   0.74999   0.29821   0.00000  Uiso   1.00
Cu350  Cu    0.16667   0.75000   0.20178   0.00000  Uiso   1.00
H351   H     0.12192   0.60956   0.31027   0.00000  Uiso   1.00
H352   H     0.21226   0.81146   0.46995   0.00000  Uiso   1.00
H353   H     0.05874   0.65735   0.22859   0.00000  Uiso   1.00
H354   H     0.00820   0.65045   0.26697   0.00000  Uiso   1.00
H355   H     0.33331   0.62444   0.20856   0.00000  Uiso   1.00
H356   H     0.28371   0.68808   0.20591   0.00000  Uiso   1.00
H357   H     0.00071   0.69906   0.16979   0.00000  Uiso   1.00
H358   H     0.32052   0.84732   0.22735   0.00000  Uiso   1.00
H359   H     0.27314   0.84226   0.26923   0.00000  Uiso   1.00
H360   H     0.33221   0.87633   0.28417   0.00000  Uiso   1.00
H361   H     0.00108   0.80324   0.32671   0.00000  Uiso   1.00
H362   H     0.12688   0.88485   0.17658   0.00000  Uiso   1.00
H363   H     0.04929   0.81359   0.28851   0.00000  Uiso   1.00
H364   H     0.04028   0.52893   0.27214   0.00000  Uiso   1.00
H365   H     0.05263   0.56217   0.32722   0.00000  Uiso   1.00
H366   H     0.03634   0.50355   0.32931   0.00000  Uiso   1.00
H367   H     0.05322   0.98370   0.19855   0.00000  Uiso   1.00
H368   H     0.04833   0.93226   0.16346   0.00000  Uiso   1.00
H369   H     0.04772   0.98519   0.13442   0.00000  Uiso   1.00
H370   H     0.23658   0.86547   0.08180   0.00000  Uiso   1.00
H371   H     0.18886   0.86552   0.12310   0.00000  Uiso   1.00
H372   H     0.25527   0.88351   0.14279   0.00000  Uiso   1.00
H373   H     0.20865   0.61297   0.18952   0.00000  Uiso   1.00
H374   H     0.24028   0.81094   0.17313   0.00000  Uiso   1.00
H375   H     0.27941   0.80551   0.12728   0.00000  Uiso   1.00
H376   H     0.03268   0.69589   0.41053   0.00000  Uiso   1.00
H377   H     0.03421   0.73429   0.36126   0.00000  Uiso   1.00
H378   H     0.01029   0.67707   0.35046   0.00000  Uiso   1.00
H379   H     0.09504   0.68659   0.32676   0.00000  Uiso   1.00
H380   H     0.09879   0.65327   0.37824   0.00000  Uiso   1.00
H381   H     0.10259   0.63310   0.06787   0.00000  Uiso   1.00
H382   H     0.14960   0.63563   0.12055   0.00000  Uiso   1.00
H383   H     0.08394   0.61468   0.12465   0.00000  Uiso   1.00
H384   H     0.20045   0.89283   0.32238   0.00000  Uiso   1.00
H385   H     0.09342   0.68789   0.15683   0.00000  Uiso   1.00
H386   H     0.05516   0.69091   0.10152   0.00000  Uiso   1.00
H387   H     0.29255   0.81541   0.44749   0.00000  Uiso   1.00
H388   H     0.30303   0.77744   0.40075   0.00000  Uiso   1.00
H389   H     0.31765   0.83685   0.39523   0.00000  Uiso   1.00
H390   H     0.23859   0.81361   0.34444   0.00000  Uiso   1.00
H391   H     0.22482   0.84909   0.39048   0.00000  Uiso   1.00
H392   H     0.20546   0.53171   0.18906   0.00000  Uiso   1.00
H393   H     0.19807   0.97353   0.32140   0.00000  Uiso   1.00
H394   H     0.23361   0.79527   0.04284   0.00000  Uiso   1.00
H395   H     0.11496   0.69038   0.45813   0.00000  Uiso   1.00
H396   H     0.09880   0.70408   0.02853   0.00000  Uiso   1.00
N397   N     0.16667   0.75001   0.12934   0.00000  Uiso   1.00
N398   N     0.16667   0.74999   0.37066   0.00000  Uiso   1.00
O399   O     0.16667   0.68572   0.29071   0.00000  Uiso   1.00
O400   O     0.11865   0.97064   0.16693   0.00000  Uiso   1.00
O401   O     0.16666   0.81427   0.20928   0.00000  Uiso   1.00
O402   O     0.16667   0.68573   0.20928   0.00000  Uiso   1.00
O403   O     0.16666   0.81427   0.29072   0.00000  Uiso   1.00
O404   O     0.09161   0.74999   0.28132   0.00000  Uiso   1.00
O405   O     0.24172   0.75000   0.21868   0.00000  Uiso   1.00
O406   O     0.09161   0.75000   0.19989   0.00000  Uiso   1.00
O407   O     0.24172   0.75000   0.30011   0.00000  Uiso   1.00
O408   O     0.11022   0.52118   0.31529   0.00000  Uiso   1.00
C409   C     0.50001   0.66510   0.25001   0.00000  Uiso   1.00
C410   C     0.52614   0.78341   0.44967   0.00000  Uiso   1.00
C411   C     0.49902   0.75009   0.02708   0.00000  Uiso   1.00
C412   C     0.49851   0.75017   0.47278   0.00000  Uiso   1.00
C413   C     0.40160   0.74832   0.23831   0.00000  Uiso   1.00
C414   C     0.59844   0.75115   0.26153   0.00000  Uiso   1.00
C415   C     0.34686   0.73814   0.23529   0.00000  Uiso   1.00
C416   C     0.65313   0.76161   0.26362   0.00000  Uiso   1.00
C417   C     0.46888   0.54582   0.28229   0.00000  Uiso   1.00
C418   C     0.47312   0.95018   0.20782   0.00000  Uiso   1.00
C419   C     0.47272   0.59240   0.28347   0.00000  Uiso   1.00
C420   C     0.49934   0.83489   0.24988   0.00000  Uiso   1.00
C421   C     0.47588   0.90413   0.20821   0.00000  Uiso   1.00
C422   C     0.49831   0.61670   0.24975   0.00000  Uiso   1.00
C423   C     0.49745   0.88312   0.24946   0.00000  Uiso   1.00
C424   C     0.52144   0.59456   0.21537   0.00000  Uiso   1.00
C425   C     0.51672   0.90841   0.29035   0.00000  Uiso   1.00
C426   C     0.51957   0.54841   0.21506   0.00000  Uiso   1.00
C427   C     0.51527   0.95432   0.28983   0.00000  Uiso   1.00
C428   C     0.49384   0.52396   0.24863   0.00000  Uiso   1.00
C429   C     0.49386   0.97544   0.24865   0.00000  Uiso   1.00
C430   C     0.65909   0.69558   0.20746   0.00000  Uiso   1.00
C431   C     0.53619   0.77591   0.05745   0.00000  Uiso   1.00
C432   C     0.34984   0.65457   0.22936   0.00000  Uiso   1.00
C433   C     0.34085   0.80545   0.28875   0.00000  Uiso   1.00
C434   C     0.64822   0.84515   0.26584   0.00000  Uiso   1.00
C435   C     0.39110   0.52983   0.31030   0.00000  Uiso   1.00
C436   C     0.39802   0.96749   0.16635   0.00000  Uiso   1.00
C437   C     0.57324   0.81198   0.13443   0.00000  Uiso   1.00
C438   C     0.56270   0.85945   0.11945   0.00000  Uiso   1.00
C439   C     0.42694   0.68762   0.36526   0.00000  Uiso   1.00
C440   C     0.37280   0.69953   0.37246   0.00000  Uiso   1.00
C441   C     0.42826   0.68647   0.11845   0.00000  Uiso   1.00
C442   C     0.47025   0.71747   0.44296   0.00000  Uiso   1.00
C443   C     0.44207   0.63967   0.10706   0.00000  Uiso   1.00
C444   C     0.56945   0.81537   0.38281   0.00000  Uiso   1.00
C445   C     0.62382   0.81077   0.40817   0.00000  Uiso   1.00
C446   C     0.53471   0.77795   0.10750   0.00000  Uiso   1.00
C447   C     0.46781   0.71952   0.39245   0.00000  Uiso   1.00
C448   C     0.46524   0.72177   0.10003   0.00000  Uiso   1.00
C449   C     0.53048   0.78120   0.40013   0.00000  Uiso   1.00
C450   C     0.46274   0.72394   0.04962   0.00000  Uiso   1.00
Cu451  Cu    0.50000   0.74999   0.29821   0.00000  Uiso   1.00
Cu452  Cu    0.50000   0.75000   0.20178   0.00000  Uiso   1.00
H453   H     0.45525   0.60956   0.31027   0.00000  Uiso   1.00
H454   H     0.54559   0.81146   0.46995   0.00000  Uiso   1.00
H455   H     0.39207   0.65735   0.22859   0.00000  Uiso   1.00
H456   H     0.34153   0.65045   0.26697   0.00000  Uiso   1.00
H457   H     0.66665   0.62444   0.20856   0.00000  Uiso   1.00
H458   H     0.61705   0.68808   0.20591   0.00000  Uiso   1.00
H459   H     0.33405   0.69906   0.16979   0.00000  Uiso   1.00
H460   H     0.65386   0.84732   0.22735   0.00000  Uiso   1.00
H461   H     0.60648   0.84226   0.26923   0.00000  Uiso   1.00
H462   H     0.66554   0.87633   0.28417   0.00000  Uiso   1.00
H463   H     0.33441   0.80324   0.32671   0.00000  Uiso   1.00
H464   H     0.46021   0.88485   0.17658   0.00000  Uiso   1.00
H465   H     0.38262   0.81359   0.28851   0.00000  Uiso   1.00
H466   H     0.37361   0.52893   0.27214   0.00000  Uiso   1.00
H467   H     0.38596   0.56217   0.32722   0.00000  Uiso   1.00
H468   H     0.36968   0.50355   0.32931   0.00000  Uiso   1.00
H469   H     0.38656   0.98370   0.19855   0.00000  Uiso   1.00
H470   H     0.38166   0.93226   0.16346   0.00000  Uiso   1.00
H471   H     0.38105   0.98519   0.13442   0.00000  Uiso   1.00
H472   H     0.56991   0.86547   0.08180   0.00000  Uiso   1.00
H473   H     0.52219   0.86552   0.12310   0.00000  Uiso   1.00
H474   H     0.58860   0.88351   0.14279   0.00000  Uiso   1.00
H475   H     0.54199   0.61297   0.18952   0.00000  Uiso   1.00
H476   H     0.57361   0.81094   0.17313   0.00000  Uiso   1.00
H477   H     0.61274   0.80551   0.12728   0.00000  Uiso   1.00
H478   H     0.36601   0.69589   0.41053   0.00000  Uiso   1.00
H479   H     0.36755   0.73429   0.36126   0.00000  Uiso   1.00
H480   H     0.34362   0.67707   0.35046   0.00000  Uiso   1.00
H481   H     0.42838   0.68659   0.32676   0.00000  Uiso   1.00
H482   H     0.43212   0.65327   0.37824   0.00000  Uiso   1.00
H483   H     0.43593   0.63310   0.06787   0.00000  Uiso   1.00
H484   H     0.48293   0.63563   0.12055   0.00000  Uiso   1.00
H485   H     0.41727   0.61468   0.12465   0.00000  Uiso   1.00
H486   H     0.53378   0.89283   0.32238   0.00000  Uiso   1.00
H487   H     0.42676   0.68789   0.15683   0.00000  Uiso   1.00
H488   H     0.38849   0.69091   0.10152   0.00000  Uiso   1.00
H489   H     0.62588   0.81541   0.44749   0.00000  Uiso   1.00
H490   H     0.63637   0.77744   0.40075   0.00000  Uiso   1.00
H491   H     0.65099   0.83685   0.39523   0.00000  Uiso   1.00
H492   H     0.57192   0.81361   0.34444   0.00000  Uiso   1.00
H493   H     0.55815   0.84909   0.39048   0.00000  Uiso   1.00
H494   H     0.53879   0.53171   0.18906   0.00000  Uiso   1.00
H495   H     0.53140   0.97353   0.32140   0.00000  Uiso   1.00
H496   H     0.56694   0.79527   0.04284   0.00000  Uiso   1.00
H497   H     0.44829   0.69038   0.45813   0.00000  Uiso   1.00
H498   H     0.43213   0.70408   0.02853   0.00000  Uiso   1.00
N499   N     0.50000   0.75001   0.12934   0.00000  Uiso   1.00
N500   N     0.50000   0.74999   0.37066   0.00000  Uiso   1.00
O501   O     0.50000   0.68572   0.29071   0.00000  Uiso   1.00
O502   O     0.45198   0.97064   0.16693   0.00000  Uiso   1.00
O503   O     0.50000   0.81427   0.20928   0.00000  Uiso   1.00
O504   O     0.50000   0.68573   0.20928   0.00000  Uiso   1.00
O505   O     0.50000   0.81427   0.29072   0.00000  Uiso   1.00
O506   O     0.42495   0.74999   0.28132   0.00000  Uiso   1.00
O507   O     0.57505   0.75000   0.21868   0.00000  Uiso   1.00
O508   O     0.42495   0.75000   0.19989   0.00000  Uiso   1.00
O509   O     0.57505   0.75000   0.30011   0.00000  Uiso   1.00
O510   O     0.44355   0.52118   0.31529   0.00000  Uiso   1.00
C511   C     0.83334   0.66510   0.25001   0.00000  Uiso   1.00
C512   C     0.85947   0.78341   0.44967   0.00000  Uiso   1.00
C513   C     0.83236   0.75009   0.02708   0.00000  Uiso   1.00
C514   C     0.83184   0.75017   0.47278   0.00000  Uiso   1.00
C515   C     0.73494   0.74832   0.23831   0.00000  Uiso   1.00
C516   C     0.93177   0.75115   0.26153   0.00000  Uiso   1.00
C517   C     0.68019   0.73814   0.23529   0.00000  Uiso   1.00
C518   C     0.98647   0.76161   0.26362   0.00000  Uiso   1.00
C519   C     0.80221   0.54582   0.28229   0.00000  Uiso   1.00
C520   C     0.80645   0.95018   0.20782   0.00000  Uiso   1.00
C521   C     0.80605   0.59240   0.28347   0.00000  Uiso   1.00
C522   C     0.83267   0.83489   0.24988   0.00000  Uiso   1.00
C523   C     0.80921   0.90413   0.20821   0.00000  Uiso   1.00
C524   C     0.83165   0.61670   0.24975   0.00000  Uiso   1.00
C525   C     0.83078   0.88312   0.24946   0.00000  Uiso   1.00
C526   C     0.85478   0.59456   0.21537   0.00000  Uiso   1.00
C527   C     0.85005   0.90841   0.29035   0.00000  Uiso   1.00
C528   C     0.85290   0.54841   0.21506   0.00000  Uiso   1.00
C529   C     0.84861   0.95432   0.28983   0.00000  Uiso   1.00
C530   C     0.82717   0.52396   0.24863   0.00000  Uiso   1.00
C531   C     0.82720   0.97544   0.24865   0.00000  Uiso   1.00
C532   C     0.99243   0.69558   0.20746   0.00000  Uiso   1.00
C533   C     0.86952   0.77591   0.05745   0.00000  Uiso   1.00
C534   C     0.68317   0.65457   0.22936   0.00000  Uiso   1.00
C535   C     0.67418   0.80545   0.28875   0.00000  Uiso   1.00
C536   C     0.98155   0.84515   0.26584   0.00000  Uiso   1.00
C537   C     0.72443   0.52983   0.31030   0.00000  Uiso   1.00
C538   C     0.73135   0.96749   0.16635   0.00000  Uiso   1.00
C539   C     0.90657   0.81198   0.13443   0.00000  Uiso   1.00
C540   C     0.89603   0.85945   0.11945   0.00000  Uiso   1.00
C541   C     0.76028   0.68762   0.36526   0.00000  Uiso   1.00
C542   C     0.70614   0.69953   0.37246   0.00000  Uiso   1.00
C543   C     0.76159   0.68647   0.11845   0.00000  Uiso   1.00
C544   C     0.80358   0.71747   0.44296   0.00000  Uiso   1.00
C545   C     0.77540   0.63967   0.10706   0.00000  Uiso   1.00
C546   C     0.90278   0.81537   0.38281   0.00000  Uiso   1.00
C547   C     0.95715   0.81077   0.40817   0.00000  Uiso   1.00
C548   C     0.86804   0.77795   0.10750   0.00000  Uiso   1.00
C549   C     0.80114   0.71952   0.39245   0.00000  Uiso   1.00
C550   C     0.79857   0.72177   0.10003   0.00000  Uiso   1.00
C551   C     0.86381   0.78120   0.40013   0.00000  Uiso   1.00
C552   C     0.79608   0.72394   0.04962   0.00000  Uiso   1.00
Cu553  Cu    0.83333   0.74999   0.29821   0.00000  Uiso   1.00
Cu554  Cu    0.83333   0.75000   0.20178   0.00000  Uiso   1.00
H555   H     0.78859   0.60956   0.31027   0.00000  Uiso   1.00
H556   H     0.87892   0.81146   0.46995   0.00000  Uiso   1.00
H557   H     0.72540   0.65735   0.22859   0.00000  Uiso   1.00
H558   H     0.67486   0.65045   0.26697   0.00000  Uiso   1.00
H559   H     0.99998   0.62444   0.20856   0.00000  Uiso   1.00
H560   H     0.95038   0.68808   0.20591   0.00000  Uiso   1.00
H561   H     0.66738   0.69906   0.16979   0.00000  Uiso   1.00
H562   H     0.98719   0.84732   0.22735   0.00000  Uiso   1.00
H563   H     0.93981   0.84226   0.26923   0.00000  Uiso   1.00
H564   H     0.99888   0.87633   0.28417   0.00000  Uiso   1.00
H565   H     0.66775   0.80324   0.32671   0.00000  Uiso   1.00
H566   H     0.79355   0.88485   0.17658   0.00000  Uiso   1.00
H567   H     0.71595   0.81359   0.28851   0.00000  Uiso   1.00
H568   H     0.70695   0.52893   0.27214   0.00000  Uiso   1.00
H569   H     0.71930   0.56217   0.32722   0.00000  Uiso   1.00
H570   H     0.70301   0.50355   0.32931   0.00000  Uiso   1.00
H571   H     0.71989   0.98370   0.19855   0.00000  Uiso   1.00
H572   H     0.71500   0.93226   0.16346   0.00000  Uiso   1.00
H573   H     0.71439   0.98519   0.13442   0.00000  Uiso   1.00
H574   H     0.90324   0.86547   0.08180   0.00000  Uiso   1.00
H575   H     0.85553   0.86552   0.12310   0.00000  Uiso   1.00
H576   H     0.92194   0.88351   0.14279   0.00000  Uiso   1.00
H577   H     0.87532   0.61297   0.18952   0.00000  Uiso   1.00
H578   H     0.90695   0.81094   0.17313   0.00000  Uiso   1.00
H579   H     0.94608   0.80551   0.12728   0.00000  Uiso   1.00
H580   H     0.69934   0.69589   0.41053   0.00000  Uiso   1.00
H581   H     0.70088   0.73429   0.36126   0.00000  Uiso   1.00
H582   H     0.67695   0.67707   0.35046   0.00000  Uiso   1.00
H583   H     0.76171   0.68659   0.32676   0.00000  Uiso   1.00
H584   H     0.76546   0.65327   0.37824   0.00000  Uiso   1.00
H585   H     0.76926   0.63310   0.06787   0.00000  Uiso   1.00
H586   H     0.81627   0.63563   0.12055   0.00000  Uiso   1.00
H587   H     0.75060   0.61468   0.12465   0.00000  Uiso   1.00
H588   H     0.86711   0.89283   0.32238   0.00000  Uiso   1.00
H589   H     0.76009   0.68789   0.15683   0.00000  Uiso   1.00
H590   H     0.72182   0.69091   0.10152   0.00000  Uiso   1.00
H591   H     0.95922   0.81541   0.44749   0.00000  Uiso   1.00
H592   H     0.96970   0.77744   0.40075   0.00000  Uiso   1.00
H593   H     0.98432   0.83685   0.39523   0.00000  Uiso   1.00
H594   H     0.90526   0.81361   0.34444   0.00000  Uiso   1.00
H595   H     0.89149   0.84909   0.39048   0.00000  Uiso   1.00
H596   H     0.87213   0.53171   0.18906   0.00000  Uiso   1.00
H597   H     0.86474   0.97353   0.32140   0.00000  Uiso   1.00
H598   H     0.90028   0.79527   0.04284   0.00000  Uiso   1.00
H599   H     0.78162   0.69038   0.45813   0.00000  Uiso   1.00
H600   H     0.76547   0.70408   0.02853   0.00000  Uiso   1.00
N601   N     0.83333   0.75001   0.12934   0.00000  Uiso   1.00
N602   N     0.83333   0.74999   0.37066   0.00000  Uiso   1.00
O603   O     0.83334   0.68572   0.29071   0.00000  Uiso   1.00
O604   O     0.78532   0.97064   0.16693   0.00000  Uiso   1.00
O605   O     0.83333   0.81427   0.20928   0.00000  Uiso   1.00
O606   O     0.83334   0.68573   0.20928   0.00000  Uiso   1.00
O607   O     0.83333   0.81427   0.29072   0.00000  Uiso   1.00
O608   O     0.75828   0.74999   0.28132   0.00000  Uiso   1.00
O609   O     0.90839   0.75000   0.21868   0.00000  Uiso   1.00
O610   O     0.75828   0.75000   0.19989   0.00000  Uiso   1.00
O611   O     0.90839   0.75000   0.30011   0.00000  Uiso   1.00
O612   O     0.77688   0.52118   0.31529   0.00000  Uiso   1.00
C613   C     0.16667   0.16510   0.75001   0.00000  Uiso   1.00
C614   C     0.19280   0.28341   0.94967   0.00000  Uiso   1.00
C615   C     0.16569   0.25009   0.52708   0.00000  Uiso   1.00
C616   C     0.16517   0.25017   0.97278   0.00000  Uiso   1.00
C617   C     0.06827   0.24832   0.73831   0.00000  Uiso   1.00
C618   C     0.26510   0.25115   0.76153   0.00000  Uiso   1.00
C619   C     0.01352   0.23814   0.73529   0.00000  Uiso   1.00
C620   C     0.31980   0.26161   0.76362   0.00000  Uiso   1.00
C621   C     0.13555   0.04582   0.78229   0.00000  Uiso   1.00
C622   C     0.13979   0.45018   0.70782   0.00000  Uiso   1.00
C623   C     0.13938   0.09240   0.78347   0.00000  Uiso   1.00
C624   C     0.16601   0.33489   0.74988   0.00000  Uiso   1.00
C625   C     0.14255   0.40413   0.70821   0.00000  Uiso   1.00
C626   C     0.16498   0.11670   0.74975   0.00000  Uiso   1.00
C627   C     0.16412   0.38312   0.74946   0.00000  Uiso   1.00
C628   C     0.18811   0.09456   0.71537   0.00000  Uiso   1.00
C629   C     0.18339   0.40841   0.79035   0.00000  Uiso   1.00
C630   C     0.18623   0.04841   0.71506   0.00000  Uiso   1.00
C631   C     0.18194   0.45432   0.78983   0.00000  Uiso   1.00
C632   C     0.16050   0.02396   0.74863   0.00000  Uiso   1.00
C633   C     0.16053   0.47544   0.74865   0.00000  Uiso   1.00
C634   C     0.32576   0.19558   0.70746   0.00000  Uiso   1.00
C635   C     0.20286   0.27591   0.55745   0.00000  Uiso   1.00
C636   C     0.01650   0.15457   0.72936   0.00000  Uiso   1.00
C637   C     0.00751   0.30545   0.78875   0.00000  Uiso   1.00
C638   C     0.31489   0.34515   0.76584   0.00000  Uiso   1.00
C639   C     0.05777   0.02983   0.81030   0.00000  Uiso   1.00
C640   C     0.06469   0.46749   0.66635   0.00000  Uiso   1.00
C641   C     0.23990   0.31198   0.63443   0.00000  Uiso   1.00
C642   C     0.22936   0.35945   0.61945   0.00000  Uiso   1.00
C643   C     0.09361   0.18762   0.86526   0.00000  Uiso   1.00
C644   C     0.03947   0.19953   0.87246   0.00000  Uiso   1.00
C645   C     0.09492   0.18647   0.61845   0.00000  Uiso   1.00
C646   C     0.13692   0.21747   0.94296   0.00000  Uiso   1.00
C647   C     0.10873   0.13967   0.60706   0.00000  Uiso   1.00
C648   C     0.23611   0.31537   0.88281   0.00000  Uiso   1.00
C649   C     0.29049   0.31077   0.90817   0.00000  Uiso   1.00
C650   C     0.20137   0.27795   0.60750   0.00000  Uiso   1.00
C651   C     0.13448   0.21952   0.89245   0.00000  Uiso   1.00
C652   C     0.13191   0.22177   0.60003   0.00000  Uiso   1.00
C653   C     0.19714   0.28120   0.90013   0.00000  Uiso   1.00
C654   C     0.12941   0.22394   0.54962   0.00000  Uiso   1.00
Cu655  Cu    0.16667   0.24999   0.79821   0.00000  Uiso   1.00
Cu656  Cu    0.16667   0.25000   0.70178   0.00000  Uiso   1.00
H657   H     0.12192   0.10956   0.81027   0.00000  Uiso   1.00
H658   H     0.21226   0.31146   0.96995   0.00000  Uiso   1.00
H659   H     0.05874   0.15735   0.72859   0.00000  Uiso   1.00
H660   H     0.00820   0.15045   0.76697   0.00000  Uiso   1.00
H661   H     0.33331   0.12444   0.70856   0.00000  Uiso   1.00
H662   H     0.28371   0.18808   0.70591   0.00000  Uiso   1.00
H663   H     0.00071   0.19906   0.66979   0.00000  Uiso   1.00
H664   H     0.32052   0.34732   0.72735   0.00000  Uiso   1.00
H665   H     0.27314   0.34226   0.76923   0.00000  Uiso   1.00
H666   H     0.33221   0.37633   0.78417   0.00000  Uiso   1.00
H667   H     0.00108   0.30324   0.82671   0.00000  Uiso   1.00
H668   H     0.12688   0.38485   0.67658   0.00000  Uiso   1.00
H669   H     0.04929   0.31359   0.78851   0.00000  Uiso   1.00
H670   H     0.04028   0.02893   0.77214   0.00000  Uiso   1.00
H671   H     0.05263   0.06217   0.82722   0.00000  Uiso   1.00
H672   H     0.03634   0.00355   0.82931   0.00000  Uiso   1.00
H673   H     0.05322   0.48370   0.69855   0.00000  Uiso   1.00
H674   H     0.04833   0.43226   0.66346   0.00000  Uiso   1.00
H675   H     0.04772   0.48519   0.63442   0.00000  Uiso   1.00
H676   H     0.23658   0.36547   0.58180   0.00000  Uiso   1.00
H677   H     0.18886   0.36552   0.62310   0.00000  Uiso   1.00
H678   H     0.25527   0.38351   0.64279   0.00000  Uiso   1.00
H679   H     0.20865   0.11297   0.68952   0.00000  Uiso   1.00
H680   H     0.24028   0.31094   0.67313   0.00000  Uiso   1.00
H681   H     0.27941   0.30551   0.62728   0.00000  Uiso   1.00
H682   H     0.03268   0.19589   0.91053   0.00000  Uiso   1.00
H683   H     0.03421   0.23429   0.86126   0.00000  Uiso   1.00
H684   H     0.01029   0.17707   0.85046   0.00000  Uiso   1.00
H685   H     0.09504   0.18659   0.82676   0.00000  Uiso   1.00
H686   H     0.09879   0.15327   0.87824   0.00000  Uiso   1.00
H687   H     0.10259   0.13310   0.56787   0.00000  Uiso   1.00
H688   H     0.14960   0.13563   0.62055   0.00000  Uiso   1.00
H689   H     0.08394   0.11468   0.62465   0.00000  Uiso   1.00
H690   H     0.20045   0.39283   0.82238   0.00000  Uiso   1.00
H691   H     0.09342   0.18789   0.65683   0.00000  Uiso   1.00
H692   H     0.05516   0.19091   0.60152   0.00000  Uiso   1.00
H693   H     0.29255   0.31541   0.94749   0.00000  Uiso   1.00
H694   H     0.30303   0.27744   0.90075   0.00000  Uiso   1.00
H695   H     0.31765   0.33685   0.89523   0.00000  Uiso   1.00
H696   H     0.23859   0.31361   0.84444   0.00000  Uiso   1.00
H697   H     0.22482   0.34909   0.89048   0.00000  Uiso   1.00
H698   H     0.20546   0.03171   0.68906   0.00000  Uiso   1.00
H699   H     0.19807   0.47353   0.82140   0.00000  Uiso   1.00
H700   H     0.23361   0.29527   0.54284   0.00000  Uiso   1.00
H701   H     0.11496   0.19038   0.95813   0.00000  Uiso   1.00
H702   H     0.09880   0.20408   0.52853   0.00000  Uiso   1.00
N703   N     0.16667   0.25001   0.62934   0.00000  Uiso   1.00
N704   N     0.16667   0.24999   0.87066   0.00000  Uiso   1.00
O705   O     0.16667   0.18572   0.79071   0.00000  Uiso   1.00
O706   O     0.11865   0.47064   0.66693   0.00000  Uiso   1.00
O707   O     0.16666   0.31427   0.70928   0.00000  Uiso   1.00
O708   O     0.16667   0.18573   0.70928   0.00000  Uiso   1.00
O709   O     0.16666   0.31427   0.79072   0.00000  Uiso   1.00
O710   O     0.09161   0.24999   0.78132   0.00000  Uiso   1.00
O711   O     0.24172   0.25000   0.71868   0.00000  Uiso   1.00
O712   O     0.09161   0.25000   0.69989   0.00000  Uiso   1.00
O713   O     0.24172   0.25000   0.80011   0.00000  Uiso   1.00
O714   O     0.11022   0.02118   0.81529   0.00000  Uiso   1.00
C715   C     0.50001   0.16510   0.75001   0.00000  Uiso   1.00
C716   C     0.52614   0.28341   0.94967   0.00000  Uiso   1.00
C717   C     0.49902   0.25009   0.52708   0.00000  Uiso   1.00
C718   C     0.49851   0.25017   0.97278   0.00000  Uiso   1.00
C719   C     0.40160   0.24832   0.73831   0.00000  Uiso   1.00
C720   C     0.59844   0.25115   0.76153   0.00000  Uiso   1.00
C721   C     0.34686   0.23814   0.73529   0.00000  Uiso   1.00
C722   C     0.65313   0.26161   0.76362   0.00000  Uiso   1.00
C723   C     0.46888   0.04582   0.78229   0.00000  Uiso   1.00
C724   C     0.47312   0.45018   0.70782   0.00000  Uiso   1.00
C725   C     0.47272   0.09240   0.78347   0.00000  Uiso   1.00
C726   C     0.49934   0.33489   0.74988   0.00000  Uiso   1.00
C727   C     0.47588   0.40413   0.70821   0.00000  Uiso   1.00
C728   C     0.49831   0.11670   0.74975   0.00000  Uiso   1.00
C729   C     0.49745   0.38312   0.74946   0.00000  Uiso   1.00
C730   C     0.52144   0.09456   0.71537   0.00000  Uiso   1.00
C731   C     0.51672   0.40841   0.79035   0.00000  Uiso   1.00
C732   C     0.51957   0.04841   0.71506   0.00000  Uiso   1.00
C733   C     0.51527   0.45432   0.78983   0.00000  Uiso   1.00
C734   C     0.49384   0.02396   0.74863   0.00000  Uiso   1.00
C735   C     0.49386   0.47544   0.74865   0.00000  Uiso   1.00
C736   C     0.65909   0.19558   0.70746   0.00000  Uiso   1.00
C737   C     0.53619   0.27591   0.55745   0.00000  Uiso   1.00
C738   C     0.34984   0.15457   0.72936   0.00000  Uiso   1.00
C739   C     0.34085   0.30545   0.78875   0.00000  Uiso   1.00
C740   C     0.64822   0.34515   0.76584   0.00000  Uiso   1.00
C741   C     0.39110   0.02983   0.81030   0.00000  Uiso   1.00
C742   C     0.39802   0.46749   0.66635   0.00000  Uiso   1.00
C743   C     0.57324   0.31198   0.63443   0.00000  Uiso   1.00
C744   C     0.56270   0.35945   0.61945   0.00000  Uiso   1.00
C745   C     0.42694   0.18762   0.86526   0.00000  Uiso   1.00
C746   C     0.37280   0.19953   0.87246   0.00000  Uiso   1.00
C747   C     0.42826   0.18647   0.61845   0.00000  Uiso   1.00
C748   C     0.47025   0.21747   0.94296   0.00000  Uiso   1.00
C749   C     0.44207   0.13967   0.60706   0.00000  Uiso   1.00
C750   C     0.56945   0.31537   0.88281   0.00000  Uiso   1.00
C751   C     0.62382   0.31077   0.90817   0.00000  Uiso   1.00
C752   C     0.53471   0.27795   0.60750   0.00000  Uiso   1.00
C753   C     0.46781   0.21952   0.89245   0.00000  Uiso   1.00
C754   C     0.46524   0.22177   0.60003   0.00000  Uiso   1.00
C755   C     0.53048   0.28120   0.90013   0.00000  Uiso   1.00
C756   C     0.46274   0.22394   0.54962   0.00000  Uiso   1.00
Cu757  Cu    0.50000   0.24999   0.79821   0.00000  Uiso   1.00
Cu758  Cu    0.50000   0.25000   0.70178   0.00000  Uiso   1.00
H759   H     0.45525   0.10956   0.81027   0.00000  Uiso   1.00
H760   H     0.54559   0.31146   0.96995   0.00000  Uiso   1.00
H761   H     0.39207   0.15735   0.72859   0.00000  Uiso   1.00
H762   H     0.34153   0.15045   0.76697   0.00000  Uiso   1.00
H763   H     0.66665   0.12444   0.70856   0.00000  Uiso   1.00
H764   H     0.61705   0.18808   0.70591   0.00000  Uiso   1.00
H765   H     0.33405   0.19906   0.66979   0.00000  Uiso   1.00
H766   H     0.65386   0.34732   0.72735   0.00000  Uiso   1.00
H767   H     0.60648   0.34226   0.76923   0.00000  Uiso   1.00
H768   H     0.66554   0.37633   0.78417   0.00000  Uiso   1.00
H769   H     0.33441   0.30324   0.82671   0.00000  Uiso   1.00
H770   H     0.46021   0.38485   0.67658   0.00000  Uiso   1.00
H771   H     0.38262   0.31359   0.78851   0.00000  Uiso   1.00
H772   H     0.37361   0.02893   0.77214   0.00000  Uiso   1.00
H773   H     0.38596   0.06217   0.82722   0.00000  Uiso   1.00
H774   H     0.36968   0.00355   0.82931   0.00000  Uiso   1.00
H775   H     0.38656   0.48370   0.69855   0.00000  Uiso   1.00
H776   H     0.38166   0.43226   0.66346   0.00000  Uiso   1.00
H777   H     0.38105   0.48519   0.63442   0.00000  Uiso   1.00
H778   H     0.56991   0.36547   0.58180   0.00000  Uiso   1.00
H779   H     0.52219   0.36552   0.62310   0.00000  Uiso   1.00
H780   H     0.58860   0.38351   0.64279   0.00000  Uiso   1.00
H781   H     0.54199   0.11297   0.68952   0.00000  Uiso   1.00
H782   H     0.57361   0.31094   0.67313   0.00000  Uiso   1.00
H783   H     0.61274   0.30551   0.62728   0.00000  Uiso   1.00
H784   H     0.36601   0.19589   0.91053   0.00000  Uiso   1.00
H785   H     0.36755   0.23429   0.86126   0.00000  Uiso   1.00
H786   H     0.34362   0.17707   0.85046   0.00000  Uiso   1.00
H787   H     0.42838   0.18659   0.82676   0.00000  Uiso   1.00
H788   H     0.43212   0.15327   0.87824   0.00000  Uiso   1.00
H789   H     0.43593   0.13310   0.56787   0.00000  Uiso   1.00
H790   H     0.48293   0.13563   0.62055   0.00000  Uiso   1.00
H791   H     0.41727   0.11468   0.62465   0.00000  Uiso   1.00
H792   H     0.53378   0.39283   0.82238   0.00000  Uiso   1.00
H793   H     0.42676   0.18789   0.65683   0.00000  Uiso   1.00
H794   H     0.38849   0.19091   0.60152   0.00000  Uiso   1.00
H795   H     0.62588   0.31541   0.94749   0.00000  Uiso   1.00
H796   H     0.63637   0.27744   0.90075   0.00000  Uiso   1.00
H797   H     0.65099   0.33685   0.89523   0.00000  Uiso   1.00
H798   H     0.57192   0.31361   0.84444   0.00000  Uiso   1.00
H799   H     0.55815   0.34909   0.89048   0.00000  Uiso   1.00
H800   H     0.53879   0.03171   0.68906   0.00000  Uiso   1.00
H801   H     0.53140   0.47353   0.82140   0.00000  Uiso   1.00
H802   H     0.56694   0.29527   0.54284   0.00000  Uiso   1.00
H803   H     0.44829   0.19038   0.95813   0.00000  Uiso   1.00
H804   H     0.43213   0.20408   0.52853   0.00000  Uiso   1.00
N805   N     0.50000   0.25001   0.62934   0.00000  Uiso   1.00
N806   N     0.50000   0.24999   0.87066   0.00000  Uiso   1.00
O807   O     0.50000   0.18572   0.79071   0.00000  Uiso   1.00
O808   O     0.45198   0.47064   0.66693   0.00000  Uiso   1.00
O809   O     0.50000   0.31427   0.70928   0.00000  Uiso   1.00
O810   O     0.50000   0.18573   0.70928   0.00000  Uiso   1.00
O811   O     0.50000   0.31427   0.79072   0.00000  Uiso   1.00
O812   O     0.42495   0.24999   0.78132   0.00000  Uiso   1.00
O813   O     0.57505   0.25000   0.71868   0.00000  Uiso   1.00
O814   O     0.42495   0.25000   0.69989   0.00000  Uiso   1.00
O815   O     0.57505   0.25000   0.80011   0.00000  Uiso   1.00
O816   O     0.44355   0.02118   0.81529   0.00000  Uiso   1.00
C817   C     0.83334   0.16510   0.75001   0.00000  Uiso   1.00
C818   C     0.85947   0.28341   0.94967   0.00000  Uiso   1.00
C819   C     0.83236   0.25009   0.52708   0.00000  Uiso   1.00
C820   C     0.83184   0.25017   0.97278   0.00000  Uiso   1.00
C821   C     0.73494   0.24832   0.73831   0.00000  Uiso   1.00
C822   C     0.93177   0.25115   0.76153   0.00000  Uiso   1.00
C823   C     0.68019   0.23814   0.73529   0.00000  Uiso   1.00
C824   C     0.98647   0.26161   0.76362   0.00000  Uiso   1.00
C825   C     0.80221   0.04582   0.78229   0.00000  Uiso   1.00
C826   C     0.80645   0.45018   0.70782   0.00000  Uiso   1.00
C827   C     0.80605   0.09240   0.78347   0.00000  Uiso   1.00
C828   C     0.83267   0.33489   0.74988   0.00000  Uiso   1.00
C829   C     0.80921   0.40413   0.70821   0.00000  Uiso   1.00
C830   C     0.83165   0.11670   0.74975   0.00000  Uiso   1.00
C831   C     0.83078   0.38312   0.74946   0.00000  Uiso   1.00
C832   C     0.85478   0.09456   0.71537   0.00000  Uiso   1.00
C833   C     0.85005   0.40841   0.79035   0.00000  Uiso   1.00
C834   C     0.85290   0.04841   0.71506   0.00000  Uiso   1.00
C835   C     0.84861   0.45432   0.78983   0.00000  Uiso   1.00
C836   C     0.82717   0.02396   0.74863   0.00000  Uiso   1.00
C837   C     0.82720   0.47544   0.74865   0.00000  Uiso   1.00
C838   C     0.99243   0.19558   0.70746   0.00000  Uiso   1.00
C839   C     0.86952   0.27591   0.55745   0.00000  Uiso   1.00
C840   C     0.68317   0.15457   0.72936   0.00000  Uiso   1.00
C841   C     0.67418   0.30545   0.78875   0.00000  Uiso   1.00
C842   C     0.98155   0.34515   0.76584   0.00000  Uiso   1.00
C843   C     0.72443   0.02983   0.81030   0.00000  Uiso   1.00
C844   C     0.73135   0.46749   0.66635   0.00000  Uiso   1.00
C845   C     0.90657   0.31198   0.63443   0.00000  Uiso   1.00
C846   C     0.89603   0.35945   0.61945   0.00000  Uiso   1.00
C847   C     0.76028   0.18762   0.86526   0.00000  Uiso   1.00
C848   C     0.70614   0.19953   0.87246   0.00000  Uiso   1.00
C849   C     0.76159   0.18647   0.61845   0.00000  Uiso   1.00
C850   C     0.80358   0.21747   0.94296   0.00000  Uiso   1.00
C851   C     0.77540   0.13967   0.60706   0.00000  Uiso   1.00
C852   C     0.90278   0.31537   0.88281   0.00000  Uiso   1.00
C853   C     0.95715   0.31077   0.90817   0.00000  Uiso   1.00
C854   C     0.86804   0.27795   0.60750   0.00000  Uiso   1.00
C855   C     0.80114   0.21952   0.89245   0.00000  Uiso   1.00
C856   C     0.79857   0.22177   0.60003   0.00000  Uiso   1.00
C857   C     0.86381   0.28120   0.90013   0.00000  Uiso   1.00
C858   C     0.79608   0.22394   0.54962   0.00000  Uiso   1.00
Cu859  Cu    0.83333   0.24999   0.79821   0.00000  Uiso   1.00
Cu860  Cu    0.83333   0.25000   0.70178   0.00000  Uiso   1.00
H861   H     0.78859   0.10956   0.81027   0.00000  Uiso   1.00
H862   H     0.87892   0.31146   0.96995   0.00000  Uiso   1.00
H863   H     0.72540   0.15735   0.72859   0.00000  Uiso   1.00
H864   H     0.67486   0.15045   0.76697   0.00000  Uiso   1.00
H865   H     0.99998   0.12444   0.70856   0.00000  Uiso   1.00
H866   H     0.95038   0.18808   0.70591   0.00000  Uiso   1.00
H867   H     0.66738   0.19906   0.66979   0.00000  Uiso   1.00
H868   H     0.98719   0.34732   0.72735   0.00000  Uiso   1.00
H869   H     0.93981   0.34226   0.76923   0.00000  Uiso   1.00
H870   H     0.99888   0.37633   0.78417   0.00000  Uiso   1.00
H871   H     0.66775   0.30324   0.82671   0.00000  Uiso   1.00
H872   H     0.79355   0.38485   0.67658   0.00000  Uiso   1.00
H873   H     0.71595   0.31359   0.78851   0.00000  Uiso   1.00
H874   H     0.70695   0.02893   0.77214   0.00000  Uiso   1.00
H875   H     0.71930   0.06217   0.82722   0.00000  Uiso   1.00
H876   H     0.70301   0.00355   0.82931   0.00000  Uiso   1.00
H877   H     0.71989   0.48370   0.69855   0.00000  Uiso   1.00
H878   H     0.71500   0.43226   0.66346   0.00000  Uiso   1.00
H879   H     0.71439   0.48519   0.63442   0.00000  Uiso   1.00
H880   H     0.90324   0.36547   0.58180   0.00000  Uiso   1.00
H881   H     0.85553   0.36552   0.62310   0.00000  Uiso   1.00
H882   H     0.92194   0.38351   0.64279   0.00000  Uiso   1.00
H883   H     0.87532   0.11297   0.68952   0.00000  Uiso   1.00
H884   H     0.90695   0.31094   0.67313   0.00000  Uiso   1.00
H885   H     0.94608   0.30551   0.62728   0.00000  Uiso   1.00
H886   H     0.69934   0.19589   0.91053   0.00000  Uiso   1.00
H887   H     0.70088   0.23429   0.86126   0.00000  Uiso   1.00
H888   H     0.67695   0.17707   0.85046   0.00000  Uiso   1.00
H889   H     0.76171   0.18659   0.82676   0.00000  Uiso   1.00
H890   H     0.76546   0.15327   0.87824   0.00000  Uiso   1.00
H891   H     0.76926   0.13310   0.56787   0.00000  Uiso   1.00
H892   H     0.81627   0.13563   0.62055   0.00000  Uiso   1.00
H893   H     0.75060   0.11468   0.62465   0.00000  Uiso   1.00
H894   H     0.86711   0.39283   0.82238   0.00000  Uiso   1.00
H895   H     0.76009   0.18789   0.65683   0.00000  Uiso   1.00
H896   H     0.72182   0.19091   0.60152   0.00000  Uiso   1.00
H897   H     0.95922   0.31541   0.94749   0.00000  Uiso   1.00
H898   H     0.96970   0.27744   0.90075   0.00000  Uiso   1.00
H899   H     0.98432   0.33685   0.89523   0.00000  Uiso   1.00
H900   H     0.90526   0.31361   0.84444   0.00000  Uiso   1.00
H901   H     0.89149   0.34909   0.89048   0.00000  Uiso   1.00
H902   H     0.87213   0.03171   0.68906   0.00000  Uiso   1.00
H903   H     0.86474   0.47353   0.82140   0.00000  Uiso   1.00
H904   H     0.90028   0.29527   0.54284   0.00000  Uiso   1.00
H905   H     0.78162   0.19038   0.95813   0.00000  Uiso   1.00
H906   H     0.76547   0.20408   0.52853   0.00000  Uiso   1.00
N907   N     0.83333   0.25001   0.62934   0.00000  Uiso   1.00
N908   N     0.83333   0.24999   0.87066   0.00000  Uiso   1.00
O909   O     0.83334   0.18572   0.79071   0.00000  Uiso   1.00
O910   O     0.78532   0.47064   0.66693   0.00000  Uiso   1.00
O911   O     0.83333   0.31427   0.70928   0.00000  Uiso   1.00
O912   O     0.83334   0.18573   0.70928   0.00000  Uiso   1.00
O913   O     0.83333   0.31427   0.79072   0.00000  Uiso   1.00
O914   O     0.75828   0.24999   0.78132   0.00000  Uiso   1.00
O915   O     0.90839   0.25000   0.71868   0.00000  Uiso   1.00
O916   O     0.75828   0.25000   0.69989   0.00000  Uiso   1.00
O917   O     0.90839   0.25000   0.80011   0.00000  Uiso   1.00
O918   O     0.77688   0.02118   0.81529   0.00000  Uiso   1.00
C919   C     0.16667   0.66510   0.75001   0.00000  Uiso   1.00
C920   C     0.19280   0.78341   0.94967   0.00000  Uiso   1.00
C921   C     0.16569   0.75009   0.52708   0.00000  Uiso   1.00
C922   C     0.16517   0.75017   0.97278   0.00000  Uiso   1.00
C923   C     0.06827   0.74832   0.73831   0.00000  Uiso   1.00
C924   C     0.26510   0.75115   0.76153   0.00000  Uiso   1.00
C925   C     0.01352   0.73814   0.73529   0.00000  Uiso   1.00
C926   C     0.31980   0.76161   0.76362   0.00000  Uiso   1.00
C927   C     0.13555   0.54582   0.78229   0.00000  Uiso   1.00
C928   C     0.13979   0.95018   0.70782   0.00000  Uiso   1.00
C929   C     0.13938   0.59240   0.78347   0.00000  Uiso   1.00
C930   C     0.16601   0.83489   0.74988   0.00000  Uiso   1.00
C931   C     0.14255   0.90413   0.70821   0.00000  Uiso   1.00
C932   C     0.16498   0.61670   0.74975   0.00000  Uiso   1.00
C933   C     0.16412   0.88312   0.74946   0.00000  Uiso   1.00
C934   C     0.18811   0.59456   0.71537   0.00000  Uiso   1.00
C935   C     0.18339   0.90841   0.79035   0.00000  Uiso   1.00
C936   C     0.18623   0.54841   0.71506   0.00000  Uiso   1.00
C937   C     0.18194   0.95432   0.78983   0.00000  Uiso   1.00
C938   C     0.16050   0.52396   0.74863   0.00000  Uiso   1.00
C939   C     0.16053   0.97544   0.74865   0.00000  Uiso   1.00
C940   C     0.32576   0.69558   0.70746   0.00000  Uiso   1.00
C941   C     0.20286   0.77591   0.55745   0.00000  Uiso   1.00
C942   C     0.01650   0.65457   0.72936   0.00000  Uiso   1.00
C943   C     0.00751   0.80545   0.78875   0.00000  Uiso   1.00
C944   C     0.31489   0.84515   0.76584   0.00000  Uiso   1.00
C945   C     0.05777   0.52983   0.81030   0.00000  Uiso   1.00
C946   C     0.06469   0.96749   0.66635   0.00000  Uiso   1.00
C947   C     0.23990   0.81198   0.63443   0.00000  Uiso   1.00
C948   C     0.22936   0.85945   0.61945   0.00000  Uiso   1.00
C949   C     0.09361   0.68762   0.86526   0.00000  Uiso   1.00
C950   C     0.03947   0.69953   0.87246   0.00000  Uiso   1.00
C951   C     0.09492   0.68647   0.61845   0.00000  Uiso   1.00
C952   C     0.13692   0.71747   0.94296   0.00000  Uiso   1.00
C953   C     0.10873   0.63967   0.60706   0.00000  Uiso   1.00
C954   C     0.23611   0.81537   0.88281   0.00000  Uiso   1.00
C955   C     0.29049   0.81077   0.90817   0.00000  Uiso   1.00
C956   C     0.20137   0.77795   0.60750   0.00000  Uiso   1.00
C957   C     0.13448   0.71952   0.89245   0.00000  Uiso   1.00
C958   C     0.13191   0.72177   0.60003   0.00000  Uiso   1.00
C959   C     0.19714   0.78120   0.90013   0.00000  Uiso   1.00
C960   C     0.12941   0.72394   0.54962   0.00000  Uiso   1.00
Cu961  Cu    0.16667   0.74999   0.79821   0.00000  Uiso   1.00
Cu962  Cu    0.16667   0.75000   0.70178   0.00000  Uiso   1.00
H963   H     0.12192   0.60956   0.81027   0.00000  Uiso   1.00
H964   H     0.21226   0.81146   0.96995   0.00000  Uiso   1.00
H965   H     0.05874   0.65735   0.72859   0.00000  Uiso   1.00
H966   H     0.00820   0.65045   0.76697   0.00000  Uiso   1.00
H967   H     0.33331   0.62444   0.70856   0.00000  Uiso   1.00
H968   H     0.28371   0.68808   0.70591   0.00000  Uiso   1.00
H969   H     0.00071   0.69906   0.66979   0.00000  Uiso   1.00
H970   H     0.32052   0.84732   0.72735   0.00000  Uiso   1.00
H971   H     0.27314   0.84226   0.76923   0.00000  Uiso   1.00
H972   H     0.33221   0.87633   0.78417   0.00000  Uiso   1.00
H973   H     0.00108   0.80324   0.82671   0.00000  Uiso   1.00
H974   H     0.12688   0.88485   0.67658   0.00000  Uiso   1.00
H975   H     0.04929   0.81359   0.78851   0.00000  Uiso   1.00
H976   H     0.04028   0.52893   0.77214   0.00000  Uiso   1.00
H977   H     0.05263   0.56217   0.82722   0.00000  Uiso   1.00
H978   H     0.03634   0.50355   0.82931   0.00000  Uiso   1.00
H979   H     0.05322   0.98370   0.69855   0.00000  Uiso   1.00
H980   H     0.04833   0.93226   0.66346   0.00000  Uiso   1.00
H981   H     0.04772   0.98519   0.63442   0.00000  Uiso   1.00
H982   H     0.23658   0.86547   0.58180   0.00000  Uiso   1.00
H983   H     0.18886   0.86552   0.62310   0.00000  Uiso   1.00
H984   H     0.25527   0.88351   0.64279   0.00000  Uiso   1.00
H985   H     0.20865   0.61297   0.68952   0.00000  Uiso   1.00
H986   H     0.24028   0.81094   0.67313   0.00000  Uiso   1.00
H987   H     0.27941   0.80551   0.62728   0.00000  Uiso   1.00
H988   H     0.03268   0.69589   0.91053   0.00000  Uiso   1.00
H989   H     0.03421   0.73429   0.86126   0.00000  Uiso   1.00
H990   H     0.01029   0.67707   0.85046   0.00000  Uiso   1.00
H991   H     0.09504   0.68659   0.82676   0.00000  Uiso   1.00
H992   H     0.09879   0.65327   0.87824   0.00000  Uiso   1.00
H993   H     0.10259   0.63310   0.56787   0.00000  Uiso   1.00
H994   H     0.14960   0.63563   0.62055   0.00000  Uiso   1.00
H995   H     0.08394   0.61468   0.62465   0.00000  Uiso   1.00
H996   H     0.20045   0.89283   0.82238   0.00000  Uiso   1.00
H997   H     0.09342   0.68789   0.65683   0.00000  Uiso   1.00
H998   H     0.05516   0.69091   0.60152   0.00000  Uiso   1.00
H999   H     0.29255   0.81541   0.94749   0.00000  Uiso   1.00
H1000  H     0.30303   0.77744   0.90075   0.00000  Uiso   1.00
H1001  H     0.31765   0.83685   0.89523   0.00000  Uiso   1.00
H1002  H     0.23859   0.81361   0.84444   0.00000  Uiso   1.00
H1003  H     0.22482   0.84909   0.89048   0.00000  Uiso   1.00
H1004  H     0.20546   0.53171   0.68906   0.00000  Uiso   1.00
H1005  H     0.19807   0.97353   0.82140   0.00000  Uiso   1.00
H1006  H     0.23361   0.79527   0.54284   0.00000  Uiso   1.00
H1007  H     0.11496   0.69038   0.95813   0.00000  Uiso   1.00
H1008  H     0.09880   0.70408   0.52853   0.00000  Uiso   1.00
N1009  N     0.16667   0.75001   0.62934   0.00000  Uiso   1.00
N1010  N     0.16667   0.74999   0.87066   0.00000  Uiso   1.00
O1011  O     0.16667   0.68572   0.79071   0.00000  Uiso   1.00
O1012  O     0.11865   0.97064   0.66693   0.00000  Uiso   1.00
O1013  O     0.16666   0.81427   0.70928   0.00000  Uiso   1.00
O1014  O     0.16667   0.68573   0.70928   0.00000  Uiso   1.00
O1015  O     0.16666   0.81427   0.79072   0.00000  Uiso   1.00
O1016  O     0.09161   0.74999   0.78132   0.00000  Uiso   1.00
O1017  O     0.24172   0.75000   0.71868   0.00000  Uiso   1.00
O1018  O     0.09161   0.75000   0.69989   0.00000  Uiso   1.00
O1019  O     0.24172   0.75000   0.80011   0.00000  Uiso   1.00
O1020  O     0.11022   0.52118   0.81529   0.00000  Uiso   1.00
C1021  C     0.50001   0.66510   0.75001   0.00000  Uiso   1.00
C1022  C     0.52614   0.78341   0.94967   0.00000  Uiso   1.00
C1023  C     0.49902   0.75009   0.52708   0.00000  Uiso   1.00
C1024  C     0.49851   0.75017   0.97278   0.00000  Uiso   1.00
C1025  C     0.40160   0.74832   0.73831   0.00000  Uiso   1.00
C1026  C     0.59844   0.75115   0.76153   0.00000  Uiso   1.00
C1027  C     0.34686   0.73814   0.73529   0.00000  Uiso   1.00
C1028  C     0.65313   0.76161   0.76362   0.00000  Uiso   1.00
C1029  C     0.46888   0.54582   0.78229   0.00000  Uiso   1.00
C1030  C     0.47312   0.95018   0.70782   0.00000  Uiso   1.00
C1031  C     0.47272   0.59240   0.78347   0.00000  Uiso   1.00
C1032  C     0.49934   0.83489   0.74988   0.00000  Uiso   1.00
C1033  C     0.47588   0.90413   0.70821   0.00000  Uiso   1.00
C1034  C     0.49831   0.61670   0.74975   0.00000  Uiso   1.00
C1035  C     0.49745   0.88312   0.74946   0.00000  Uiso   1.00
C1036  C     0.52144   0.59456   0.71537   0.00000  Uiso   1.00
C1037  C     0.51672   0.90841   0.79035   0.00000  Uiso   1.00
C1038  C     0.51957   0.54841   0.71506   0.00000  Uiso   1.00
C1039  C     0.51527   0.95432   0.78983   0.00000  Uiso   1.00
C1040  C     0.49384   0.52396   0.74863   0.00000  Uiso   1.00
C1041  C     0.49386   0.97544   0.74865   0.00000  Uiso   1.00
C1042  C     0.65909   0.69558   0.70746   0.00000  Uiso   1.00
C1043  C     0.53619   0.77591   0.55745   0.00000  Uiso   1.00
C1044  C     0.34984   0.65457   0.72936   0.00000  Uiso   1.00
C1045  C     0.34085   0.80545   0.78875   0.00000  Uiso   1.00
C1046  C     0.64822   0.84515   0.76584   0.00000  Uiso   1.00
C1047  C     0.39110   0.52983   0.81030   0.00000  Uiso   1.00
C1048  C     0.39802   0.96749   0.66635   0.00000  Uiso   1.00
C1049  C     0.57324   0.81198   0.63443   0.00000  Uiso   1.00
C1050  C     0.56270   0.85945   0.61945   0.00000  Uiso   1.00
C1051  C     0.42694   0.68762   0.86526   0.00000  Uiso   1.00
C1052  C     0.37280   0.69953   0.87246   0.00000  Uiso   1.00
C1053  C     0.42826   0.68647   0.61845   0.00000  Uiso   1.00
C1054  C     0.47025   0.71747   0.94296   0.00000  Uiso   1.00
C1055  C     0.44207   0.63967   0.60706   0.00000  Uiso   1.00
C1056  C     0.56945   0.81537   0.88281   0.00000  Uiso   1.00
C1057  C     0.62382   0.81077   0.90817   0.00000  Uiso   1.00
C1058  C     0.53471   0.77795   0.60750   0.00000  Uiso   1.00
C1059  C     0.46781   0.71952   0.89245   0.00000  Uiso   1.00
C1060  C     0.46524   0.72177   0.60003   0.00000  Uiso   1.00
C1061  C     0.53048   0.78120   0.90013   0.00000  Uiso   1.00
C1062  C     0.46274   0.72394   0.54962   0.00000  Uiso   1.00
Cu1063 Cu    0.50000   0.74999   0.79821   0.00000  Uiso   1.00
Cu1064 Cu    0.50000   0.75000   0.70178   0.00000  Uiso   1.00
H1065  H     0.45525   0.60956   0.81027   0.00000  Uiso   1.00
H1066  H     0.54559   0.81146   0.96995   0.00000  Uiso   1.00
H1067  H     0.39207   0.65735   0.72859   0.00000  Uiso   1.00
H1068  H     0.34153   0.65045   0.76697   0.00000  Uiso   1.00
H1069  H     0.66665   0.62444   0.70856   0.00000  Uiso   1.00
H1070  H     0.61705   0.68808   0.70591   0.00000  Uiso   1.00
H1071  H     0.33405   0.69906   0.66979   0.00000  Uiso   1.00
H1072  H     0.65386   0.84732   0.72735   0.00000  Uiso   1.00
H1073  H     0.60648   0.84226   0.76923   0.00000  Uiso   1.00
H1074  H     0.66554   0.87633   0.78417   0.00000  Uiso   1.00
H1075  H     0.33441   0.80324   0.82671   0.00000  Uiso   1.00
H1076  H     0.46021   0.88485   0.67658   0.00000  Uiso   1.00
H1077  H     0.38262   0.81359   0.78851   0.00000  Uiso   1.00
H1078  H     0.37361   0.52893   0.77214   0.00000  Uiso   1.00
H1079  H     0.38596   0.56217   0.82722   0.00000  Uiso   1.00
H1080  H     0.36968   0.50355   0.82931   0.00000  Uiso   1.00
H1081  H     0.38656   0.98370   0.69855   0.00000  Uiso   1.00
H1082  H     0.38166   0.93226   0.66346   0.00000  Uiso   1.00
H1083  H     0.38105   0.98519   0.63442   0.00000  Uiso   1.00
H1084  H     0.56991   0.86547   0.58180   0.00000  Uiso   1.00
H1085  H     0.52219   0.86552   0.62310   0.00000  Uiso   1.00
H1086  H     0.58860   0.88351   0.64279   0.00000  Uiso   1.00
H1087  H     0.54199   0.61297   0.68952   0.00000  Uiso   1.00
H1088  H     0.57361   0.81094   0.67313   0.00000  Uiso   1.00
H1089  H     0.61274   0.80551   0.62728   0.00000  Uiso   1.00
H1090  H     0.36601   0.69589   0.91053   0.00000  Uiso   1.00
H1091  H     0.36755   0.73429   0.86126   0.00000  Uiso   1.00
H1092  H     0.34362   0.67707   0.85046   0.00000  Uiso   1.00
H1093  H     0.42838   0.68659   0.82676   0.00000  Uiso   1.00
H1094  H     0.43212   0.65327   0.87824   0.00000  Uiso   1.00
H1095  H     0.43593   0.63310   0.56787   0.00000  Uiso   1.00
H1096  H     0.48293   0.63563   0.62055   0.00000  Uiso   1.00
H1097  H     0.41727   0.61468   0.62465   0.00000  Uiso   1.00
H1098  H     0.53378   0.89283   0.82238   0.00000  Uiso   1.00
H1099  H     0.42676   0.68789   0.65683   0.00000  Uiso   1.00
H1100  H     0.38849   0.69091   0.60152   0.00000  Uiso   1.00
H1101  H     0.62588   0.81541   0.94749   0.00000  Uiso   1.00
H1102  H     0.63637   0.77744   0.90075   0.00000  Uiso   1.00
H1103  H     0.65099   0.83685   0.89523   0.00000  Uiso   1.00
H1104  H     0.57192   0.81361   0.84444   0.00000  Uiso   1.00
H1105  H     0.55815   0.84909   0.89048   0.00000  Uiso   1.00
H1106  H     0.53879   0.53171   0.68906   0.00000  Uiso   1.00
H1107  H     0.53140   0.97353   0.82140   0.00000  Uiso   1.00
H1108  H     0.56694   0.79527   0.54284   0.00000  Uiso   1.00
H1109  H     0.44829   0.69038   0.95813   0.00000  Uiso   1.00
H1110  H     0.43213   0.70408   0.52853   0.00000  Uiso   1.00
N1111  N     0.50000   0.75001   0.62934   0.00000  Uiso   1.00
N1112  N     0.50000   0.74999   0.87066   0.00000  Uiso   1.00
O1113  O     0.50000   0.68572   0.79071   0.00000  Uiso   1.00
O1114  O     0.45198   0.97064   0.66693   0.00000  Uiso   1.00
O1115  O     0.50000   0.81427   0.70928   0.00000  Uiso   1.00
O1116  O     0.50000   0.68573   0.70928   0.00000  Uiso   1.00
O1117  O     0.50000   0.81427   0.79072   0.00000  Uiso   1.00
O1118  O     0.42495   0.74999   0.78132   0.00000  Uiso   1.00
O1119  O     0.57505   0.75000   0.71868   0.00000  Uiso   1.00
O1120  O     0.42495   0.75000   0.69989   0.00000  Uiso   1.00
O1121  O     0.57505   0.75000   0.80011   0.00000  Uiso   1.00
O1122  O     0.44355   0.52118   0.81529   0.00000  Uiso   1.00
C1123  C     0.83334   0.66510   0.75001   0.00000  Uiso   1.00
C1124  C     0.85947   0.78341   0.94967   0.00000  Uiso   1.00
C1125  C     0.83236   0.75009   0.52708   0.00000  Uiso   1.00
C1126  C     0.83184   0.75017   0.97278   0.00000  Uiso   1.00
C1127  C     0.73494   0.74832   0.73831   0.00000  Uiso   1.00
C1128  C     0.93177   0.75115   0.76153   0.00000  Uiso   1.00
C1129  C     0.68019   0.73814   0.73529   0.00000  Uiso   1.00
C1130  C     0.98647   0.76161   0.76362   0.00000  Uiso   1.00
C1131  C     0.80221   0.54582   0.78229   0.00000  Uiso   1.00
C1132  C     0.80645   0.95018   0.70782   0.00000  Uiso   1.00
C1133  C     0.80605   0.59240   0.78347   0.00000  Uiso   1.00
C1134  C     0.83267   0.83489   0.74988   0.00000  Uiso   1.00
C1135  C     0.80921   0.90413   0.70821   0.00000  Uiso   1.00
C1136  C     0.83165   0.61670   0.74975   0.00000  Uiso   1.00
C1137  C     0.83078   0.88312   0.74946   0.00000  Uiso   1.00
C1138  C     0.85478   0.59456   0.71537   0.00000  Uiso   1.00
C1139  C     0.85005   0.90841   0.79035   0.00000  Uiso   1.00
C1140  C     0.85290   0.54841   0.71506   0.00000  Uiso   1.00
C1141  C     0.84861   0.95432   0.78983   0.00000  Uiso   1.00
C1142  C     0.82717   0.52396   0.74863   0.00000  Uiso   1.00
C1143  C     0.82720   0.97544   0.74865   0.00000  Uiso   1.00
C1144  C     0.99243   0.69558   0.70746   0.00000  Uiso   1.00
C1145  C     0.86952   0.77591   0.55745   0.00000  Uiso   1.00
C1146  C     0.68317   0.65457   0.72936   0.00000  Uiso   1.00
C1147  C     0.67418   0.80545   0.78875   0.00000  Uiso   1.00
C1148  C     0.98155   0.84515   0.76584   0.00000  Uiso   1.00
C1149  C     0.72443   0.52983   0.81030   0.00000  Uiso   1.00
C1150  C     0.73135   0.96749   0.66635   0.00000  Uiso   1.00
C1151  C     0.90657   0.81198   0.63443   0.00000  Uiso   1.00
C1152  C     0.89603   0.85945   0.61945   0.00000  Uiso   1.00
C1153  C     0.76028   0.68762   0.86526   0.00000  Uiso   1.00
C1154  C     0.70614   0.69953   0.87246   0.00000  Uiso   1.00
C1155  C     0.76159   0.68647   0.61845   0.00000  Uiso   1.00
C1156  C     0.80358   0.71747   0.94296   0.00000  Uiso   1.00
C1157  C     0.77540   0.63967   0.60706   0.00000  Uiso   1.00
C1158  C     0.90278   0.81537   0.88281   0.00000  Uiso   1.00
C1159  C     0.95715   0.81077   0.90817   0.00000  Uiso   1.00
C1160  C     0.86804   0.77795   0.60750   0.00000  Uiso   1.00
C1161  C     0.80114   0.71952   0.89245   0.00000  Uiso   1.00
C1162  C     0.79857   0.72177   0.60003   0.00000  Uiso   1.00
C1163  C     0.86381   0.78120   0.90013   0.00000  Uiso   1.00
C1164  C     0.79608   0.72394   0.54962   0.00000  Uiso   1.00
Cu1165 Cu    0.83333   0.74999   0.79821   0.00000  Uiso   1.00
Cu1166 Cu    0.83333   0.75000   0.70178   0.00000  Uiso   1.00
H1167  H     0.78859   0.60956   0.81027   0.00000  Uiso   1.00
H1168  H     0.87892   0.81146   0.96995   0.00000  Uiso   1.00
H1169  H     0.72540   0.65735   0.72859   0.00000  Uiso   1.00
H1170  H     0.67486   0.65045   0.76697   0.00000  Uiso   1.00
H1171  H     0.99998   0.62444   0.70856   0.00000  Uiso   1.00
H1172  H     0.95038   0.68808   0.70591   0.00000  Uiso   1.00
H1173  H     0.66738   0.69906   0.66979   0.00000  Uiso   1.00
H1174  H     0.98719   0.84732   0.72735   0.00000  Uiso   1.00
H1175  H     0.93981   0.84226   0.76923   0.00000  Uiso   1.00
H1176  H     0.99888   0.87633   0.78417   0.00000  Uiso   1.00
H1177  H     0.66775   0.80324   0.82671   0.00000  Uiso   1.00
H1178  H     0.79355   0.88485   0.67658   0.00000  Uiso   1.00
H1179  H     0.71595   0.81359   0.78851   0.00000  Uiso   1.00
H1180  H     0.70695   0.52893   0.77214   0.00000  Uiso   1.00
H1181  H     0.71930   0.56217   0.82722   0.00000  Uiso   1.00
H1182  H     0.70301   0.50355   0.82931   0.00000  Uiso   1.00
H1183  H     0.71989   0.98370   0.69855   0.00000  Uiso   1.00
H1184  H     0.71500   0.93226   0.66346   0.00000  Uiso   1.00
H1185  H     0.71439   0.98519   0.63442   0.00000  Uiso   1.00
H1186  H     0.90324   0.86547   0.58180   0.00000  Uiso   1.00
H1187  H     0.85553   0.86552   0.62310   0.00000  Uiso   1.00
H1188  H     0.92194   0.88351   0.64279   0.00000  Uiso   1.00
H1189  H     0.87532   0.61297   0.68952   0.00000  Uiso   1.00
H1190  H     0.90695   0.81094   0.67313   0.00000  Uiso   1.00
H1191  H     0.94608   0.80551   0.62728   0.00000  Uiso   1.00
H1192  H     0.69934   0.69589   0.91053   0.00000  Uiso   1.00
H1193  H     0.70088   0.73429   0.86126   0.00000  Uiso   1.00
H1194  H     0.67695   0.67707   0.85046   0.00000  Uiso   1.00
H1195  H     0.76171   0.68659   0.82676   0.00000  Uiso   1.00
H1196  H     0.76546   0.65327   0.87824   0.00000  Uiso   1.00
H1197  H     0.76926   0.63310   0.56787   0.00000  Uiso   1.00
H1198  H     0.81627   0.63563   0.62055   0.00000  Uiso   1.00
H1199  H     0.75060   0.61468   0.62465   0.00000  Uiso   1.00
H1200  H     0.86711   0.89283   0.82238   0.00000  Uiso   1.00
H1201  H     0.76009   0.68789   0.65683   0.00000  Uiso   1.00
H1202  H     0.72182   0.69091   0.60152   0.00000  Uiso   1.00
H1203  H     0.95922   0.81541   0.94749   0.00000  Uiso   1.00
H1204  H     0.96970   0.77744   0.90075   0.00000  Uiso   1.00
H1205  H     0.98432   0.83685   0.89523   0.00000  Uiso   1.00
H1206  H     0.90526   0.81361   0.84444   0.00000  Uiso   1.00
H1207  H     0.89149   0.84909   0.89048   0.00000  Uiso   1.00
H1208  H     0.87213   0.53171   0.68906   0.00000  Uiso   1.00
H1209  H     0.86474   0.97353   0.82140   0.00000  Uiso   1.00
H1210  H     0.90028   0.79527   0.54284   0.00000  Uiso   1.00
H1211  H     0.78162   0.69038   0.95813   0.00000  Uiso   1.00
H1212  H     0.76547   0.70408   0.52853   0.00000  Uiso   1.00
N1213  N     0.83333   0.75001   0.62934   0.00000  Uiso   1.00
N1214  N     0.83333   0.74999   0.87066   0.00000  Uiso   1.00
O1215  O     0.83334   0.68572   0.79071   0.00000  Uiso   1.00
O1216  O     0.78532   0.97064   0.66693   0.00000  Uiso   1.00
O1217  O     0.83333   0.81427   0.70928   0.00000  Uiso   1.00
O1218  O     0.83334   0.68573   0.70928   0.00000  Uiso   1.00
O1219  O     0.83333   0.81427   0.79072   0.00000  Uiso   1.00
O1220  O     0.75828   0.74999   0.78132   0.00000  Uiso   1.00
O1221  O     0.90839   0.75000   0.71868   0.00000  Uiso   1.00
O1222  O     0.75828   0.75000   0.69989   0.00000  Uiso   1.00
O1223  O     0.90839   0.75000   0.80011   0.00000  Uiso   1.00
O1224  O     0.77688   0.52118   0.81529   0.00000  Uiso   1.00
loop_
_geom_bond_atom_site_label_1
_geom_bond_atom_site_label_2
_geom_bond_distance
_geom_bond_site_symmetry_2
_ccdc_geom_bond_type
C1     O93     1.304   .     A
C1     O96     1.303   .     A
C1     C14     1.457   .     S
C2     H46     1.079   .     S
C2     C41     1.413   .     A
C2     C4      1.396   .     A
C3     C42     1.398   .     A
C3     C23     1.402   .     A
C3     C616    1.525   1_554 S
C4     C34     1.400   .     A
C4     C615    1.525   .     S
C5     O100    1.304   .     A
C5     C7      1.437   .     S
C5     O98     1.287   .     A
C6     O101    1.309   .     A
C6     C8      1.439   .     S
C6     O99     1.284   .     A
C7     C212    1.363   1_455 S
C7     C226    1.533   1_455 S
C8     C109    1.363   .     S
C8     C127    1.531   .     S
C9     O102    1.387   .     S
C9     C20     1.407   .     A
C9     C11     1.401   .     A
C10    O94     1.382   .     S
C10    C21     1.407   .     A
C10    C13     1.397   .     A
C11    C14     1.400   .     A
C11    H45     1.081   .     S
C12    O95     1.303   .     A
C12    C15     1.460   .     S
C12    O97     1.304   .     A
C13    H56     1.083   .     S
C13    C15     1.402   .     A
C14    C16     1.399   .     A
C15    C17     1.400   .     A
C16    H67     1.083   .     S
C16    C18     1.389   .     A
C17    C19     1.389   .     A
C17    H78     1.081   .     S
C18    H86     1.083   .     S
C18    C20     1.401   .     A
C19    C21     1.400   .     A
C19    H87     1.084   .     S
C20    C327    1.464   1_545 S
C21    C326    1.464   .     S
C22    H50     1.104   .     S
C22    C109    1.533   .     S
C22    C126    1.529   .     S
C22    H153    1.110   .     S
C23    H88     1.079   .     S
C23    C38     1.414   .     A
C24    H48     1.110   .     S
C24    H47     1.108   .     S
C24    C226    1.529   1_455 S
C24    H253    1.111   1_455 S
C25    H57     1.105   .     S
C25    H55     1.102   .     S
C25    C212    1.531   1_455 S
C25    C230    1.529   1_455 S
C26    H54     1.111   .     S
C26    H52     1.111   .     S
C26    H53     1.107   .     S
C26    C127    1.529   .     S
C27    H60     1.109   .     S
C27    O102    1.412   .     S
C27    H59     1.111   .     S
C27    H58     1.114   .     S
C28    O94     1.410   .     S
C28    H61     1.113   .     S
C28    H63     1.109   .     S
C28    H62     1.113   .     S
C29    C38     1.517   .     S
C29    H69     1.112   .     S
C29    C30     1.530   .     S
C29    H68     1.087   .     S
C30    H64     1.110   .     S
C30    H66     1.111   .     S
C30    H65     1.110   .     S
C31    H73     1.088   .     S
C31    H74     1.112   .     S
C31    C32     1.530   .     S
C31    C39     1.516   .     S
C32    H72     1.110   .     S
C32    H71     1.109   .     S
C32    H70     1.110   .     S
C33    C35     1.529   .     S
C33    C40     1.516   .     S
C33    H79     1.086   .     S
C33    H80     1.112   .     S
C34    C39     1.415   .     A
C34    H89     1.079   .     S
C35    H75     1.110   .     S
C35    H76     1.110   .     S
C35    H77     1.111   .     S
C36    C37     1.533   .     S
C36    H84     1.090   .     S
C36    C41     1.515   .     S
C36    H85     1.111   .     S
C37    H81     1.109   .     S
C37    H82     1.111   .     S
C37    H83     1.110   .     S
C38    N91     1.388   .     A
C39    N92     1.390   .     A
C40    C42     1.413   .     A
C40    N91     1.390   .     A
C41    N92     1.391   .     A
C42    H90     1.079   .     S
Cu43   O98     1.969   .     S
Cu43   Cu44    2.711   .     S
Cu43   O101    1.964   .     S
Cu43   O97     1.950   .     S
Cu43   N92     2.037   .     S
Cu43   O93     1.951   .     S
Cu44   O99     1.969   .     S
Cu44   O96     1.950   .     S
Cu44   N91     2.037   .     S
Cu44   O95     1.951   .     S
Cu44   O100    1.964   .     S
H49    C126    1.111   .     S
H51    C226    1.110   1_455 S
C103   O195    1.304   .     A
C103   O198    1.303   .     A
C103   C116    1.457   .     S
C104   H148    1.079   .     S
C104   C143    1.413   .     A
C104   C106    1.396   .     A
C105   C144    1.398   .     A
C105   C125    1.402   .     A
C105   C718    1.525   1_554 S
C106   C136    1.400   .     A
C106   C717    1.525   .     S
C107   O202    1.304   .     A
C107   C109    1.437   .     S
C107   O200    1.287   .     A
C108   O203    1.309   .     A
C108   C110    1.439   .     S
C108   O201    1.284   .     A
C110   C211    1.363   .     S
C110   C229    1.531   .     S
C111   O204    1.387   .     S
C111   C122    1.407   .     A
C111   C113    1.401   .     A
C112   O196    1.382   .     S
C112   C123    1.407   .     A
C112   C115    1.397   .     A
C113   C116    1.400   .     A
C113   H147    1.081   .     S
C114   O197    1.303   .     A
C114   C117    1.460   .     S
C114   O199    1.304   .     A
C115   H158    1.083   .     S
C115   C117    1.402   .     A
C116   C118    1.399   .     A
C117   C119    1.400   .     A
C118   H169    1.083   .     S
C118   C120    1.389   .     A
C119   C121    1.389   .     A
C119   H180    1.081   .     S
C120   H188    1.083   .     S
C120   C122    1.401   .     A
C121   C123    1.400   .     A
C121   H189    1.084   .     S
C122   C429    1.464   1_545 S
C123   C428    1.464   .     S
C124   H152    1.104   .     S
C124   C211    1.533   .     S
C124   C228    1.529   .     S
C124   H255    1.110   .     S
C125   H190    1.079   .     S
C125   C140    1.414   .     A
C126   H150    1.110   .     S
C126   H149    1.108   .     S
C127   H159    1.105   .     S
C127   H157    1.102   .     S
C128   H156    1.111   .     S
C128   H154    1.111   .     S
C128   H155    1.107   .     S
C128   C229    1.529   .     S
C129   H162    1.109   .     S
C129   O204    1.412   .     S
C129   H161    1.111   .     S
C129   H160    1.114   .     S
C130   O196    1.410   .     S
C130   H163    1.113   .     S
C130   H165    1.109   .     S
C130   H164    1.113   .     S
C131   C140    1.517   .     S
C131   H171    1.112   .     S
C131   C132    1.530   .     S
C131   H170    1.087   .     S
C132   H166    1.110   .     S
C132   H168    1.111   .     S
C132   H167    1.110   .     S
C133   H175    1.088   .     S
C133   H176    1.112   .     S
C133   C134    1.530   .     S
C133   C141    1.516   .     S
C134   H174    1.110   .     S
C134   H173    1.109   .     S
C134   H172    1.110   .     S
C135   C137    1.529   .     S
C135   C142    1.516   .     S
C135   H181    1.086   .     S
C135   H182    1.112   .     S
C136   C141    1.415   .     A
C136   H191    1.079   .     S
C137   H177    1.110   .     S
C137   H178    1.110   .     S
C137   H179    1.111   .     S
C138   C139    1.533   .     S
C138   H186    1.090   .     S
C138   C143    1.515   .     S
C138   H187    1.111   .     S
C139   H183    1.109   .     S
C139   H184    1.111   .     S
C139   H185    1.110   .     S
C140   N193    1.388   .     A
C141   N194    1.390   .     A
C142   C144    1.413   .     A
C142   N193    1.390   .     A
C143   N194    1.391   .     A
C144   H192    1.079   .     S
Cu145  O200    1.969   .     S
Cu145  Cu146   2.711   .     S
Cu145  O203    1.964   .     S
Cu145  O199    1.950   .     S
Cu145  N194    2.037   .     S
Cu145  O195    1.951   .     S
Cu146  O201    1.969   .     S
Cu146  O198    1.950   .     S
Cu146  N193    2.037   .     S
Cu146  O197    1.951   .     S
Cu146  O202    1.964   .     S
H151   C228    1.111   .     S
C205   O297    1.304   .     A
C205   O300    1.303   .     A
C205   C218    1.457   .     S
C206   H250    1.079   .     S
C206   C245    1.413   .     A
C206   C208    1.396   .     A
C207   C246    1.398   .     A
C207   C227    1.402   .     A
C207   C820    1.525   1_554 S
C208   C238    1.400   .     A
C208   C819    1.525   .     S
C209   O304    1.304   .     A
C209   C211    1.437   .     S
C209   O302    1.287   .     A
C210   O305    1.309   .     A
C210   C212    1.439   .     S
C210   O303    1.284   .     A
C212   C7      1.363   1_655 S
C212   C25     1.531   1_655 S
C213   O306    1.387   .     S
C213   C224    1.407   .     A
C213   C215    1.401   .     A
C214   O298    1.382   .     S
C214   C225    1.407   .     A
C214   C217    1.397   .     A
C215   C218    1.400   .     A
C215   H249    1.081   .     S
C216   O299    1.303   .     A
C216   C219    1.460   .     S
C216   O301    1.304   .     A
C217   H260    1.083   .     S
C217   C219    1.402   .     A
C218   C220    1.399   .     A
C219   C221    1.400   .     A
C220   H271    1.083   .     S
C220   C222    1.389   .     A
C221   C223    1.389   .     A
C221   H282    1.081   .     S
C222   H290    1.083   .     S
C222   C224    1.401   .     A
C223   C225    1.400   .     A
C223   H291    1.084   .     S
C224   C531    1.464   1_545 S
C225   C530    1.464   .     S
C226   H254    1.104   .     S
C226   C7      1.533   1_655 S
C226   C24     1.529   1_655 S
C226   H51     1.110   1_655 S
C227   H292    1.079   .     S
C227   C242    1.414   .     A
C228   H252    1.110   .     S
C228   H251    1.108   .     S
C229   H261    1.105   .     S
C229   H259    1.102   .     S
C230   H258    1.111   .     S
C230   H256    1.111   .     S
C230   H257    1.107   .     S
C230   C25     1.529   1_655 S
C231   H264    1.109   .     S
C231   O306    1.412   .     S
C231   H263    1.111   .     S
C231   H262    1.114   .     S
C232   O298    1.410   .     S
C232   H265    1.113   .     S
C232   H267    1.109   .     S
C232   H266    1.113   .     S
C233   C242    1.517   .     S
C233   H273    1.112   .     S
C233   C234    1.530   .     S
C233   H272    1.087   .     S
C234   H268    1.110   .     S
C234   H270    1.111   .     S
C234   H269    1.110   .     S
C235   H277    1.088   .     S
C235   H278    1.112   .     S
C235   C236    1.530   .     S
C235   C243    1.516   .     S
C236   H276    1.110   .     S
C236   H275    1.109   .     S
C236   H274    1.110   .     S
C237   C239    1.529   .     S
C237   C244    1.516   .     S
C237   H283    1.086   .     S
C237   H284    1.112   .     S
C238   C243    1.415   .     A
C238   H293    1.079   .     S
C239   H279    1.110   .     S
C239   H280    1.110   .     S
C239   H281    1.111   .     S
C240   C241    1.533   .     S
C240   H288    1.090   .     S
C240   C245    1.515   .     S
C240   H289    1.111   .     S
C241   H285    1.109   .     S
C241   H286    1.111   .     S
C241   H287    1.110   .     S
C242   N295    1.388   .     A
C243   N296    1.390   .     A
C244   C246    1.413   .     A
C244   N295    1.390   .     A
C245   N296    1.391   .     A
C246   H294    1.079   .     S
Cu247  O302    1.969   .     S
Cu247  Cu248   2.711   .     S
Cu247  O305    1.964   .     S
Cu247  O301    1.950   .     S
Cu247  N296    2.037   .     S
Cu247  O297    1.951   .     S
Cu248  O303    1.969   .     S
Cu248  O300    1.950   .     S
Cu248  N295    2.037   .     S
Cu248  O299    1.951   .     S
Cu248  O304    1.964   .     S
H253   C24     1.111   1_655 S
C307   O399    1.304   .     A
C307   O402    1.303   .     A
C307   C320    1.457   .     S
C308   H352    1.079   .     S
C308   C347    1.413   .     A
C308   C310    1.396   .     A
C309   C348    1.398   .     A
C309   C329    1.402   .     A
C309   C922    1.525   1_554 S
C310   C340    1.400   .     A
C310   C921    1.525   .     S
C311   O406    1.304   .     A
C311   C313    1.437   .     S
C311   O404    1.287   .     A
C312   O407    1.309   .     A
C312   C314    1.439   .     S
C312   O405    1.284   .     A
C313   C518    1.363   1_455 S
C313   C532    1.533   1_455 S
C314   C415    1.363   .     S
C314   C433    1.531   .     S
C315   O408    1.387   .     S
C315   C326    1.407   .     A
C315   C317    1.401   .     A
C316   O400    1.382   .     S
C316   C327    1.407   .     A
C316   C319    1.397   .     A
C317   C320    1.400   .     A
C317   H351    1.081   .     S
C318   O401    1.303   .     A
C318   C321    1.460   .     S
C318   O403    1.304   .     A
C319   H362    1.083   .     S
C319   C321    1.402   .     A
C320   C322    1.399   .     A
C321   C323    1.400   .     A
C322   H373    1.083   .     S
C322   C324    1.389   .     A
C323   C325    1.389   .     A
C323   H384    1.081   .     S
C324   H392    1.083   .     S
C324   C326    1.401   .     A
C325   C327    1.400   .     A
C325   H393    1.084   .     S
C327   C20     1.464   1_565 S
C328   H356    1.104   .     S
C328   C415    1.533   .     S
C328   C432    1.529   .     S
C328   H459    1.110   .     S
C329   H394    1.079   .     S
C329   C344    1.414   .     A
C330   H354    1.110   .     S
C330   H353    1.108   .     S
C330   C532    1.529   1_455 S
C330   H559    1.111   1_455 S
C331   H363    1.105   .     S
C331   H361    1.102   .     S
C331   C518    1.531   1_455 S
C331   C536    1.529   1_455 S
C332   H360    1.111   .     S
C332   H358    1.111   .     S
C332   H359    1.107   .     S
C332   C433    1.529   .     S
C333   H366    1.109   .     S
C333   O408    1.412   .     S
C333   H365    1.111   .     S
C333   H364    1.114   .     S
C334   O400    1.410   .     S
C334   H367    1.113   .     S
C334   H369    1.109   .     S
C334   H368    1.113   .     S
C335   C344    1.517   .     S
C335   H375    1.112   .     S
C335   C336    1.530   .     S
C335   H374    1.087   .     S
C336   H370    1.110   .     S
C336   H372    1.111   .     S
C336   H371    1.110   .     S
C337   H379    1.088   .     S
C337   H380    1.112   .     S
C337   C338    1.530   .     S
C337   C345    1.516   .     S
C338   H378    1.110   .     S
C338   H377    1.109   .     S
C338   H376    1.110   .     S
C339   C341    1.529   .     S
C339   C346    1.516   .     S
C339   H385    1.086   .     S
C339   H386    1.112   .     S
C340   C345    1.415   .     A
C340   H395    1.079   .     S
C341   H381    1.110   .     S
C341   H382    1.110   .     S
C341   H383    1.111   .     S
C342   C343    1.533   .     S
C342   H390    1.090   .     S
C342   C347    1.515   .     S
C342   H391    1.111   .     S
C343   H387    1.109   .     S
C343   H388    1.111   .     S
C343   H389    1.110   .     S
C344   N397    1.388   .     A
C345   N398    1.390   .     A
C346   C348    1.413   .     A
C346   N397    1.390   .     A
C347   N398    1.391   .     A
C348   H396    1.079   .     S
Cu349  O404    1.969   .     S
Cu349  Cu350   2.711   .     S
Cu349  O407    1.964   .     S
Cu349  O403    1.950   .     S
Cu349  N398    2.037   .     S
Cu349  O399    1.951   .     S
Cu350  O405    1.969   .     S
Cu350  O402    1.950   .     S
Cu350  N397    2.037   .     S
Cu350  O401    1.951   .     S
Cu350  O406    1.964   .     S
H355   C432    1.111   .     S
H357   C532    1.110   1_455 S
C409   O501    1.304   .     A
C409   O504    1.303   .     A
C409   C422    1.457   .     S
C410   H454    1.079   .     S
C410   C449    1.413   .     A
C410   C412    1.396   .     A
C411   C450    1.398   .     A
C411   C431    1.402   .     A
C411   C1024   1.525   1_554 S
C412   C442    1.400   .     A
C412   C1023   1.525   .     S
C413   O508    1.304   .     A
C413   C415    1.437   .     S
C413   O506    1.287   .     A
C414   O509    1.309   .     A
C414   C416    1.439   .     S
C414   O507    1.284   .     A
C416   C517    1.363   .     S
C416   C535    1.531   .     S
C417   O510    1.387   .     S
C417   C428    1.407   .     A
C417   C419    1.401   .     A
C418   O502    1.382   .     S
C418   C429    1.407   .     A
C418   C421    1.397   .     A
C419   C422    1.400   .     A
C419   H453    1.081   .     S
C420   O503    1.303   .     A
C420   C423    1.460   .     S
C420   O505    1.304   .     A
C421   H464    1.083   .     S
C421   C423    1.402   .     A
C422   C424    1.399   .     A
C423   C425    1.400   .     A
C424   H475    1.083   .     S
C424   C426    1.389   .     A
C425   C427    1.389   .     A
C425   H486    1.081   .     S
C426   H494    1.083   .     S
C426   C428    1.401   .     A
C427   C429    1.400   .     A
C427   H495    1.084   .     S
C429   C122    1.464   1_565 S
C430   H458    1.104   .     S
C430   C517    1.533   .     S
C430   C534    1.529   .     S
C430   H561    1.110   .     S
C431   H496    1.079   .     S
C431   C446    1.414   .     A
C432   H456    1.110   .     S
C432   H455    1.108   .     S
C433   H465    1.105   .     S
C433   H463    1.102   .     S
C434   H462    1.111   .     S
C434   H460    1.111   .     S
C434   H461    1.107   .     S
C434   C535    1.529   .     S
C435   H468    1.109   .     S
C435   O510    1.412   .     S
C435   H467    1.111   .     S
C435   H466    1.114   .     S
C436   O502    1.410   .     S
C436   H469    1.113   .     S
C436   H471    1.109   .     S
C436   H470    1.113   .     S
C437   C446    1.517   .     S
C437   H477    1.112   .     S
C437   C438    1.530   .     S
C437   H476    1.087   .     S
C438   H472    1.110   .     S
C438   H474    1.111   .     S
C438   H473    1.110   .     S
C439   H481    1.088   .     S
C439   H482    1.112   .     S
C439   C440    1.530   .     S
C439   C447    1.516   .     S
C440   H480    1.110   .     S
C440   H479    1.109   .     S
C440   H478    1.110   .     S
C441   C443    1.529   .     S
C441   C448    1.516   .     S
C441   H487    1.086   .     S
C441   H488    1.112   .     S
C442   C447    1.415   .     A
C442   H497    1.079   .     S
C443   H483    1.110   .     S
C443   H484    1.110   .     S
C443   H485    1.111   .     S
C444   C445    1.533   .     S
C444   H492    1.090   .     S
C444   C449    1.515   .     S
C444   H493    1.111   .     S
C445   H489    1.109   .     S
C445   H490    1.111   .     S
C445   H491    1.110   .     S
C446   N499    1.388   .     A
C447   N500    1.390   .     A
C448   C450    1.413   .     A
C448   N499    1.390   .     A
C449   N500    1.391   .     A
C450   H498    1.079   .     S
Cu451  O506    1.969   .     S
Cu451  Cu452   2.711   .     S
Cu451  O509    1.964   .     S
Cu451  O505    1.950   .     S
Cu451  N500    2.037   .     S
Cu451  O501    1.951   .     S
Cu452  O507    1.969   .     S
Cu452  O504    1.950   .     S
Cu452  N499    2.037   .     S
Cu452  O503    1.951   .     S
Cu452  O508    1.964   .     S
H457   C534    1.111   .     S
C511   O603    1.304   .     A
C511   O606    1.303   .     A
C511   C524    1.457   .     S
C512   H556    1.079   .     S
C512   C551    1.413   .     A
C512   C514    1.396   .     A
C513   C552    1.398   .     A
C513   C533    1.402   .     A
C513   C1126   1.525   1_554 S
C514   C544    1.400   .     A
C514   C1125   1.525   .     S
C515   O610    1.304   .     A
C515   C517    1.437   .     S
C515   O608    1.287   .     A
C516   O611    1.309   .     A
C516   C518    1.439   .     S
C516   O609    1.284   .     A
C518   C313    1.363   1_655 S
C518   C331    1.531   1_655 S
C519   O612    1.387   .     S
C519   C530    1.407   .     A
C519   C521    1.401   .     A
C520   O604    1.382   .     S
C520   C531    1.407   .     A
C520   C523    1.397   .     A
C521   C524    1.400   .     A
C521   H555    1.081   .     S
C522   O605    1.303   .     A
C522   C525    1.460   .     S
C522   O607    1.304   .     A
C523   H566    1.083   .     S
C523   C525    1.402   .     A
C524   C526    1.399   .     A
C525   C527    1.400   .     A
C526   H577    1.083   .     S
C526   C528    1.389   .     A
C527   C529    1.389   .     A
C527   H588    1.081   .     S
C528   H596    1.083   .     S
C528   C530    1.401   .     A
C529   C531    1.400   .     A
C529   H597    1.084   .     S
C531   C224    1.464   1_565 S
C532   H560    1.104   .     S
C532   C313    1.533   1_655 S
C532   C330    1.529   1_655 S
C532   H357    1.110   1_655 S
C533   H598    1.079   .     S
C533   C548    1.414   .     A
C534   H558    1.110   .     S
C534   H557    1.108   .     S
C535   H567    1.105   .     S
C535   H565    1.102   .     S
C536   H564    1.111   .     S
C536   H562    1.111   .     S
C536   H563    1.107   .     S
C536   C331    1.529   1_655 S
C537   H570    1.109   .     S
C537   O612    1.412   .     S
C537   H569    1.111   .     S
C537   H568    1.114   .     S
C538   O604    1.410   .     S
C538   H571    1.113   .     S
C538   H573    1.109   .     S
C538   H572    1.113   .     S
C539   C548    1.517   .     S
C539   H579    1.112   .     S
C539   C540    1.530   .     S
C539   H578    1.087   .     S
C540   H574    1.110   .     S
C540   H576    1.111   .     S
C540   H575    1.110   .     S
C541   H583    1.088   .     S
C541   H584    1.112   .     S
C541   C542    1.530   .     S
C541   C549    1.516   .     S
C542   H582    1.110   .     S
C542   H581    1.109   .     S
C542   H580    1.110   .     S
C543   C545    1.529   .     S
C543   C550    1.516   .     S
C543   H589    1.086   .     S
C543   H590    1.112   .     S
C544   C549    1.415   .     A
C544   H599    1.079   .     S
C545   H585    1.110   .     S
C545   H586    1.110   .     S
C545   H587    1.111   .     S
C546   C547    1.533   .     S
C546   H594    1.090   .     S
C546   C551    1.515   .     S
C546   H595    1.111   .     S
C547   H591    1.109   .     S
C547   H592    1.111   .     S
C547   H593    1.110   .     S
C548   N601    1.388   .     A
C549   N602    1.390   .     A
C550   C552    1.413   .     A
C550   N601    1.390   .     A
C551   N602    1.391   .     A
C552   H600    1.079   .     S
Cu553  O608    1.969   .     S
Cu553  Cu554   2.711   .     S
Cu553  O611    1.964   .     S
Cu553  O607    1.950   .     S
Cu553  N602    2.037   .     S
Cu553  O603    1.951   .     S
Cu554  O609    1.969   .     S
Cu554  O606    1.950   .     S
Cu554  N601    2.037   .     S
Cu554  O605    1.951   .     S
Cu554  O610    1.964   .     S
H559   C330    1.111   1_655 S
C613   O705    1.304   .     A
C613   O708    1.303   .     A
C613   C626    1.457   .     S
C614   H658    1.079   .     S
C614   C653    1.413   .     A
C614   C616    1.396   .     A
C615   C654    1.398   .     A
C615   C635    1.402   .     A
C616   C646    1.400   .     A
C616   C3      1.525   1_556 S
C617   O712    1.304   .     A
C617   C619    1.437   .     S
C617   O710    1.287   .     A
C618   O713    1.309   .     A
C618   C620    1.439   .     S
C618   O711    1.284   .     A
C619   C824    1.363   1_455 S
C619   C838    1.533   1_455 S
C620   C721    1.363   .     S
C620   C739    1.531   .     S
C621   O714    1.387   .     S
C621   C632    1.407   .     A
C621   C623    1.401   .     A
C622   O706    1.382   .     S
C622   C633    1.407   .     A
C622   C625    1.397   .     A
C623   C626    1.400   .     A
C623   H657    1.081   .     S
C624   O707    1.303   .     A
C624   C627    1.460   .     S
C624   O709    1.304   .     A
C625   H668    1.083   .     S
C625   C627    1.402   .     A
C626   C628    1.399   .     A
C627   C629    1.400   .     A
C628   H679    1.083   .     S
C628   C630    1.389   .     A
C629   C631    1.389   .     A
C629   H690    1.081   .     S
C630   H698    1.083   .     S
C630   C632    1.401   .     A
C631   C633    1.400   .     A
C631   H699    1.084   .     S
C632   C939    1.464   1_545 S
C633   C938    1.464   .     S
C634   H662    1.104   .     S
C634   C721    1.533   .     S
C634   C738    1.529   .     S
C634   H765    1.110   .     S
C635   H700    1.079   .     S
C635   C650    1.414   .     A
C636   H660    1.110   .     S
C636   H659    1.108   .     S
C636   C838    1.529   1_455 S
C636   H865    1.111   1_455 S
C637   H669    1.105   .     S
C637   H667    1.102   .     S
C637   C824    1.531   1_455 S
C637   C842    1.529   1_455 S
C638   H666    1.111   .     S
C638   H664    1.111   .     S
C638   H665    1.107   .     S
C638   C739    1.529   .     S
C639   H672    1.109   .     S
C639   O714    1.412   .     S
C639   H671    1.111   .     S
C639   H670    1.114   .     S
C640   O706    1.410   .     S
C640   H673    1.113   .     S
C640   H675    1.109   .     S
C640   H674    1.113   .     S
C641   C650    1.517   .     S
C641   H681    1.112   .     S
C641   C642    1.530   .     S
C641   H680    1.087   .     S
C642   H676    1.110   .     S
C642   H678    1.111   .     S
C642   H677    1.110   .     S
C643   H685    1.088   .     S
C643   H686    1.112   .     S
C643   C644    1.530   .     S
C643   C651    1.516   .     S
C644   H684    1.110   .     S
C644   H683    1.109   .     S
C644   H682    1.110   .     S
C645   C647    1.529   .     S
C645   C652    1.516   .     S
C645   H691    1.086   .     S
C645   H692    1.112   .     S
C646   C651    1.415   .     A
C646   H701    1.079   .     S
C647   H687    1.110   .     S
C647   H688    1.110   .     S
C647   H689    1.111   .     S
C648   C649    1.533   .     S
C648   H696    1.090   .     S
C648   C653    1.515   .     S
C648   H697    1.111   .     S
C649   H693    1.109   .     S
C649   H694    1.111   .     S
C649   H695    1.110   .     S
C650   N703    1.388   .     A
C651   N704    1.390   .     A
C652   C654    1.413   .     A
C652   N703    1.390   .     A
C653   N704    1.391   .     A
C654   H702    1.079   .     S
Cu655  O710    1.969   .     S
Cu655  Cu656   2.711   .     S
Cu655  O713    1.964   .     S
Cu655  O709    1.950   .     S
Cu655  N704    2.037   .     S
Cu655  O705    1.951   .     S
Cu656  O711    1.969   .     S
Cu656  O708    1.950   .     S
Cu656  N703    2.037   .     S
Cu656  O707    1.951   .     S
Cu656  O712    1.964   .     S
H661   C738    1.111   .     S
H663   C838    1.110   1_455 S
C715   O807    1.304   .     A
C715   O810    1.303   .     A
C715   C728    1.457   .     S
C716   H760    1.079   .     S
C716   C755    1.413   .     A
C716   C718    1.396   .     A
C717   C756    1.398   .     A
C717   C737    1.402   .     A
C718   C748    1.400   .     A
C718   C105    1.525   1_556 S
C719   O814    1.304   .     A
C719   C721    1.437   .     S
C719   O812    1.287   .     A
C720   O815    1.309   .     A
C720   C722    1.439   .     S
C720   O813    1.284   .     A
C722   C823    1.363   .     S
C722   C841    1.531   .     S
C723   O816    1.387   .     S
C723   C734    1.407   .     A
C723   C725    1.401   .     A
C724   O808    1.382   .     S
C724   C735    1.407   .     A
C724   C727    1.397   .     A
C725   C728    1.400   .     A
C725   H759    1.081   .     S
C726   O809    1.303   .     A
C726   C729    1.460   .     S
C726   O811    1.304   .     A
C727   H770    1.083   .     S
C727   C729    1.402   .     A
C728   C730    1.399   .     A
C729   C731    1.400   .     A
C730   H781    1.083   .     S
C730   C732    1.389   .     A
C731   C733    1.389   .     A
C731   H792    1.081   .     S
C732   H800    1.083   .     S
C732   C734    1.401   .     A
C733   C735    1.400   .     A
C733   H801    1.084   .     S
C734   C1041   1.464   1_545 S
C735   C1040   1.464   .     S
C736   H764    1.104   .     S
C736   C823    1.533   .     S
C736   C840    1.529   .     S
C736   H867    1.110   .     S
C737   H802    1.079   .     S
C737   C752    1.414   .     A
C738   H762    1.110   .     S
C738   H761    1.108   .     S
C739   H771    1.105   .     S
C739   H769    1.102   .     S
C740   H768    1.111   .     S
C740   H766    1.111   .     S
C740   H767    1.107   .     S
C740   C841    1.529   .     S
C741   H774    1.109   .     S
C741   O816    1.412   .     S
C741   H773    1.111   .     S
C741   H772    1.114   .     S
C742   O808    1.410   .     S
C742   H775    1.113   .     S
C742   H777    1.109   .     S
C742   H776    1.113   .     S
C743   C752    1.517   .     S
C743   H783    1.112   .     S
C743   C744    1.530   .     S
C743   H782    1.087   .     S
C744   H778    1.110   .     S
C744   H780    1.111   .     S
C744   H779    1.110   .     S
C745   H787    1.088   .     S
C745   H788    1.112   .     S
C745   C746    1.530   .     S
C745   C753    1.516   .     S
C746   H786    1.110   .     S
C746   H785    1.109   .     S
C746   H784    1.110   .     S
C747   C749    1.529   .     S
C747   C754    1.516   .     S
C747   H793    1.086   .     S
C747   H794    1.112   .     S
C748   C753    1.415   .     A
C748   H803    1.079   .     S
C749   H789    1.110   .     S
C749   H790    1.110   .     S
C749   H791    1.111   .     S
C750   C751    1.533   .     S
C750   H798    1.090   .     S
C750   C755    1.515   .     S
C750   H799    1.111   .     S
C751   H795    1.109   .     S
C751   H796    1.111   .     S
C751   H797    1.110   .     S
C752   N805    1.388   .     A
C753   N806    1.390   .     A
C754   C756    1.413   .     A
C754   N805    1.390   .     A
C755   N806    1.391   .     A
C756   H804    1.079   .     S
Cu757  O812    1.969   .     S
Cu757  Cu758   2.711   .     S
Cu757  O815    1.964   .     S
Cu757  O811    1.950   .     S
Cu757  N806    2.037   .     S
Cu757  O807    1.951   .     S
Cu758  O813    1.969   .     S
Cu758  O810    1.950   .     S
Cu758  N805    2.037   .     S
Cu758  O809    1.951   .     S
Cu758  O814    1.964   .     S
H763   C840    1.111   .     S
C817   O909    1.304   .     A
C817   O912    1.303   .     A
C817   C830    1.457   .     S
C818   H862    1.079   .     S
C818   C857    1.413   .     A
C818   C820    1.396   .     A
C819   C858    1.398   .     A
C819   C839    1.402   .     A
C820   C850    1.400   .     A
C820   C207    1.525   1_556 S
C821   O916    1.304   .     A
C821   C823    1.437   .     S
C821   O914    1.287   .     A
C822   O917    1.309   .     A
C822   C824    1.439   .     S
C822   O915    1.284   .     A
C824   C619    1.363   1_655 S
C824   C637    1.531   1_655 S
C825   O918    1.387   .     S
C825   C836    1.407   .     A
C825   C827    1.401   .     A
C826   O910    1.382   .     S
C826   C837    1.407   .     A
C826   C829    1.397   .     A
C827   C830    1.400   .     A
C827   H861    1.081   .     S
C828   O911    1.303   .     A
C828   C831    1.460   .     S
C828   O913    1.304   .     A
C829   H872    1.083   .     S
C829   C831    1.402   .     A
C830   C832    1.399   .     A
C831   C833    1.400   .     A
C832   H883    1.083   .     S
C832   C834    1.389   .     A
C833   C835    1.389   .     A
C833   H894    1.081   .     S
C834   H902    1.083   .     S
C834   C836    1.401   .     A
C835   C837    1.400   .     A
C835   H903    1.084   .     S
C836   C1143   1.464   1_545 S
C837   C1142   1.464   .     S
C838   H866    1.104   .     S
C838   C619    1.533   1_655 S
C838   C636    1.529   1_655 S
C838   H663    1.110   1_655 S
C839   H904    1.079   .     S
C839   C854    1.414   .     A
C840   H864    1.110   .     S
C840   H863    1.108   .     S
C841   H873    1.105   .     S
C841   H871    1.102   .     S
C842   H870    1.111   .     S
C842   H868    1.111   .     S
C842   H869    1.107   .     S
C842   C637    1.529   1_655 S
C843   H876    1.109   .     S
C843   O918    1.412   .     S
C843   H875    1.111   .     S
C843   H874    1.114   .     S
C844   O910    1.410   .     S
C844   H877    1.113   .     S
C844   H879    1.109   .     S
C844   H878    1.113   .     S
C845   C854    1.517   .     S
C845   H885    1.112   .     S
C845   C846    1.530   .     S
C845   H884    1.087   .     S
C846   H880    1.110   .     S
C846   H882    1.111   .     S
C846   H881    1.110   .     S
C847   H889    1.088   .     S
C847   H890    1.112   .     S
C847   C848    1.530   .     S
C847   C855    1.516   .     S
C848   H888    1.110   .     S
C848   H887    1.109   .     S
C848   H886    1.110   .     S
C849   C851    1.529   .     S
C849   C856    1.516   .     S
C849   H895    1.086   .     S
C849   H896    1.112   .     S
C850   C855    1.415   .     A
C850   H905    1.079   .     S
C851   H891    1.110   .     S
C851   H892    1.110   .     S
C851   H893    1.111   .     S
C852   C853    1.533   .     S
C852   H900    1.090   .     S
C852   C857    1.515   .     S
C852   H901    1.111   .     S
C853   H897    1.109   .     S
C853   H898    1.111   .     S
C853   H899    1.110   .     S
C854   N907    1.388   .     A
C855   N908    1.390   .     A
C856   C858    1.413   .     A
C856   N907    1.390   .     A
C857   N908    1.391   .     A
C858   H906    1.079   .     S
Cu859  O914    1.969   .     S
Cu859  Cu860   2.711   .     S
Cu859  O917    1.964   .     S
Cu859  O913    1.950   .     S
Cu859  N908    2.037   .     S
Cu859  O909    1.951   .     S
Cu860  O915    1.969   .     S
Cu860  O912    1.950   .     S
Cu860  N907    2.037   .     S
Cu860  O911    1.951   .     S
Cu860  O916    1.964   .     S
H865   C636    1.111   1_655 S
C919   O1011   1.304   .     A
C919   O1014   1.303   .     A
C919   C932    1.457   .     S
C920   H964    1.079   .     S
C920   C959    1.413   .     A
C920   C922    1.396   .     A
C921   C960    1.398   .     A
C921   C941    1.402   .     A
C922   C952    1.400   .     A
C922   C309    1.525   1_556 S
C923   O1018   1.304   .     A
C923   C925    1.437   .     S
C923   O1016   1.287   .     A
C924   O1019   1.309   .     A
C924   C926    1.439   .     S
C924   O1017   1.284   .     A
C925   C1130   1.363   1_455 S
C925   C1144   1.533   1_455 S
C926   C1027   1.363   .     S
C926   C1045   1.531   .     S
C927   O1020   1.387   .     S
C927   C938    1.407   .     A
C927   C929    1.401   .     A
C928   O1012   1.382   .     S
C928   C939    1.407   .     A
C928   C931    1.397   .     A
C929   C932    1.400   .     A
C929   H963    1.081   .     S
C930   O1013   1.303   .     A
C930   C933    1.460   .     S
C930   O1015   1.304   .     A
C931   H974    1.083   .     S
C931   C933    1.402   .     A
C932   C934    1.399   .     A
C933   C935    1.400   .     A
C934   H985    1.083   .     S
C934   C936    1.389   .     A
C935   C937    1.389   .     A
C935   H996    1.081   .     S
C936   H1004   1.083   .     S
C936   C938    1.401   .     A
C937   C939    1.400   .     A
C937   H1005   1.084   .     S
C939   C632    1.464   1_565 S
C940   H968    1.104   .     S
C940   C1027   1.533   .     S
C940   C1044   1.529   .     S
C940   H1071   1.110   .     S
C941   H1006   1.079   .     S
C941   C956    1.414   .     A
C942   H966    1.110   .     S
C942   H965    1.108   .     S
C942   C1144   1.529   1_455 S
C942   H1171   1.111   1_455 S
C943   H975    1.105   .     S
C943   H973    1.102   .     S
C943   C1130   1.531   1_455 S
C943   C1148   1.529   1_455 S
C944   H972    1.111   .     S
C944   H970    1.111   .     S
C944   H971    1.107   .     S
C944   C1045   1.529   .     S
C945   H978    1.109   .     S
C945   O1020   1.412   .     S
C945   H977    1.111   .     S
C945   H976    1.114   .     S
C946   O1012   1.410   .     S
C946   H979    1.113   .     S
C946   H981    1.109   .     S
C946   H980    1.113   .     S
C947   C956    1.517   .     S
C947   H987    1.112   .     S
C947   C948    1.530   .     S
C947   H986    1.087   .     S
C948   H982    1.110   .     S
C948   H984    1.111   .     S
C948   H983    1.110   .     S
C949   H991    1.088   .     S
C949   H992    1.112   .     S
C949   C950    1.530   .     S
C949   C957    1.516   .     S
C950   H990    1.110   .     S
C950   H989    1.109   .     S
C950   H988    1.110   .     S
C951   C953    1.529   .     S
C951   C958    1.516   .     S
C951   H997    1.086   .     S
C951   H998    1.112   .     S
C952   C957    1.415   .     A
C952   H1007   1.079   .     S
C953   H993    1.110   .     S
C953   H994    1.110   .     S
C953   H995    1.111   .     S
C954   C955    1.533   .     S
C954   H1002   1.090   .     S
C954   C959    1.515   .     S
C954   H1003   1.111   .     S
C955   H999    1.109   .     S
C955   H1000   1.111   .     S
C955   H1001   1.110   .     S
C956   N1009   1.388   .     A
C957   N1010   1.390   .     A
C958   C960    1.413   .     A
C958   N1009   1.390   .     A
C959   N1010   1.391   .     A
C960   H1008   1.079   .     S
Cu961  O1016   1.969   .     S
Cu961  Cu962   2.711   .     S
Cu961  O1019   1.964   .     S
Cu961  O1015   1.950   .     S
Cu961  N1010   2.037   .     S
Cu961  O1011   1.951   .     S
Cu962  O1017   1.969   .     S
Cu962  O1014   1.950   .     S
Cu962  N1009   2.037   .     S
Cu962  O1013   1.951   .     S
Cu962  O1018   1.964   .     S
H967   C1044   1.111   .     S
H969   C1144   1.110   1_455 S
C1021  O1113   1.304   .     A
C1021  O1116   1.303   .     A
C1021  C1034   1.457   .     S
C1022  H1066   1.079   .     S
C1022  C1061   1.413   .     A
C1022  C1024   1.396   .     A
C1023  C1062   1.398   .     A
C1023  C1043   1.402   .     A
C1024  C1054   1.400   .     A
C1024  C411    1.525   1_556 S
C1025  O1120   1.304   .     A
C1025  C1027   1.437   .     S
C1025  O1118   1.287   .     A
C1026  O1121   1.309   .     A
C1026  C1028   1.439   .     S
C1026  O1119   1.284   .     A
C1028  C1129   1.363   .     S
C1028  C1147   1.531   .     S
C1029  O1122   1.387   .     S
C1029  C1040   1.407   .     A
C1029  C1031   1.401   .     A
C1030  O1114   1.382   .     S
C1030  C1041   1.407   .     A
C1030  C1033   1.397   .     A
C1031  C1034   1.400   .     A
C1031  H1065   1.081   .     S
C1032  O1115   1.303   .     A
C1032  C1035   1.460   .     S
C1032  O1117   1.304   .     A
C1033  H1076   1.083   .     S
C1033  C1035   1.402   .     A
C1034  C1036   1.399   .     A
C1035  C1037   1.400   .     A
C1036  H1087   1.083   .     S
C1036  C1038   1.389   .     A
C1037  C1039   1.389   .     A
C1037  H1098   1.081   .     S
C1038  H1106   1.083   .     S
C1038  C1040   1.401   .     A
C1039  C1041   1.400   .     A
C1039  H1107   1.084   .     S
C1041  C734    1.464   1_565 S
C1042  H1070   1.104   .     S
C1042  C1129   1.533   .     S
C1042  C1146   1.529   .     S
C1042  H1173   1.110   .     S
C1043  H1108   1.079   .     S
C1043  C1058   1.414   .     A
C1044  H1068   1.110   .     S
C1044  H1067   1.108   .     S
C1045  H1077   1.105   .     S
C1045  H1075   1.102   .     S
C1046  H1074   1.111   .     S
C1046  H1072   1.111   .     S
C1046  H1073   1.107   .     S
C1046  C1147   1.529   .     S
C1047  H1080   1.109   .     S
C1047  O1122   1.412   .     S
C1047  H1079   1.111   .     S
C1047  H1078   1.114   .     S
C1048  O1114   1.410   .     S
C1048  H1081   1.113   .     S
C1048  H1083   1.109   .     S
C1048  H1082   1.113   .     S
C1049  C1058   1.517   .     S
C1049  H1089   1.112   .     S
C1049  C1050   1.530   .     S
C1049  H1088   1.087   .     S
C1050  H1084   1.110   .     S
C1050  H1086   1.111   .     S
C1050  H1085   1.110   .     S
C1051  H1093   1.088   .     S
C1051  H1094   1.112   .     S
C1051  C1052   1.530   .     S
C1051  C1059   1.516   .     S
C1052  H1092   1.110   .     S
C1052  H1091   1.109   .     S
C1052  H1090   1.110   .     S
C1053  C1055   1.529   .     S
C1053  C1060   1.516   .     S
C1053  H1099   1.086   .     S
C1053  H1100   1.112   .     S
C1054  C1059   1.415   .     A
C1054  H1109   1.079   .     S
C1055  H1095   1.110   .     S
C1055  H1096   1.110   .     S
C1055  H1097   1.111   .     S
C1056  C1057   1.533   .     S
C1056  H1104   1.090   .     S
C1056  C1061   1.515   .     S
C1056  H1105   1.111   .     S
C1057  H1101   1.109   .     S
C1057  H1102   1.111   .     S
C1057  H1103   1.110   .     S
C1058  N1111   1.388   .     A
C1059  N1112   1.390   .     A
C1060  C1062   1.413   .     A
C1060  N1111   1.390   .     A
C1061  N1112   1.391   .     A
C1062  H1110   1.079   .     S
Cu1063 O1118   1.969   .     S
Cu1063 Cu1064  2.711   .     S
Cu1063 O1121   1.964   .     S
Cu1063 O1117   1.950   .     S
Cu1063 N1112   2.037   .     S
Cu1063 O1113   1.951   .     S
Cu1064 O1119   1.969   .     S
Cu1064 O1116   1.950   .     S
Cu1064 N1111   2.037   .     S
Cu1064 O1115   1.951   .     S
Cu1064 O1120   1.964   .     S
H1069  C1146   1.111   .     S
C1123  O1215   1.304   .     A
C1123  O1218   1.303   .     A
C1123  C1136   1.457   .     S
C1124  H1168   1.079   .     S
C1124  C1163   1.413   .     A
C1124  C1126   1.396   .     A
C1125  C1164   1.398   .     A
C1125  C1145   1.402   .     A
C1126  C1156   1.400   .     A
C1126  C513    1.525   1_556 S
C1127  O1222   1.304   .     A
C1127  C1129   1.437   .     S
C1127  O1220   1.287   .     A
C1128  O1223   1.309   .     A
C1128  C1130   1.439   .     S
C1128  O1221   1.284   .     A
C1130  C925    1.363   1_655 S
C1130  C943    1.531   1_655 S
C1131  O1224   1.387   .     S
C1131  C1142   1.407   .     A
C1131  C1133   1.401   .     A
C1132  O1216   1.382   .     S
C1132  C1143   1.407   .     A
C1132  C1135   1.397   .     A
C1133  C1136   1.400   .     A
C1133  H1167   1.081   .     S
C1134  O1217   1.303   .     A
C1134  C1137   1.460   .     S
C1134  O1219   1.304   .     A
C1135  H1178   1.083   .     S
C1135  C1137   1.402   .     A
C1136  C1138   1.399   .     A
C1137  C1139   1.400   .     A
C1138  H1189   1.083   .     S
C1138  C1140   1.389   .     A
C1139  C1141   1.389   .     A
C1139  H1200   1.081   .     S
C1140  H1208   1.083   .     S
C1140  C1142   1.401   .     A
C1141  C1143   1.400   .     A
C1141  H1209   1.084   .     S
C1143  C836    1.464   1_565 S
C1144  H1172   1.104   .     S
C1144  C925    1.533   1_655 S
C1144  C942    1.529   1_655 S
C1144  H969    1.110   1_655 S
C1145  H1210   1.079   .     S
C1145  C1160   1.414   .     A
C1146  H1170   1.110   .     S
C1146  H1169   1.108   .     S
C1147  H1179   1.105   .     S
C1147  H1177   1.102   .     S
C1148  H1176   1.111   .     S
C1148  H1174   1.111   .     S
C1148  H1175   1.107   .     S
C1148  C943    1.529   1_655 S
C1149  H1182   1.109   .     S
C1149  O1224   1.412   .     S
C1149  H1181   1.111   .     S
C1149  H1180   1.114   .     S
C1150  O1216   1.410   .     S
C1150  H1183   1.113   .     S
C1150  H1185   1.109   .     S
C1150  H1184   1.113   .     S
C1151  C1160   1.517   .     S
C1151  H1191   1.112   .     S
C1151  C1152   1.530   .     S
C1151  H1190   1.087   .     S
C1152  H1186   1.110   .     S
C1152  H1188   1.111   .     S
C1152  H1187   1.110   .     S
C1153  H1195   1.088   .     S
C1153  H1196   1.112   .     S
C1153  C1154   1.530   .     S
C1153  C1161   1.516   .     S
C1154  H1194   1.110   .     S
C1154  H1193   1.109   .     S
C1154  H1192   1.110   .     S
C1155  C1157   1.529   .     S
C1155  C1162   1.516   .     S
C1155  H1201   1.086   .     S
C1155  H1202   1.112   .     S
C1156  C1161   1.415   .     A
C1156  H1211   1.079   .     S
C1157  H1197   1.110   .     S
C1157  H1198   1.110   .     S
C1157  H1199   1.111   .     S
C1158  C1159   1.533   .     S
C1158  H1206   1.090   .     S
C1158  C1163   1.515   .     S
C1158  H1207   1.111   .     S
C1159  H1203   1.109   .     S
C1159  H1204   1.111   .     S
C1159  H1205   1.110   .     S
C1160  N1213   1.388   .     A
C1161  N1214   1.390   .     A
C1162  C1164   1.413   .     A
C1162  N1213   1.390   .     A
C1163  N1214   1.391   .     A
C1164  H1212   1.079   .     S
Cu1165 O1220   1.969   .     S
Cu1165 Cu1166  2.711   .     S
Cu1165 O1223   1.964   .     S
Cu1165 O1219   1.950   .     S
Cu1165 N1214   2.037   .     S
Cu1165 O1215   1.951   .     S
Cu1166 O1221   1.969   .     S
Cu1166 O1218   1.950   .     S
Cu1166 N1213   2.037   .     S
Cu1166 O1217   1.951   .     S
Cu1166 O1222   1.964   .     S
H1171  C942    1.111   1_655 S
