data_str_m2_o2_o10_pcu_sym.226
_audit_creation_date              2020-01-03
_audit_creation_method            'Materials Studio'
_symmetry_space_group_name_H-M    'P1'
_symmetry_Int_Tables_number       1
_symmetry_cell_setting            triclinic
loop_
_symmetry_equiv_pos_as_xyz
  x,y,z
_cell_length_a                    26.4647
_cell_length_b                    30.2782
_cell_length_c                    27.7878
_cell_angle_alpha                 89.9115
_cell_angle_beta                  97.0513
_cell_angle_gamma                 92.2407
loop_
_atom_site_label
_atom_site_type_symbol
_atom_site_fract_x
_atom_site_fract_y
_atom_site_fract_z
_atom_site_U_iso_or_equiv
_atom_site_adp_type
_atom_site_occupancy
C1     C     0.16782   0.16496   0.25005   0.00000  Uiso   1.00
C2     C     0.16452   0.33532   0.24961   0.00000  Uiso   1.00
C3     C     0.21317   0.26277   0.06034   0.00000  Uiso   1.00
C4     C     0.14648   0.21176   0.44286   0.00000  Uiso   1.00
C5     C     0.20902   0.26570   0.11041   0.00000  Uiso   1.00
C6     C     0.14341   0.21547   0.39196   0.00000  Uiso   1.00
C7     C     0.12693   0.23144   0.09822   0.00000  Uiso   1.00
C8     C     0.19315   0.28207   0.39971   0.00000  Uiso   1.00
C9     C     0.12673   0.23406   0.04792   0.00000  Uiso   1.00
C10    C     0.19105   0.28258   0.44979   0.00000  Uiso   1.00
C11    C     0.17047   0.24772   0.02759   0.00000  Uiso   1.00
C12    C     0.16957   0.24676   0.47301   0.00000  Uiso   1.00
C13    C     0.06829   0.25131   0.23831   0.00000  Uiso   1.00
C14    C     0.26507   0.24910   0.26207   0.00000  Uiso   1.00
C15    C     0.01491   0.26108   0.23501   0.00000  Uiso   1.00
C16    C     0.31907   0.24200   0.26754   0.00000  Uiso   1.00
C17    C     0.14286   0.04441   0.27362   0.00000  Uiso   1.00
C18    C     0.17621   0.45572   0.21216   0.00000  Uiso   1.00
C19    C     0.13732   0.08967   0.27236   0.00000  Uiso   1.00
C20    C     0.16885   0.41008   0.20738   0.00000  Uiso   1.00
C21    C     0.17258   0.11673   0.25046   0.00000  Uiso   1.00
C22    C     0.16360   0.38439   0.24964   0.00000  Uiso   1.00
C23    C     0.21288   0.09740   0.22948   0.00000  Uiso   1.00
C24    C     0.15997   0.40673   0.29387   0.00000  Uiso   1.00
C25    C     0.22102   0.05144   0.23545   0.00000  Uiso   1.00
C26    C     0.17662   0.45145   0.29965   0.00000  Uiso   1.00
C27    C     0.18466   0.02511   0.25755   0.00000  Uiso   1.00
C28    C     0.18324   0.47636   0.25744   0.00000  Uiso   1.00
Cu29   Cu    0.16667   0.24999   0.29822   0.00000  Uiso   1.00
Cu30   Cu    0.16667   0.25000   0.20179   0.00000  Uiso   1.00
H31    H     0.11287   0.02343   0.28595   0.00000  Uiso   1.00
H32    H     0.17581   0.47575   0.17974   0.00000  Uiso   1.00
H33    H     0.24114   0.27853   0.13444   0.00000  Uiso   1.00
H34    H     0.12454   0.18927   0.36950   0.00000  Uiso   1.00
H35    H     0.09279   0.22299   0.02474   0.00000  Uiso   1.00
H36    H     0.20832   0.31051   0.47074   0.00000  Uiso   1.00
N37    N     0.16667   0.25001   0.12935   0.00000  Uiso   1.00
N38    N     0.16667   0.24999   0.37066   0.00000  Uiso   1.00
O39    O     0.16667   0.18572   0.29072   0.00000  Uiso   1.00
O40    O     0.16666   0.31427   0.20929   0.00000  Uiso   1.00
O41    O     0.16667   0.18573   0.20928   0.00000  Uiso   1.00
O42    O     0.16666   0.31427   0.29072   0.00000  Uiso   1.00
O43    O     0.09161   0.24999   0.28132   0.00000  Uiso   1.00
O44    O     0.24172   0.25000   0.21868   0.00000  Uiso   1.00
O45    O     0.09161   0.25000   0.19989   0.00000  Uiso   1.00
O46    O     0.24172   0.25000   0.30012   0.00000  Uiso   1.00
C47    C     0.33066   0.29779   0.19949   0.00000  Uiso   1.00
C48    C     0.03216   0.33939   0.20555   0.00000  Uiso   1.00
H49    H     0.03867   0.34983   0.24418   0.00000  Uiso   1.00
H50    H     0.06900   0.33344   0.19228   0.00000  Uiso   1.00
H51    H     0.01424   0.36670   0.18375   0.00000  Uiso   1.00
H52    H     0.32943   0.28526   0.16181   0.00000  Uiso   1.00
H53    H     0.29283   0.30961   0.20465   0.00000  Uiso   1.00
C54    C     0.00714   0.21005   0.30758   0.00000  Uiso   1.00
C55    C     0.30235   0.17747   0.32745   0.00000  Uiso   1.00
H56    H     0.28061   0.19395   0.35353   0.00000  Uiso   1.00
H57    H     0.27592   0.16209   0.29757   0.00000  Uiso   1.00
H58    H     0.32339   0.15071   0.34749   0.00000  Uiso   1.00
H59    H     0.03484   0.18906   0.29300   0.00000  Uiso   1.00
H60    H     0.02741   0.22952   0.33845   0.00000  Uiso   1.00
C61    C     0.08941   0.10656   0.28902   0.00000  Uiso   1.00
C62    C     0.04932   0.11310   0.24573   0.00000  Uiso   1.00
H63    H     0.01220   0.11795   0.25910   0.00000  Uiso   1.00
H64    H     0.05962   0.14250   0.22457   0.00000  Uiso   1.00
H65    H     0.04539   0.08353   0.22177   0.00000  Uiso   1.00
H66    H     0.07341   0.08250   0.31399   0.00000  Uiso   1.00
H67    H     0.09711   0.13740   0.31018   0.00000  Uiso   1.00
C68    C     0.16346   0.39206   0.15592   0.00000  Uiso   1.00
C69    C     0.21522   0.38137   0.14101   0.00000  Uiso   1.00
H70    H     0.23444   0.35731   0.16634   0.00000  Uiso   1.00
H71    H     0.21011   0.36705   0.10389   0.00000  Uiso   1.00
H72    H     0.23989   0.41193   0.14114   0.00000  Uiso   1.00
H73    H     0.13616   0.36340   0.15035   0.00000  Uiso   1.00
H74    H     0.14635   0.41708   0.13015   0.00000  Uiso   1.00
I75    I     0.25841   0.13763   0.18568   0.00000  Uiso   1.00
I76    I     0.11262   0.37873   0.34492   0.00000  Uiso   1.00
C77    C     0.26748   0.03062   0.21833   0.00000  Uiso   1.00
C78    C     0.30412   0.01363   0.26038   0.00000  Uiso   1.00
H79    H     0.31307   0.03954   0.28872   0.00000  Uiso   1.00
H80    H     0.28766   0.48355   0.27618   0.00000  Uiso   1.00
H81    H     0.00689   0.00461   0.24700   0.00000  Uiso   1.00
H82    H     0.25607   0.00332   0.19241   0.00000  Uiso   1.00
H83    H     0.28980   0.05393   0.19805   0.00000  Uiso   1.00
C84    C     0.18547   0.47207   0.35033   0.00000  Uiso   1.00
C85    C     0.23968   0.49116   0.36316   0.00000  Uiso   1.00
H86    H     0.26778   0.46611   0.35699   0.00000  Uiso   1.00
H87    H     0.24621   0.02128   0.34176   0.00000  Uiso   1.00
H88    H     0.24566   0.00071   0.40208   0.00000  Uiso   1.00
H89    H     0.15790   0.49793   0.35454   0.00000  Uiso   1.00
H90    H     0.18004   0.44715   0.37861   0.00000  Uiso   1.00
I91    I     0.28723   0.27598   0.04014   0.00000  Uiso   1.00
I92    I     0.12153   0.14969   0.46922   0.00000  Uiso   1.00
I93    I     0.06824   0.18829   0.11916   0.00000  Uiso   1.00
I94    I     0.24697   0.32865   0.37601   0.00000  Uiso   1.00
C95    C     0.50115   0.16496   0.25005   0.00000  Uiso   1.00
C96    C     0.49785   0.33532   0.24961   0.00000  Uiso   1.00
C97    C     0.54650   0.26277   0.06034   0.00000  Uiso   1.00
C98    C     0.47981   0.21176   0.44286   0.00000  Uiso   1.00
C99    C     0.54236   0.26570   0.11041   0.00000  Uiso   1.00
C100   C     0.47674   0.21547   0.39196   0.00000  Uiso   1.00
C101   C     0.46026   0.23144   0.09822   0.00000  Uiso   1.00
C102   C     0.52649   0.28207   0.39971   0.00000  Uiso   1.00
C103   C     0.46007   0.23406   0.04792   0.00000  Uiso   1.00
C104   C     0.52438   0.28258   0.44979   0.00000  Uiso   1.00
C105   C     0.50380   0.24772   0.02759   0.00000  Uiso   1.00
C106   C     0.50290   0.24676   0.47301   0.00000  Uiso   1.00
C107   C     0.40163   0.25131   0.23831   0.00000  Uiso   1.00
C108   C     0.59840   0.24910   0.26207   0.00000  Uiso   1.00
C109   C     0.34824   0.26108   0.23501   0.00000  Uiso   1.00
C110   C     0.65241   0.24200   0.26754   0.00000  Uiso   1.00
C111   C     0.47620   0.04441   0.27362   0.00000  Uiso   1.00
C112   C     0.50954   0.45572   0.21216   0.00000  Uiso   1.00
C113   C     0.47066   0.08967   0.27236   0.00000  Uiso   1.00
C114   C     0.50218   0.41008   0.20738   0.00000  Uiso   1.00
C115   C     0.50591   0.11673   0.25046   0.00000  Uiso   1.00
C116   C     0.49693   0.38439   0.24964   0.00000  Uiso   1.00
C117   C     0.54621   0.09740   0.22948   0.00000  Uiso   1.00
C118   C     0.49330   0.40673   0.29387   0.00000  Uiso   1.00
C119   C     0.55435   0.05144   0.23545   0.00000  Uiso   1.00
C120   C     0.50995   0.45145   0.29965   0.00000  Uiso   1.00
C121   C     0.51800   0.02511   0.25755   0.00000  Uiso   1.00
C122   C     0.51657   0.47636   0.25744   0.00000  Uiso   1.00
Cu123  Cu    0.50000   0.24999   0.29822   0.00000  Uiso   1.00
Cu124  Cu    0.50000   0.25000   0.20179   0.00000  Uiso   1.00
H125   H     0.44621   0.02343   0.28595   0.00000  Uiso   1.00
H126   H     0.50915   0.47575   0.17974   0.00000  Uiso   1.00
H127   H     0.57447   0.27853   0.13444   0.00000  Uiso   1.00
H128   H     0.45787   0.18927   0.36950   0.00000  Uiso   1.00
H129   H     0.42612   0.22299   0.02474   0.00000  Uiso   1.00
H130   H     0.54166   0.31051   0.47074   0.00000  Uiso   1.00
N131   N     0.50000   0.25001   0.12935   0.00000  Uiso   1.00
N132   N     0.50000   0.24999   0.37066   0.00000  Uiso   1.00
O133   O     0.50000   0.18572   0.29072   0.00000  Uiso   1.00
O134   O     0.50000   0.31427   0.20929   0.00000  Uiso   1.00
O135   O     0.50000   0.18573   0.20928   0.00000  Uiso   1.00
O136   O     0.50000   0.31427   0.29072   0.00000  Uiso   1.00
O137   O     0.42495   0.24999   0.28132   0.00000  Uiso   1.00
O138   O     0.57505   0.25000   0.21868   0.00000  Uiso   1.00
O139   O     0.42495   0.25000   0.19989   0.00000  Uiso   1.00
O140   O     0.57505   0.25000   0.30012   0.00000  Uiso   1.00
C141   C     0.66399   0.29779   0.19949   0.00000  Uiso   1.00
C142   C     0.36549   0.33939   0.20555   0.00000  Uiso   1.00
H143   H     0.37201   0.34983   0.24418   0.00000  Uiso   1.00
H144   H     0.40233   0.33344   0.19228   0.00000  Uiso   1.00
H145   H     0.34757   0.36670   0.18375   0.00000  Uiso   1.00
H146   H     0.66276   0.28526   0.16181   0.00000  Uiso   1.00
H147   H     0.62616   0.30961   0.20465   0.00000  Uiso   1.00
C148   C     0.34047   0.21005   0.30758   0.00000  Uiso   1.00
C149   C     0.63568   0.17747   0.32745   0.00000  Uiso   1.00
H150   H     0.61395   0.19395   0.35353   0.00000  Uiso   1.00
H151   H     0.60926   0.16209   0.29757   0.00000  Uiso   1.00
H152   H     0.65673   0.15071   0.34749   0.00000  Uiso   1.00
H153   H     0.36817   0.18906   0.29300   0.00000  Uiso   1.00
H154   H     0.36074   0.22952   0.33845   0.00000  Uiso   1.00
C155   C     0.42274   0.10656   0.28902   0.00000  Uiso   1.00
C156   C     0.38265   0.11310   0.24573   0.00000  Uiso   1.00
H157   H     0.34554   0.11795   0.25910   0.00000  Uiso   1.00
H158   H     0.39295   0.14250   0.22457   0.00000  Uiso   1.00
H159   H     0.37872   0.08353   0.22177   0.00000  Uiso   1.00
H160   H     0.40674   0.08250   0.31399   0.00000  Uiso   1.00
H161   H     0.43044   0.13740   0.31018   0.00000  Uiso   1.00
C162   C     0.49680   0.39206   0.15592   0.00000  Uiso   1.00
C163   C     0.54856   0.38137   0.14101   0.00000  Uiso   1.00
H164   H     0.56778   0.35731   0.16634   0.00000  Uiso   1.00
H165   H     0.54345   0.36705   0.10389   0.00000  Uiso   1.00
H166   H     0.57322   0.41193   0.14114   0.00000  Uiso   1.00
H167   H     0.46949   0.36340   0.15035   0.00000  Uiso   1.00
H168   H     0.47969   0.41708   0.13015   0.00000  Uiso   1.00
I169   I     0.59174   0.13763   0.18568   0.00000  Uiso   1.00
I170   I     0.44595   0.37873   0.34492   0.00000  Uiso   1.00
C171   C     0.60081   0.03062   0.21833   0.00000  Uiso   1.00
C172   C     0.63745   0.01363   0.26038   0.00000  Uiso   1.00
H173   H     0.64640   0.03954   0.28872   0.00000  Uiso   1.00
H174   H     0.62100   0.48355   0.27618   0.00000  Uiso   1.00
H175   H     0.34022   0.00461   0.24700   0.00000  Uiso   1.00
H176   H     0.58940   0.00332   0.19241   0.00000  Uiso   1.00
H177   H     0.62314   0.05393   0.19805   0.00000  Uiso   1.00
C178   C     0.51880   0.47207   0.35033   0.00000  Uiso   1.00
C179   C     0.57302   0.49116   0.36316   0.00000  Uiso   1.00
H180   H     0.60112   0.46611   0.35699   0.00000  Uiso   1.00
H181   H     0.57954   0.02128   0.34176   0.00000  Uiso   1.00
H182   H     0.57900   0.00071   0.40208   0.00000  Uiso   1.00
H183   H     0.49123   0.49793   0.35454   0.00000  Uiso   1.00
H184   H     0.51338   0.44715   0.37861   0.00000  Uiso   1.00
I185   I     0.62057   0.27598   0.04014   0.00000  Uiso   1.00
I186   I     0.45486   0.14969   0.46922   0.00000  Uiso   1.00
I187   I     0.40158   0.18829   0.11916   0.00000  Uiso   1.00
I188   I     0.58030   0.32865   0.37601   0.00000  Uiso   1.00
C189   C     0.83449   0.16496   0.25005   0.00000  Uiso   1.00
C190   C     0.83119   0.33532   0.24961   0.00000  Uiso   1.00
C191   C     0.87984   0.26277   0.06034   0.00000  Uiso   1.00
C192   C     0.81315   0.21176   0.44286   0.00000  Uiso   1.00
C193   C     0.87569   0.26570   0.11041   0.00000  Uiso   1.00
C194   C     0.81008   0.21547   0.39196   0.00000  Uiso   1.00
C195   C     0.79360   0.23144   0.09822   0.00000  Uiso   1.00
C196   C     0.85982   0.28207   0.39971   0.00000  Uiso   1.00
C197   C     0.79340   0.23406   0.04792   0.00000  Uiso   1.00
C198   C     0.85772   0.28258   0.44979   0.00000  Uiso   1.00
C199   C     0.83713   0.24772   0.02759   0.00000  Uiso   1.00
C200   C     0.83624   0.24676   0.47301   0.00000  Uiso   1.00
C201   C     0.73496   0.25131   0.23831   0.00000  Uiso   1.00
C202   C     0.93173   0.24910   0.26207   0.00000  Uiso   1.00
C203   C     0.68157   0.26108   0.23501   0.00000  Uiso   1.00
C204   C     0.98574   0.24200   0.26754   0.00000  Uiso   1.00
C205   C     0.80953   0.04441   0.27362   0.00000  Uiso   1.00
C206   C     0.84288   0.45572   0.21216   0.00000  Uiso   1.00
C207   C     0.80399   0.08967   0.27236   0.00000  Uiso   1.00
C208   C     0.83552   0.41008   0.20738   0.00000  Uiso   1.00
C209   C     0.83924   0.11673   0.25046   0.00000  Uiso   1.00
C210   C     0.83027   0.38439   0.24964   0.00000  Uiso   1.00
C211   C     0.87955   0.09740   0.22948   0.00000  Uiso   1.00
C212   C     0.82664   0.40673   0.29387   0.00000  Uiso   1.00
C213   C     0.88768   0.05144   0.23545   0.00000  Uiso   1.00
C214   C     0.84329   0.45145   0.29965   0.00000  Uiso   1.00
C215   C     0.85133   0.02511   0.25755   0.00000  Uiso   1.00
C216   C     0.84991   0.47636   0.25744   0.00000  Uiso   1.00
Cu217  Cu    0.83333   0.24999   0.29822   0.00000  Uiso   1.00
Cu218  Cu    0.83333   0.25000   0.20179   0.00000  Uiso   1.00
H219   H     0.77954   0.02343   0.28595   0.00000  Uiso   1.00
H220   H     0.84248   0.47575   0.17974   0.00000  Uiso   1.00
H221   H     0.90780   0.27853   0.13444   0.00000  Uiso   1.00
H222   H     0.79121   0.18927   0.36950   0.00000  Uiso   1.00
H223   H     0.75946   0.22299   0.02474   0.00000  Uiso   1.00
H224   H     0.87499   0.31051   0.47074   0.00000  Uiso   1.00
N225   N     0.83333   0.25001   0.12935   0.00000  Uiso   1.00
N226   N     0.83333   0.24999   0.37066   0.00000  Uiso   1.00
O227   O     0.83334   0.18572   0.29072   0.00000  Uiso   1.00
O228   O     0.83333   0.31427   0.20929   0.00000  Uiso   1.00
O229   O     0.83334   0.18573   0.20928   0.00000  Uiso   1.00
O230   O     0.83333   0.31427   0.29072   0.00000  Uiso   1.00
O231   O     0.75828   0.24999   0.28132   0.00000  Uiso   1.00
O232   O     0.90839   0.25000   0.21868   0.00000  Uiso   1.00
O233   O     0.75828   0.25000   0.19989   0.00000  Uiso   1.00
O234   O     0.90839   0.25000   0.30012   0.00000  Uiso   1.00
C235   C     0.99732   0.29779   0.19949   0.00000  Uiso   1.00
C236   C     0.69882   0.33939   0.20555   0.00000  Uiso   1.00
H237   H     0.70534   0.34983   0.24418   0.00000  Uiso   1.00
H238   H     0.73566   0.33344   0.19228   0.00000  Uiso   1.00
H239   H     0.68090   0.36670   0.18375   0.00000  Uiso   1.00
H240   H     0.99610   0.28526   0.16181   0.00000  Uiso   1.00
H241   H     0.95949   0.30961   0.20465   0.00000  Uiso   1.00
C242   C     0.67381   0.21005   0.30758   0.00000  Uiso   1.00
C243   C     0.96901   0.17747   0.32745   0.00000  Uiso   1.00
H244   H     0.94728   0.19395   0.35353   0.00000  Uiso   1.00
H245   H     0.94259   0.16209   0.29757   0.00000  Uiso   1.00
H246   H     0.99006   0.15071   0.34749   0.00000  Uiso   1.00
H247   H     0.70151   0.18906   0.29300   0.00000  Uiso   1.00
H248   H     0.69408   0.22952   0.33845   0.00000  Uiso   1.00
C249   C     0.75607   0.10656   0.28902   0.00000  Uiso   1.00
C250   C     0.71599   0.11310   0.24573   0.00000  Uiso   1.00
H251   H     0.67887   0.11795   0.25910   0.00000  Uiso   1.00
H252   H     0.72629   0.14250   0.22457   0.00000  Uiso   1.00
H253   H     0.71205   0.08353   0.22177   0.00000  Uiso   1.00
H254   H     0.74007   0.08250   0.31399   0.00000  Uiso   1.00
H255   H     0.76378   0.13740   0.31018   0.00000  Uiso   1.00
C256   C     0.83013   0.39206   0.15592   0.00000  Uiso   1.00
C257   C     0.88189   0.38137   0.14101   0.00000  Uiso   1.00
H258   H     0.90111   0.35731   0.16634   0.00000  Uiso   1.00
H259   H     0.87678   0.36705   0.10389   0.00000  Uiso   1.00
H260   H     0.90655   0.41193   0.14114   0.00000  Uiso   1.00
H261   H     0.80283   0.36340   0.15035   0.00000  Uiso   1.00
H262   H     0.81302   0.41708   0.13015   0.00000  Uiso   1.00
I263   I     0.92508   0.13763   0.18568   0.00000  Uiso   1.00
I264   I     0.77929   0.37873   0.34492   0.00000  Uiso   1.00
C265   C     0.93415   0.03062   0.21833   0.00000  Uiso   1.00
C266   C     0.97079   0.01363   0.26038   0.00000  Uiso   1.00
H267   H     0.97974   0.03954   0.28872   0.00000  Uiso   1.00
H268   H     0.95433   0.48355   0.27618   0.00000  Uiso   1.00
H269   H     0.67356   0.00461   0.24700   0.00000  Uiso   1.00
H270   H     0.92273   0.00332   0.19241   0.00000  Uiso   1.00
H271   H     0.95647   0.05393   0.19805   0.00000  Uiso   1.00
C272   C     0.85214   0.47207   0.35033   0.00000  Uiso   1.00
C273   C     0.90635   0.49116   0.36316   0.00000  Uiso   1.00
H274   H     0.93445   0.46611   0.35699   0.00000  Uiso   1.00
H275   H     0.91287   0.02128   0.34176   0.00000  Uiso   1.00
H276   H     0.91233   0.00071   0.40208   0.00000  Uiso   1.00
H277   H     0.82457   0.49793   0.35454   0.00000  Uiso   1.00
H278   H     0.84671   0.44715   0.37861   0.00000  Uiso   1.00
I279   I     0.95390   0.27598   0.04014   0.00000  Uiso   1.00
I280   I     0.78820   0.14969   0.46922   0.00000  Uiso   1.00
I281   I     0.73491   0.18829   0.11916   0.00000  Uiso   1.00
I282   I     0.91364   0.32865   0.37601   0.00000  Uiso   1.00
C283   C     0.16782   0.66496   0.25005   0.00000  Uiso   1.00
C284   C     0.16452   0.83532   0.24961   0.00000  Uiso   1.00
C285   C     0.21317   0.76277   0.06034   0.00000  Uiso   1.00
C286   C     0.14648   0.71176   0.44286   0.00000  Uiso   1.00
C287   C     0.20902   0.76570   0.11041   0.00000  Uiso   1.00
C288   C     0.14341   0.71547   0.39196   0.00000  Uiso   1.00
C289   C     0.12693   0.73144   0.09822   0.00000  Uiso   1.00
C290   C     0.19315   0.78207   0.39971   0.00000  Uiso   1.00
C291   C     0.12673   0.73406   0.04792   0.00000  Uiso   1.00
C292   C     0.19105   0.78258   0.44979   0.00000  Uiso   1.00
C293   C     0.17047   0.74772   0.02759   0.00000  Uiso   1.00
C294   C     0.16957   0.74676   0.47301   0.00000  Uiso   1.00
C295   C     0.06829   0.75131   0.23831   0.00000  Uiso   1.00
C296   C     0.26507   0.74910   0.26207   0.00000  Uiso   1.00
C297   C     0.01491   0.76108   0.23501   0.00000  Uiso   1.00
C298   C     0.31907   0.74200   0.26754   0.00000  Uiso   1.00
C299   C     0.14286   0.54441   0.27362   0.00000  Uiso   1.00
C300   C     0.17621   0.95572   0.21216   0.00000  Uiso   1.00
C301   C     0.13732   0.58967   0.27236   0.00000  Uiso   1.00
C302   C     0.16885   0.91008   0.20738   0.00000  Uiso   1.00
C303   C     0.17258   0.61673   0.25046   0.00000  Uiso   1.00
C304   C     0.16360   0.88439   0.24964   0.00000  Uiso   1.00
C305   C     0.21288   0.59740   0.22948   0.00000  Uiso   1.00
C306   C     0.15997   0.90673   0.29387   0.00000  Uiso   1.00
C307   C     0.22102   0.55144   0.23545   0.00000  Uiso   1.00
C308   C     0.17662   0.95145   0.29965   0.00000  Uiso   1.00
C309   C     0.18466   0.52511   0.25755   0.00000  Uiso   1.00
C310   C     0.18324   0.97636   0.25744   0.00000  Uiso   1.00
Cu311  Cu    0.16667   0.74999   0.29822   0.00000  Uiso   1.00
Cu312  Cu    0.16667   0.75000   0.20179   0.00000  Uiso   1.00
H313   H     0.11287   0.52343   0.28595   0.00000  Uiso   1.00
H314   H     0.17581   0.97575   0.17974   0.00000  Uiso   1.00
H315   H     0.24114   0.77853   0.13444   0.00000  Uiso   1.00
H316   H     0.12454   0.68927   0.36950   0.00000  Uiso   1.00
H317   H     0.09279   0.72299   0.02474   0.00000  Uiso   1.00
H318   H     0.20832   0.81051   0.47074   0.00000  Uiso   1.00
N319   N     0.16667   0.75001   0.12935   0.00000  Uiso   1.00
N320   N     0.16667   0.74999   0.37066   0.00000  Uiso   1.00
O321   O     0.16667   0.68572   0.29072   0.00000  Uiso   1.00
O322   O     0.16666   0.81427   0.20929   0.00000  Uiso   1.00
O323   O     0.16667   0.68573   0.20928   0.00000  Uiso   1.00
O324   O     0.16666   0.81427   0.29072   0.00000  Uiso   1.00
O325   O     0.09161   0.74999   0.28132   0.00000  Uiso   1.00
O326   O     0.24172   0.75000   0.21868   0.00000  Uiso   1.00
O327   O     0.09161   0.75000   0.19989   0.00000  Uiso   1.00
O328   O     0.24172   0.75000   0.30012   0.00000  Uiso   1.00
C329   C     0.33066   0.79779   0.19949   0.00000  Uiso   1.00
C330   C     0.03216   0.83939   0.20555   0.00000  Uiso   1.00
H331   H     0.03867   0.84983   0.24418   0.00000  Uiso   1.00
H332   H     0.06900   0.83344   0.19228   0.00000  Uiso   1.00
H333   H     0.01424   0.86670   0.18375   0.00000  Uiso   1.00
H334   H     0.32943   0.78526   0.16181   0.00000  Uiso   1.00
H335   H     0.29283   0.80961   0.20465   0.00000  Uiso   1.00
C336   C     0.00714   0.71005   0.30758   0.00000  Uiso   1.00
C337   C     0.30235   0.67747   0.32745   0.00000  Uiso   1.00
H338   H     0.28061   0.69395   0.35353   0.00000  Uiso   1.00
H339   H     0.27592   0.66209   0.29757   0.00000  Uiso   1.00
H340   H     0.32339   0.65071   0.34749   0.00000  Uiso   1.00
H341   H     0.03484   0.68906   0.29300   0.00000  Uiso   1.00
H342   H     0.02741   0.72952   0.33845   0.00000  Uiso   1.00
C343   C     0.08941   0.60656   0.28902   0.00000  Uiso   1.00
C344   C     0.04932   0.61310   0.24573   0.00000  Uiso   1.00
H345   H     0.01220   0.61795   0.25910   0.00000  Uiso   1.00
H346   H     0.05962   0.64250   0.22457   0.00000  Uiso   1.00
H347   H     0.04539   0.58353   0.22177   0.00000  Uiso   1.00
H348   H     0.07341   0.58250   0.31399   0.00000  Uiso   1.00
H349   H     0.09711   0.63740   0.31018   0.00000  Uiso   1.00
C350   C     0.16346   0.89206   0.15592   0.00000  Uiso   1.00
C351   C     0.21522   0.88137   0.14101   0.00000  Uiso   1.00
H352   H     0.23444   0.85731   0.16634   0.00000  Uiso   1.00
H353   H     0.21011   0.86705   0.10389   0.00000  Uiso   1.00
H354   H     0.23989   0.91193   0.14114   0.00000  Uiso   1.00
H355   H     0.13616   0.86340   0.15035   0.00000  Uiso   1.00
H356   H     0.14635   0.91708   0.13015   0.00000  Uiso   1.00
I357   I     0.25841   0.63763   0.18568   0.00000  Uiso   1.00
I358   I     0.11262   0.87873   0.34492   0.00000  Uiso   1.00
C359   C     0.26748   0.53062   0.21833   0.00000  Uiso   1.00
C360   C     0.30412   0.51363   0.26038   0.00000  Uiso   1.00
H361   H     0.31307   0.53954   0.28872   0.00000  Uiso   1.00
H362   H     0.28766   0.98355   0.27618   0.00000  Uiso   1.00
H363   H     0.00689   0.50461   0.24700   0.00000  Uiso   1.00
H364   H     0.25607   0.50332   0.19241   0.00000  Uiso   1.00
H365   H     0.28980   0.55393   0.19805   0.00000  Uiso   1.00
C366   C     0.18547   0.97207   0.35033   0.00000  Uiso   1.00
C367   C     0.23968   0.99116   0.36316   0.00000  Uiso   1.00
H368   H     0.26778   0.96611   0.35699   0.00000  Uiso   1.00
H369   H     0.24621   0.52128   0.34176   0.00000  Uiso   1.00
H370   H     0.24566   0.50071   0.40208   0.00000  Uiso   1.00
H371   H     0.15790   0.99793   0.35454   0.00000  Uiso   1.00
H372   H     0.18004   0.94715   0.37861   0.00000  Uiso   1.00
I373   I     0.28723   0.77598   0.04014   0.00000  Uiso   1.00
I374   I     0.12153   0.64969   0.46922   0.00000  Uiso   1.00
I375   I     0.06824   0.68829   0.11916   0.00000  Uiso   1.00
I376   I     0.24697   0.82865   0.37601   0.00000  Uiso   1.00
C377   C     0.50115   0.66496   0.25005   0.00000  Uiso   1.00
C378   C     0.49785   0.83532   0.24961   0.00000  Uiso   1.00
C379   C     0.54650   0.76277   0.06034   0.00000  Uiso   1.00
C380   C     0.47981   0.71176   0.44286   0.00000  Uiso   1.00
C381   C     0.54236   0.76570   0.11041   0.00000  Uiso   1.00
C382   C     0.47674   0.71547   0.39196   0.00000  Uiso   1.00
C383   C     0.46026   0.73144   0.09822   0.00000  Uiso   1.00
C384   C     0.52649   0.78207   0.39971   0.00000  Uiso   1.00
C385   C     0.46007   0.73406   0.04792   0.00000  Uiso   1.00
C386   C     0.52438   0.78258   0.44979   0.00000  Uiso   1.00
C387   C     0.50380   0.74772   0.02759   0.00000  Uiso   1.00
C388   C     0.50290   0.74676   0.47301   0.00000  Uiso   1.00
C389   C     0.40163   0.75131   0.23831   0.00000  Uiso   1.00
C390   C     0.59840   0.74910   0.26207   0.00000  Uiso   1.00
C391   C     0.34824   0.76108   0.23501   0.00000  Uiso   1.00
C392   C     0.65241   0.74200   0.26754   0.00000  Uiso   1.00
C393   C     0.47620   0.54441   0.27362   0.00000  Uiso   1.00
C394   C     0.50954   0.95572   0.21216   0.00000  Uiso   1.00
C395   C     0.47066   0.58967   0.27236   0.00000  Uiso   1.00
C396   C     0.50218   0.91008   0.20738   0.00000  Uiso   1.00
C397   C     0.50591   0.61673   0.25046   0.00000  Uiso   1.00
C398   C     0.49693   0.88439   0.24964   0.00000  Uiso   1.00
C399   C     0.54621   0.59740   0.22948   0.00000  Uiso   1.00
C400   C     0.49330   0.90673   0.29387   0.00000  Uiso   1.00
C401   C     0.55435   0.55144   0.23545   0.00000  Uiso   1.00
C402   C     0.50995   0.95145   0.29965   0.00000  Uiso   1.00
C403   C     0.51800   0.52511   0.25755   0.00000  Uiso   1.00
C404   C     0.51657   0.97636   0.25744   0.00000  Uiso   1.00
Cu405  Cu    0.50000   0.74999   0.29822   0.00000  Uiso   1.00
Cu406  Cu    0.50000   0.75000   0.20179   0.00000  Uiso   1.00
H407   H     0.44621   0.52343   0.28595   0.00000  Uiso   1.00
H408   H     0.50915   0.97575   0.17974   0.00000  Uiso   1.00
H409   H     0.57447   0.77853   0.13444   0.00000  Uiso   1.00
H410   H     0.45787   0.68927   0.36950   0.00000  Uiso   1.00
H411   H     0.42612   0.72299   0.02474   0.00000  Uiso   1.00
H412   H     0.54166   0.81051   0.47074   0.00000  Uiso   1.00
N413   N     0.50000   0.75001   0.12935   0.00000  Uiso   1.00
N414   N     0.50000   0.74999   0.37066   0.00000  Uiso   1.00
O415   O     0.50000   0.68572   0.29072   0.00000  Uiso   1.00
O416   O     0.50000   0.81427   0.20929   0.00000  Uiso   1.00
O417   O     0.50000   0.68573   0.20928   0.00000  Uiso   1.00
O418   O     0.50000   0.81427   0.29072   0.00000  Uiso   1.00
O419   O     0.42495   0.74999   0.28132   0.00000  Uiso   1.00
O420   O     0.57505   0.75000   0.21868   0.00000  Uiso   1.00
O421   O     0.42495   0.75000   0.19989   0.00000  Uiso   1.00
O422   O     0.57505   0.75000   0.30012   0.00000  Uiso   1.00
C423   C     0.66399   0.79779   0.19949   0.00000  Uiso   1.00
C424   C     0.36549   0.83939   0.20555   0.00000  Uiso   1.00
H425   H     0.37201   0.84983   0.24418   0.00000  Uiso   1.00
H426   H     0.40233   0.83344   0.19228   0.00000  Uiso   1.00
H427   H     0.34757   0.86670   0.18375   0.00000  Uiso   1.00
H428   H     0.66276   0.78526   0.16181   0.00000  Uiso   1.00
H429   H     0.62616   0.80961   0.20465   0.00000  Uiso   1.00
C430   C     0.34047   0.71005   0.30758   0.00000  Uiso   1.00
C431   C     0.63568   0.67747   0.32745   0.00000  Uiso   1.00
H432   H     0.61395   0.69395   0.35353   0.00000  Uiso   1.00
H433   H     0.60926   0.66209   0.29757   0.00000  Uiso   1.00
H434   H     0.65673   0.65071   0.34749   0.00000  Uiso   1.00
H435   H     0.36817   0.68906   0.29300   0.00000  Uiso   1.00
H436   H     0.36074   0.72952   0.33845   0.00000  Uiso   1.00
C437   C     0.42274   0.60656   0.28902   0.00000  Uiso   1.00
C438   C     0.38265   0.61310   0.24573   0.00000  Uiso   1.00
H439   H     0.34554   0.61795   0.25910   0.00000  Uiso   1.00
H440   H     0.39295   0.64250   0.22457   0.00000  Uiso   1.00
H441   H     0.37872   0.58353   0.22177   0.00000  Uiso   1.00
H442   H     0.40674   0.58250   0.31399   0.00000  Uiso   1.00
H443   H     0.43044   0.63740   0.31018   0.00000  Uiso   1.00
C444   C     0.49680   0.89206   0.15592   0.00000  Uiso   1.00
C445   C     0.54856   0.88137   0.14101   0.00000  Uiso   1.00
H446   H     0.56778   0.85731   0.16634   0.00000  Uiso   1.00
H447   H     0.54345   0.86705   0.10389   0.00000  Uiso   1.00
H448   H     0.57322   0.91193   0.14114   0.00000  Uiso   1.00
H449   H     0.46949   0.86340   0.15035   0.00000  Uiso   1.00
H450   H     0.47969   0.91708   0.13015   0.00000  Uiso   1.00
I451   I     0.59174   0.63763   0.18568   0.00000  Uiso   1.00
I452   I     0.44595   0.87873   0.34492   0.00000  Uiso   1.00
C453   C     0.60081   0.53062   0.21833   0.00000  Uiso   1.00
C454   C     0.63745   0.51363   0.26038   0.00000  Uiso   1.00
H455   H     0.64640   0.53954   0.28872   0.00000  Uiso   1.00
H456   H     0.62100   0.98355   0.27618   0.00000  Uiso   1.00
H457   H     0.34022   0.50461   0.24700   0.00000  Uiso   1.00
H458   H     0.58940   0.50332   0.19241   0.00000  Uiso   1.00
H459   H     0.62314   0.55393   0.19805   0.00000  Uiso   1.00
C460   C     0.51880   0.97207   0.35033   0.00000  Uiso   1.00
C461   C     0.57302   0.99116   0.36316   0.00000  Uiso   1.00
H462   H     0.60112   0.96611   0.35699   0.00000  Uiso   1.00
H463   H     0.57954   0.52128   0.34176   0.00000  Uiso   1.00
H464   H     0.57900   0.50071   0.40208   0.00000  Uiso   1.00
H465   H     0.49123   0.99793   0.35454   0.00000  Uiso   1.00
H466   H     0.51338   0.94715   0.37861   0.00000  Uiso   1.00
I467   I     0.62057   0.77598   0.04014   0.00000  Uiso   1.00
I468   I     0.45486   0.64969   0.46922   0.00000  Uiso   1.00
I469   I     0.40158   0.68829   0.11916   0.00000  Uiso   1.00
I470   I     0.58030   0.82865   0.37601   0.00000  Uiso   1.00
C471   C     0.83449   0.66496   0.25005   0.00000  Uiso   1.00
C472   C     0.83119   0.83532   0.24961   0.00000  Uiso   1.00
C473   C     0.87984   0.76277   0.06034   0.00000  Uiso   1.00
C474   C     0.81315   0.71176   0.44286   0.00000  Uiso   1.00
C475   C     0.87569   0.76570   0.11041   0.00000  Uiso   1.00
C476   C     0.81008   0.71547   0.39196   0.00000  Uiso   1.00
C477   C     0.79360   0.73144   0.09822   0.00000  Uiso   1.00
C478   C     0.85982   0.78207   0.39971   0.00000  Uiso   1.00
C479   C     0.79340   0.73406   0.04792   0.00000  Uiso   1.00
C480   C     0.85772   0.78258   0.44979   0.00000  Uiso   1.00
C481   C     0.83713   0.74772   0.02759   0.00000  Uiso   1.00
C482   C     0.83624   0.74676   0.47301   0.00000  Uiso   1.00
C483   C     0.73496   0.75131   0.23831   0.00000  Uiso   1.00
C484   C     0.93173   0.74910   0.26207   0.00000  Uiso   1.00
C485   C     0.68157   0.76108   0.23501   0.00000  Uiso   1.00
C486   C     0.98574   0.74200   0.26754   0.00000  Uiso   1.00
C487   C     0.80953   0.54441   0.27362   0.00000  Uiso   1.00
C488   C     0.84288   0.95572   0.21216   0.00000  Uiso   1.00
C489   C     0.80399   0.58967   0.27236   0.00000  Uiso   1.00
C490   C     0.83552   0.91008   0.20738   0.00000  Uiso   1.00
C491   C     0.83924   0.61673   0.25046   0.00000  Uiso   1.00
C492   C     0.83027   0.88439   0.24964   0.00000  Uiso   1.00
C493   C     0.87955   0.59740   0.22948   0.00000  Uiso   1.00
C494   C     0.82664   0.90673   0.29387   0.00000  Uiso   1.00
C495   C     0.88768   0.55144   0.23545   0.00000  Uiso   1.00
C496   C     0.84329   0.95145   0.29965   0.00000  Uiso   1.00
C497   C     0.85133   0.52511   0.25755   0.00000  Uiso   1.00
C498   C     0.84991   0.97636   0.25744   0.00000  Uiso   1.00
Cu499  Cu    0.83333   0.74999   0.29822   0.00000  Uiso   1.00
Cu500  Cu    0.83333   0.75000   0.20179   0.00000  Uiso   1.00
H501   H     0.77954   0.52343   0.28595   0.00000  Uiso   1.00
H502   H     0.84248   0.97575   0.17974   0.00000  Uiso   1.00
H503   H     0.90780   0.77853   0.13444   0.00000  Uiso   1.00
H504   H     0.79121   0.68927   0.36950   0.00000  Uiso   1.00
H505   H     0.75946   0.72299   0.02474   0.00000  Uiso   1.00
H506   H     0.87499   0.81051   0.47074   0.00000  Uiso   1.00
N507   N     0.83333   0.75001   0.12935   0.00000  Uiso   1.00
N508   N     0.83333   0.74999   0.37066   0.00000  Uiso   1.00
O509   O     0.83334   0.68572   0.29072   0.00000  Uiso   1.00
O510   O     0.83333   0.81427   0.20929   0.00000  Uiso   1.00
O511   O     0.83334   0.68573   0.20928   0.00000  Uiso   1.00
O512   O     0.83333   0.81427   0.29072   0.00000  Uiso   1.00
O513   O     0.75828   0.74999   0.28132   0.00000  Uiso   1.00
O514   O     0.90839   0.75000   0.21868   0.00000  Uiso   1.00
O515   O     0.75828   0.75000   0.19989   0.00000  Uiso   1.00
O516   O     0.90839   0.75000   0.30012   0.00000  Uiso   1.00
C517   C     0.99732   0.79779   0.19949   0.00000  Uiso   1.00
C518   C     0.69882   0.83939   0.20555   0.00000  Uiso   1.00
H519   H     0.70534   0.84983   0.24418   0.00000  Uiso   1.00
H520   H     0.73566   0.83344   0.19228   0.00000  Uiso   1.00
H521   H     0.68090   0.86670   0.18375   0.00000  Uiso   1.00
H522   H     0.99610   0.78526   0.16181   0.00000  Uiso   1.00
H523   H     0.95949   0.80961   0.20465   0.00000  Uiso   1.00
C524   C     0.67381   0.71005   0.30758   0.00000  Uiso   1.00
C525   C     0.96901   0.67747   0.32745   0.00000  Uiso   1.00
H526   H     0.94728   0.69395   0.35353   0.00000  Uiso   1.00
H527   H     0.94259   0.66209   0.29757   0.00000  Uiso   1.00
H528   H     0.99006   0.65071   0.34749   0.00000  Uiso   1.00
H529   H     0.70151   0.68906   0.29300   0.00000  Uiso   1.00
H530   H     0.69408   0.72952   0.33845   0.00000  Uiso   1.00
C531   C     0.75607   0.60656   0.28902   0.00000  Uiso   1.00
C532   C     0.71599   0.61310   0.24573   0.00000  Uiso   1.00
H533   H     0.67887   0.61795   0.25910   0.00000  Uiso   1.00
H534   H     0.72629   0.64250   0.22457   0.00000  Uiso   1.00
H535   H     0.71205   0.58353   0.22177   0.00000  Uiso   1.00
H536   H     0.74007   0.58250   0.31399   0.00000  Uiso   1.00
H537   H     0.76378   0.63740   0.31018   0.00000  Uiso   1.00
C538   C     0.83013   0.89206   0.15592   0.00000  Uiso   1.00
C539   C     0.88189   0.88137   0.14101   0.00000  Uiso   1.00
H540   H     0.90111   0.85731   0.16634   0.00000  Uiso   1.00
H541   H     0.87678   0.86705   0.10389   0.00000  Uiso   1.00
H542   H     0.90655   0.91193   0.14114   0.00000  Uiso   1.00
H543   H     0.80283   0.86340   0.15035   0.00000  Uiso   1.00
H544   H     0.81302   0.91708   0.13015   0.00000  Uiso   1.00
I545   I     0.92508   0.63763   0.18568   0.00000  Uiso   1.00
I546   I     0.77929   0.87873   0.34492   0.00000  Uiso   1.00
C547   C     0.93415   0.53062   0.21833   0.00000  Uiso   1.00
C548   C     0.97079   0.51363   0.26038   0.00000  Uiso   1.00
H549   H     0.97974   0.53954   0.28872   0.00000  Uiso   1.00
H550   H     0.95433   0.98355   0.27618   0.00000  Uiso   1.00
H551   H     0.67356   0.50461   0.24700   0.00000  Uiso   1.00
H552   H     0.92273   0.50332   0.19241   0.00000  Uiso   1.00
H553   H     0.95647   0.55393   0.19805   0.00000  Uiso   1.00
C554   C     0.85214   0.97207   0.35033   0.00000  Uiso   1.00
C555   C     0.90635   0.99116   0.36316   0.00000  Uiso   1.00
H556   H     0.93445   0.96611   0.35699   0.00000  Uiso   1.00
H557   H     0.91287   0.52128   0.34176   0.00000  Uiso   1.00
H558   H     0.91233   0.50071   0.40208   0.00000  Uiso   1.00
H559   H     0.82457   0.99793   0.35454   0.00000  Uiso   1.00
H560   H     0.84671   0.94715   0.37861   0.00000  Uiso   1.00
I561   I     0.95390   0.77598   0.04014   0.00000  Uiso   1.00
I562   I     0.78820   0.64969   0.46922   0.00000  Uiso   1.00
I563   I     0.73491   0.68829   0.11916   0.00000  Uiso   1.00
I564   I     0.91364   0.82865   0.37601   0.00000  Uiso   1.00
C565   C     0.16782   0.16496   0.75005   0.00000  Uiso   1.00
C566   C     0.16452   0.33532   0.74961   0.00000  Uiso   1.00
C567   C     0.21317   0.26277   0.56034   0.00000  Uiso   1.00
C568   C     0.14648   0.21176   0.94286   0.00000  Uiso   1.00
C569   C     0.20902   0.26570   0.61041   0.00000  Uiso   1.00
C570   C     0.14341   0.21547   0.89196   0.00000  Uiso   1.00
C571   C     0.12693   0.23144   0.59822   0.00000  Uiso   1.00
C572   C     0.19315   0.28207   0.89971   0.00000  Uiso   1.00
C573   C     0.12673   0.23406   0.54792   0.00000  Uiso   1.00
C574   C     0.19105   0.28258   0.94979   0.00000  Uiso   1.00
C575   C     0.17047   0.24772   0.52759   0.00000  Uiso   1.00
C576   C     0.16957   0.24676   0.97301   0.00000  Uiso   1.00
C577   C     0.06829   0.25131   0.73831   0.00000  Uiso   1.00
C578   C     0.26507   0.24910   0.76207   0.00000  Uiso   1.00
C579   C     0.01491   0.26108   0.73501   0.00000  Uiso   1.00
C580   C     0.31907   0.24200   0.76754   0.00000  Uiso   1.00
C581   C     0.14286   0.04441   0.77362   0.00000  Uiso   1.00
C582   C     0.17621   0.45572   0.71216   0.00000  Uiso   1.00
C583   C     0.13732   0.08967   0.77236   0.00000  Uiso   1.00
C584   C     0.16885   0.41008   0.70738   0.00000  Uiso   1.00
C585   C     0.17258   0.11673   0.75046   0.00000  Uiso   1.00
C586   C     0.16360   0.38439   0.74964   0.00000  Uiso   1.00
C587   C     0.21288   0.09740   0.72948   0.00000  Uiso   1.00
C588   C     0.15997   0.40673   0.79387   0.00000  Uiso   1.00
C589   C     0.22102   0.05144   0.73545   0.00000  Uiso   1.00
C590   C     0.17662   0.45145   0.79965   0.00000  Uiso   1.00
C591   C     0.18466   0.02511   0.75755   0.00000  Uiso   1.00
C592   C     0.18324   0.47636   0.75744   0.00000  Uiso   1.00
Cu593  Cu    0.16667   0.24999   0.79822   0.00000  Uiso   1.00
Cu594  Cu    0.16667   0.25000   0.70179   0.00000  Uiso   1.00
H595   H     0.11287   0.02343   0.78595   0.00000  Uiso   1.00
H596   H     0.17581   0.47575   0.67974   0.00000  Uiso   1.00
H597   H     0.24114   0.27853   0.63444   0.00000  Uiso   1.00
H598   H     0.12454   0.18927   0.86950   0.00000  Uiso   1.00
H599   H     0.09279   0.22299   0.52474   0.00000  Uiso   1.00
H600   H     0.20832   0.31051   0.97074   0.00000  Uiso   1.00
N601   N     0.16667   0.25001   0.62935   0.00000  Uiso   1.00
N602   N     0.16667   0.24999   0.87066   0.00000  Uiso   1.00
O603   O     0.16667   0.18572   0.79072   0.00000  Uiso   1.00
O604   O     0.16666   0.31427   0.70929   0.00000  Uiso   1.00
O605   O     0.16667   0.18573   0.70928   0.00000  Uiso   1.00
O606   O     0.16666   0.31427   0.79072   0.00000  Uiso   1.00
O607   O     0.09161   0.24999   0.78132   0.00000  Uiso   1.00
O608   O     0.24172   0.25000   0.71868   0.00000  Uiso   1.00
O609   O     0.09161   0.25000   0.69989   0.00000  Uiso   1.00
O610   O     0.24172   0.25000   0.80012   0.00000  Uiso   1.00
C611   C     0.33066   0.29779   0.69949   0.00000  Uiso   1.00
C612   C     0.03216   0.33939   0.70555   0.00000  Uiso   1.00
H613   H     0.03867   0.34983   0.74418   0.00000  Uiso   1.00
H614   H     0.06900   0.33344   0.69228   0.00000  Uiso   1.00
H615   H     0.01424   0.36670   0.68375   0.00000  Uiso   1.00
H616   H     0.32943   0.28526   0.66181   0.00000  Uiso   1.00
H617   H     0.29283   0.30961   0.70465   0.00000  Uiso   1.00
C618   C     0.00714   0.21005   0.80758   0.00000  Uiso   1.00
C619   C     0.30235   0.17747   0.82745   0.00000  Uiso   1.00
H620   H     0.28061   0.19395   0.85353   0.00000  Uiso   1.00
H621   H     0.27592   0.16209   0.79757   0.00000  Uiso   1.00
H622   H     0.32339   0.15071   0.84749   0.00000  Uiso   1.00
H623   H     0.03484   0.18906   0.79300   0.00000  Uiso   1.00
H624   H     0.02741   0.22952   0.83845   0.00000  Uiso   1.00
C625   C     0.08941   0.10656   0.78902   0.00000  Uiso   1.00
C626   C     0.04932   0.11310   0.74573   0.00000  Uiso   1.00
H627   H     0.01220   0.11795   0.75910   0.00000  Uiso   1.00
H628   H     0.05962   0.14250   0.72457   0.00000  Uiso   1.00
H629   H     0.04539   0.08353   0.72177   0.00000  Uiso   1.00
H630   H     0.07341   0.08250   0.81399   0.00000  Uiso   1.00
H631   H     0.09711   0.13740   0.81018   0.00000  Uiso   1.00
C632   C     0.16346   0.39206   0.65592   0.00000  Uiso   1.00
C633   C     0.21522   0.38137   0.64101   0.00000  Uiso   1.00
H634   H     0.23444   0.35731   0.66634   0.00000  Uiso   1.00
H635   H     0.21011   0.36705   0.60389   0.00000  Uiso   1.00
H636   H     0.23989   0.41193   0.64114   0.00000  Uiso   1.00
H637   H     0.13616   0.36340   0.65035   0.00000  Uiso   1.00
H638   H     0.14635   0.41708   0.63015   0.00000  Uiso   1.00
I639   I     0.25841   0.13763   0.68568   0.00000  Uiso   1.00
I640   I     0.11262   0.37873   0.84492   0.00000  Uiso   1.00
C641   C     0.26748   0.03062   0.71833   0.00000  Uiso   1.00
C642   C     0.30412   0.01363   0.76038   0.00000  Uiso   1.00
H643   H     0.31307   0.03954   0.78872   0.00000  Uiso   1.00
H644   H     0.28766   0.48355   0.77618   0.00000  Uiso   1.00
H645   H     0.00689   0.00461   0.74700   0.00000  Uiso   1.00
H646   H     0.25607   0.00332   0.69241   0.00000  Uiso   1.00
H647   H     0.28980   0.05393   0.69805   0.00000  Uiso   1.00
C648   C     0.18547   0.47207   0.85033   0.00000  Uiso   1.00
C649   C     0.23968   0.49116   0.86316   0.00000  Uiso   1.00
H650   H     0.26778   0.46611   0.85699   0.00000  Uiso   1.00
H651   H     0.24621   0.02128   0.84176   0.00000  Uiso   1.00
H652   H     0.24566   0.00071   0.90208   0.00000  Uiso   1.00
H653   H     0.15790   0.49793   0.85454   0.00000  Uiso   1.00
H654   H     0.18004   0.44715   0.87861   0.00000  Uiso   1.00
I655   I     0.28723   0.27598   0.54014   0.00000  Uiso   1.00
I656   I     0.12153   0.14969   0.96922   0.00000  Uiso   1.00
I657   I     0.06824   0.18829   0.61916   0.00000  Uiso   1.00
I658   I     0.24697   0.32865   0.87601   0.00000  Uiso   1.00
C659   C     0.50115   0.16496   0.75005   0.00000  Uiso   1.00
C660   C     0.49785   0.33532   0.74961   0.00000  Uiso   1.00
C661   C     0.54650   0.26277   0.56034   0.00000  Uiso   1.00
C662   C     0.47981   0.21176   0.94286   0.00000  Uiso   1.00
C663   C     0.54236   0.26570   0.61041   0.00000  Uiso   1.00
C664   C     0.47674   0.21547   0.89196   0.00000  Uiso   1.00
C665   C     0.46026   0.23144   0.59822   0.00000  Uiso   1.00
C666   C     0.52649   0.28207   0.89971   0.00000  Uiso   1.00
C667   C     0.46007   0.23406   0.54792   0.00000  Uiso   1.00
C668   C     0.52438   0.28258   0.94979   0.00000  Uiso   1.00
C669   C     0.50380   0.24772   0.52759   0.00000  Uiso   1.00
C670   C     0.50290   0.24676   0.97301   0.00000  Uiso   1.00
C671   C     0.40163   0.25131   0.73831   0.00000  Uiso   1.00
C672   C     0.59840   0.24910   0.76207   0.00000  Uiso   1.00
C673   C     0.34824   0.26108   0.73501   0.00000  Uiso   1.00
C674   C     0.65241   0.24200   0.76754   0.00000  Uiso   1.00
C675   C     0.47620   0.04441   0.77362   0.00000  Uiso   1.00
C676   C     0.50954   0.45572   0.71216   0.00000  Uiso   1.00
C677   C     0.47066   0.08967   0.77236   0.00000  Uiso   1.00
C678   C     0.50218   0.41008   0.70738   0.00000  Uiso   1.00
C679   C     0.50591   0.11673   0.75046   0.00000  Uiso   1.00
C680   C     0.49693   0.38439   0.74964   0.00000  Uiso   1.00
C681   C     0.54621   0.09740   0.72948   0.00000  Uiso   1.00
C682   C     0.49330   0.40673   0.79387   0.00000  Uiso   1.00
C683   C     0.55435   0.05144   0.73545   0.00000  Uiso   1.00
C684   C     0.50995   0.45145   0.79965   0.00000  Uiso   1.00
C685   C     0.51800   0.02511   0.75755   0.00000  Uiso   1.00
C686   C     0.51657   0.47636   0.75744   0.00000  Uiso   1.00
Cu687  Cu    0.50000   0.24999   0.79822   0.00000  Uiso   1.00
Cu688  Cu    0.50000   0.25000   0.70179   0.00000  Uiso   1.00
H689   H     0.44621   0.02343   0.78595   0.00000  Uiso   1.00
H690   H     0.50915   0.47575   0.67974   0.00000  Uiso   1.00
H691   H     0.57447   0.27853   0.63444   0.00000  Uiso   1.00
H692   H     0.45787   0.18927   0.86950   0.00000  Uiso   1.00
H693   H     0.42612   0.22299   0.52474   0.00000  Uiso   1.00
H694   H     0.54166   0.31051   0.97074   0.00000  Uiso   1.00
N695   N     0.50000   0.25001   0.62935   0.00000  Uiso   1.00
N696   N     0.50000   0.24999   0.87066   0.00000  Uiso   1.00
O697   O     0.50000   0.18572   0.79072   0.00000  Uiso   1.00
O698   O     0.50000   0.31427   0.70929   0.00000  Uiso   1.00
O699   O     0.50000   0.18573   0.70928   0.00000  Uiso   1.00
O700   O     0.50000   0.31427   0.79072   0.00000  Uiso   1.00
O701   O     0.42495   0.24999   0.78132   0.00000  Uiso   1.00
O702   O     0.57505   0.25000   0.71868   0.00000  Uiso   1.00
O703   O     0.42495   0.25000   0.69989   0.00000  Uiso   1.00
O704   O     0.57505   0.25000   0.80012   0.00000  Uiso   1.00
C705   C     0.66399   0.29779   0.69949   0.00000  Uiso   1.00
C706   C     0.36549   0.33939   0.70555   0.00000  Uiso   1.00
H707   H     0.37201   0.34983   0.74418   0.00000  Uiso   1.00
H708   H     0.40233   0.33344   0.69228   0.00000  Uiso   1.00
H709   H     0.34757   0.36670   0.68375   0.00000  Uiso   1.00
H710   H     0.66276   0.28526   0.66181   0.00000  Uiso   1.00
H711   H     0.62616   0.30961   0.70465   0.00000  Uiso   1.00
C712   C     0.34047   0.21005   0.80758   0.00000  Uiso   1.00
C713   C     0.63568   0.17747   0.82745   0.00000  Uiso   1.00
H714   H     0.61395   0.19395   0.85353   0.00000  Uiso   1.00
H715   H     0.60926   0.16209   0.79757   0.00000  Uiso   1.00
H716   H     0.65673   0.15071   0.84749   0.00000  Uiso   1.00
H717   H     0.36817   0.18906   0.79300   0.00000  Uiso   1.00
H718   H     0.36074   0.22952   0.83845   0.00000  Uiso   1.00
C719   C     0.42274   0.10656   0.78902   0.00000  Uiso   1.00
C720   C     0.38265   0.11310   0.74573   0.00000  Uiso   1.00
H721   H     0.34554   0.11795   0.75910   0.00000  Uiso   1.00
H722   H     0.39295   0.14250   0.72457   0.00000  Uiso   1.00
H723   H     0.37872   0.08353   0.72177   0.00000  Uiso   1.00
H724   H     0.40674   0.08250   0.81399   0.00000  Uiso   1.00
H725   H     0.43044   0.13740   0.81018   0.00000  Uiso   1.00
C726   C     0.49680   0.39206   0.65592   0.00000  Uiso   1.00
C727   C     0.54856   0.38137   0.64101   0.00000  Uiso   1.00
H728   H     0.56778   0.35731   0.66634   0.00000  Uiso   1.00
H729   H     0.54345   0.36705   0.60389   0.00000  Uiso   1.00
H730   H     0.57322   0.41193   0.64114   0.00000  Uiso   1.00
H731   H     0.46949   0.36340   0.65035   0.00000  Uiso   1.00
H732   H     0.47969   0.41708   0.63015   0.00000  Uiso   1.00
I733   I     0.59174   0.13763   0.68568   0.00000  Uiso   1.00
I734   I     0.44595   0.37873   0.84492   0.00000  Uiso   1.00
C735   C     0.60081   0.03062   0.71833   0.00000  Uiso   1.00
C736   C     0.63745   0.01363   0.76038   0.00000  Uiso   1.00
H737   H     0.64640   0.03954   0.78872   0.00000  Uiso   1.00
H738   H     0.62100   0.48355   0.77618   0.00000  Uiso   1.00
H739   H     0.34022   0.00461   0.74700   0.00000  Uiso   1.00
H740   H     0.58940   0.00332   0.69241   0.00000  Uiso   1.00
H741   H     0.62314   0.05393   0.69805   0.00000  Uiso   1.00
C742   C     0.51880   0.47207   0.85033   0.00000  Uiso   1.00
C743   C     0.57302   0.49116   0.86316   0.00000  Uiso   1.00
H744   H     0.60112   0.46611   0.85699   0.00000  Uiso   1.00
H745   H     0.57954   0.02128   0.84176   0.00000  Uiso   1.00
H746   H     0.57900   0.00071   0.90208   0.00000  Uiso   1.00
H747   H     0.49123   0.49793   0.85454   0.00000  Uiso   1.00
H748   H     0.51338   0.44715   0.87861   0.00000  Uiso   1.00
I749   I     0.62057   0.27598   0.54014   0.00000  Uiso   1.00
I750   I     0.45486   0.14969   0.96922   0.00000  Uiso   1.00
I751   I     0.40158   0.18829   0.61916   0.00000  Uiso   1.00
I752   I     0.58030   0.32865   0.87601   0.00000  Uiso   1.00
C753   C     0.83449   0.16496   0.75005   0.00000  Uiso   1.00
C754   C     0.83119   0.33532   0.74961   0.00000  Uiso   1.00
C755   C     0.87984   0.26277   0.56034   0.00000  Uiso   1.00
C756   C     0.81315   0.21176   0.94286   0.00000  Uiso   1.00
C757   C     0.87569   0.26570   0.61041   0.00000  Uiso   1.00
C758   C     0.81008   0.21547   0.89196   0.00000  Uiso   1.00
C759   C     0.79360   0.23144   0.59822   0.00000  Uiso   1.00
C760   C     0.85982   0.28207   0.89971   0.00000  Uiso   1.00
C761   C     0.79340   0.23406   0.54792   0.00000  Uiso   1.00
C762   C     0.85772   0.28258   0.94979   0.00000  Uiso   1.00
C763   C     0.83713   0.24772   0.52759   0.00000  Uiso   1.00
C764   C     0.83624   0.24676   0.97301   0.00000  Uiso   1.00
C765   C     0.73496   0.25131   0.73831   0.00000  Uiso   1.00
C766   C     0.93173   0.24910   0.76207   0.00000  Uiso   1.00
C767   C     0.68157   0.26108   0.73501   0.00000  Uiso   1.00
C768   C     0.98574   0.24200   0.76754   0.00000  Uiso   1.00
C769   C     0.80953   0.04441   0.77362   0.00000  Uiso   1.00
C770   C     0.84288   0.45572   0.71216   0.00000  Uiso   1.00
C771   C     0.80399   0.08967   0.77236   0.00000  Uiso   1.00
C772   C     0.83552   0.41008   0.70738   0.00000  Uiso   1.00
C773   C     0.83924   0.11673   0.75046   0.00000  Uiso   1.00
C774   C     0.83027   0.38439   0.74964   0.00000  Uiso   1.00
C775   C     0.87955   0.09740   0.72948   0.00000  Uiso   1.00
C776   C     0.82664   0.40673   0.79387   0.00000  Uiso   1.00
C777   C     0.88768   0.05144   0.73545   0.00000  Uiso   1.00
C778   C     0.84329   0.45145   0.79965   0.00000  Uiso   1.00
C779   C     0.85133   0.02511   0.75755   0.00000  Uiso   1.00
C780   C     0.84991   0.47636   0.75744   0.00000  Uiso   1.00
Cu781  Cu    0.83333   0.24999   0.79822   0.00000  Uiso   1.00
Cu782  Cu    0.83333   0.25000   0.70179   0.00000  Uiso   1.00
H783   H     0.77954   0.02343   0.78595   0.00000  Uiso   1.00
H784   H     0.84248   0.47575   0.67974   0.00000  Uiso   1.00
H785   H     0.90780   0.27853   0.63444   0.00000  Uiso   1.00
H786   H     0.79121   0.18927   0.86950   0.00000  Uiso   1.00
H787   H     0.75946   0.22299   0.52474   0.00000  Uiso   1.00
H788   H     0.87499   0.31051   0.97074   0.00000  Uiso   1.00
N789   N     0.83333   0.25001   0.62935   0.00000  Uiso   1.00
N790   N     0.83333   0.24999   0.87066   0.00000  Uiso   1.00
O791   O     0.83334   0.18572   0.79072   0.00000  Uiso   1.00
O792   O     0.83333   0.31427   0.70929   0.00000  Uiso   1.00
O793   O     0.83334   0.18573   0.70928   0.00000  Uiso   1.00
O794   O     0.83333   0.31427   0.79072   0.00000  Uiso   1.00
O795   O     0.75828   0.24999   0.78132   0.00000  Uiso   1.00
O796   O     0.90839   0.25000   0.71868   0.00000  Uiso   1.00
O797   O     0.75828   0.25000   0.69989   0.00000  Uiso   1.00
O798   O     0.90839   0.25000   0.80012   0.00000  Uiso   1.00
C799   C     0.99732   0.29779   0.69949   0.00000  Uiso   1.00
C800   C     0.69882   0.33939   0.70555   0.00000  Uiso   1.00
H801   H     0.70534   0.34983   0.74418   0.00000  Uiso   1.00
H802   H     0.73566   0.33344   0.69228   0.00000  Uiso   1.00
H803   H     0.68090   0.36670   0.68375   0.00000  Uiso   1.00
H804   H     0.99610   0.28526   0.66181   0.00000  Uiso   1.00
H805   H     0.95949   0.30961   0.70465   0.00000  Uiso   1.00
C806   C     0.67381   0.21005   0.80758   0.00000  Uiso   1.00
C807   C     0.96901   0.17747   0.82745   0.00000  Uiso   1.00
H808   H     0.94728   0.19395   0.85353   0.00000  Uiso   1.00
H809   H     0.94259   0.16209   0.79757   0.00000  Uiso   1.00
H810   H     0.99006   0.15071   0.84749   0.00000  Uiso   1.00
H811   H     0.70151   0.18906   0.79300   0.00000  Uiso   1.00
H812   H     0.69408   0.22952   0.83845   0.00000  Uiso   1.00
C813   C     0.75607   0.10656   0.78902   0.00000  Uiso   1.00
C814   C     0.71599   0.11310   0.74573   0.00000  Uiso   1.00
H815   H     0.67887   0.11795   0.75910   0.00000  Uiso   1.00
H816   H     0.72629   0.14250   0.72457   0.00000  Uiso   1.00
H817   H     0.71205   0.08353   0.72177   0.00000  Uiso   1.00
H818   H     0.74007   0.08250   0.81399   0.00000  Uiso   1.00
H819   H     0.76378   0.13740   0.81018   0.00000  Uiso   1.00
C820   C     0.83013   0.39206   0.65592   0.00000  Uiso   1.00
C821   C     0.88189   0.38137   0.64101   0.00000  Uiso   1.00
H822   H     0.90111   0.35731   0.66634   0.00000  Uiso   1.00
H823   H     0.87678   0.36705   0.60389   0.00000  Uiso   1.00
H824   H     0.90655   0.41193   0.64114   0.00000  Uiso   1.00
H825   H     0.80283   0.36340   0.65035   0.00000  Uiso   1.00
H826   H     0.81302   0.41708   0.63015   0.00000  Uiso   1.00
I827   I     0.92508   0.13763   0.68568   0.00000  Uiso   1.00
I828   I     0.77929   0.37873   0.84492   0.00000  Uiso   1.00
C829   C     0.93415   0.03062   0.71833   0.00000  Uiso   1.00
C830   C     0.97079   0.01363   0.76038   0.00000  Uiso   1.00
H831   H     0.97974   0.03954   0.78872   0.00000  Uiso   1.00
H832   H     0.95433   0.48355   0.77618   0.00000  Uiso   1.00
H833   H     0.67356   0.00461   0.74700   0.00000  Uiso   1.00
H834   H     0.92273   0.00332   0.69241   0.00000  Uiso   1.00
H835   H     0.95647   0.05393   0.69805   0.00000  Uiso   1.00
C836   C     0.85214   0.47207   0.85033   0.00000  Uiso   1.00
C837   C     0.90635   0.49116   0.86316   0.00000  Uiso   1.00
H838   H     0.93445   0.46611   0.85699   0.00000  Uiso   1.00
H839   H     0.91287   0.02128   0.84176   0.00000  Uiso   1.00
H840   H     0.91233   0.00071   0.90208   0.00000  Uiso   1.00
H841   H     0.82457   0.49793   0.85454   0.00000  Uiso   1.00
H842   H     0.84671   0.44715   0.87861   0.00000  Uiso   1.00
I843   I     0.95390   0.27598   0.54014   0.00000  Uiso   1.00
I844   I     0.78820   0.14969   0.96922   0.00000  Uiso   1.00
I845   I     0.73491   0.18829   0.61916   0.00000  Uiso   1.00
I846   I     0.91364   0.32865   0.87601   0.00000  Uiso   1.00
C847   C     0.16782   0.66496   0.75005   0.00000  Uiso   1.00
C848   C     0.16452   0.83532   0.74961   0.00000  Uiso   1.00
C849   C     0.21317   0.76277   0.56034   0.00000  Uiso   1.00
C850   C     0.14648   0.71176   0.94286   0.00000  Uiso   1.00
C851   C     0.20902   0.76570   0.61041   0.00000  Uiso   1.00
C852   C     0.14341   0.71547   0.89196   0.00000  Uiso   1.00
C853   C     0.12693   0.73144   0.59822   0.00000  Uiso   1.00
C854   C     0.19315   0.78207   0.89971   0.00000  Uiso   1.00
C855   C     0.12673   0.73406   0.54792   0.00000  Uiso   1.00
C856   C     0.19105   0.78258   0.94979   0.00000  Uiso   1.00
C857   C     0.17047   0.74772   0.52759   0.00000  Uiso   1.00
C858   C     0.16957   0.74676   0.97301   0.00000  Uiso   1.00
C859   C     0.06829   0.75131   0.73831   0.00000  Uiso   1.00
C860   C     0.26507   0.74910   0.76207   0.00000  Uiso   1.00
C861   C     0.01491   0.76108   0.73501   0.00000  Uiso   1.00
C862   C     0.31907   0.74200   0.76754   0.00000  Uiso   1.00
C863   C     0.14286   0.54441   0.77362   0.00000  Uiso   1.00
C864   C     0.17621   0.95572   0.71216   0.00000  Uiso   1.00
C865   C     0.13732   0.58967   0.77236   0.00000  Uiso   1.00
C866   C     0.16885   0.91008   0.70738   0.00000  Uiso   1.00
C867   C     0.17258   0.61673   0.75046   0.00000  Uiso   1.00
C868   C     0.16360   0.88439   0.74964   0.00000  Uiso   1.00
C869   C     0.21288   0.59740   0.72948   0.00000  Uiso   1.00
C870   C     0.15997   0.90673   0.79387   0.00000  Uiso   1.00
C871   C     0.22102   0.55144   0.73545   0.00000  Uiso   1.00
C872   C     0.17662   0.95145   0.79965   0.00000  Uiso   1.00
C873   C     0.18466   0.52511   0.75755   0.00000  Uiso   1.00
C874   C     0.18324   0.97636   0.75744   0.00000  Uiso   1.00
Cu875  Cu    0.16667   0.74999   0.79822   0.00000  Uiso   1.00
Cu876  Cu    0.16667   0.75000   0.70179   0.00000  Uiso   1.00
H877   H     0.11287   0.52343   0.78595   0.00000  Uiso   1.00
H878   H     0.17581   0.97575   0.67974   0.00000  Uiso   1.00
H879   H     0.24114   0.77853   0.63444   0.00000  Uiso   1.00
H880   H     0.12454   0.68927   0.86950   0.00000  Uiso   1.00
H881   H     0.09279   0.72299   0.52474   0.00000  Uiso   1.00
H882   H     0.20832   0.81051   0.97074   0.00000  Uiso   1.00
N883   N     0.16667   0.75001   0.62935   0.00000  Uiso   1.00
N884   N     0.16667   0.74999   0.87066   0.00000  Uiso   1.00
O885   O     0.16667   0.68572   0.79072   0.00000  Uiso   1.00
O886   O     0.16666   0.81427   0.70929   0.00000  Uiso   1.00
O887   O     0.16667   0.68573   0.70928   0.00000  Uiso   1.00
O888   O     0.16666   0.81427   0.79072   0.00000  Uiso   1.00
O889   O     0.09161   0.74999   0.78132   0.00000  Uiso   1.00
O890   O     0.24172   0.75000   0.71868   0.00000  Uiso   1.00
O891   O     0.09161   0.75000   0.69989   0.00000  Uiso   1.00
O892   O     0.24172   0.75000   0.80012   0.00000  Uiso   1.00
C893   C     0.33066   0.79779   0.69949   0.00000  Uiso   1.00
C894   C     0.03216   0.83939   0.70555   0.00000  Uiso   1.00
H895   H     0.03867   0.84983   0.74418   0.00000  Uiso   1.00
H896   H     0.06900   0.83344   0.69228   0.00000  Uiso   1.00
H897   H     0.01424   0.86670   0.68375   0.00000  Uiso   1.00
H898   H     0.32943   0.78526   0.66181   0.00000  Uiso   1.00
H899   H     0.29283   0.80961   0.70465   0.00000  Uiso   1.00
C900   C     0.00714   0.71005   0.80758   0.00000  Uiso   1.00
C901   C     0.30235   0.67747   0.82745   0.00000  Uiso   1.00
H902   H     0.28061   0.69395   0.85353   0.00000  Uiso   1.00
H903   H     0.27592   0.66209   0.79757   0.00000  Uiso   1.00
H904   H     0.32339   0.65071   0.84749   0.00000  Uiso   1.00
H905   H     0.03484   0.68906   0.79300   0.00000  Uiso   1.00
H906   H     0.02741   0.72952   0.83845   0.00000  Uiso   1.00
C907   C     0.08941   0.60656   0.78902   0.00000  Uiso   1.00
C908   C     0.04932   0.61310   0.74573   0.00000  Uiso   1.00
H909   H     0.01220   0.61795   0.75910   0.00000  Uiso   1.00
H910   H     0.05962   0.64250   0.72457   0.00000  Uiso   1.00
H911   H     0.04539   0.58353   0.72177   0.00000  Uiso   1.00
H912   H     0.07341   0.58250   0.81399   0.00000  Uiso   1.00
H913   H     0.09711   0.63740   0.81018   0.00000  Uiso   1.00
C914   C     0.16346   0.89206   0.65592   0.00000  Uiso   1.00
C915   C     0.21522   0.88137   0.64101   0.00000  Uiso   1.00
H916   H     0.23444   0.85731   0.66634   0.00000  Uiso   1.00
H917   H     0.21011   0.86705   0.60389   0.00000  Uiso   1.00
H918   H     0.23989   0.91193   0.64114   0.00000  Uiso   1.00
H919   H     0.13616   0.86340   0.65035   0.00000  Uiso   1.00
H920   H     0.14635   0.91708   0.63015   0.00000  Uiso   1.00
I921   I     0.25841   0.63763   0.68568   0.00000  Uiso   1.00
I922   I     0.11262   0.87873   0.84492   0.00000  Uiso   1.00
C923   C     0.26748   0.53062   0.71833   0.00000  Uiso   1.00
C924   C     0.30412   0.51363   0.76038   0.00000  Uiso   1.00
H925   H     0.31307   0.53954   0.78872   0.00000  Uiso   1.00
H926   H     0.28766   0.98355   0.77618   0.00000  Uiso   1.00
H927   H     0.00689   0.50461   0.74700   0.00000  Uiso   1.00
H928   H     0.25607   0.50332   0.69241   0.00000  Uiso   1.00
H929   H     0.28980   0.55393   0.69805   0.00000  Uiso   1.00
C930   C     0.18547   0.97207   0.85033   0.00000  Uiso   1.00
C931   C     0.23968   0.99116   0.86316   0.00000  Uiso   1.00
H932   H     0.26778   0.96611   0.85699   0.00000  Uiso   1.00
H933   H     0.24621   0.52128   0.84176   0.00000  Uiso   1.00
H934   H     0.24566   0.50071   0.90208   0.00000  Uiso   1.00
H935   H     0.15790   0.99793   0.85454   0.00000  Uiso   1.00
H936   H     0.18004   0.94715   0.87861   0.00000  Uiso   1.00
I937   I     0.28723   0.77598   0.54014   0.00000  Uiso   1.00
I938   I     0.12153   0.64969   0.96922   0.00000  Uiso   1.00
I939   I     0.06824   0.68829   0.61916   0.00000  Uiso   1.00
I940   I     0.24697   0.82865   0.87601   0.00000  Uiso   1.00
C941   C     0.50115   0.66496   0.75005   0.00000  Uiso   1.00
C942   C     0.49785   0.83532   0.74961   0.00000  Uiso   1.00
C943   C     0.54650   0.76277   0.56034   0.00000  Uiso   1.00
C944   C     0.47981   0.71176   0.94286   0.00000  Uiso   1.00
C945   C     0.54236   0.76570   0.61041   0.00000  Uiso   1.00
C946   C     0.47674   0.71547   0.89196   0.00000  Uiso   1.00
C947   C     0.46026   0.73144   0.59822   0.00000  Uiso   1.00
C948   C     0.52649   0.78207   0.89971   0.00000  Uiso   1.00
C949   C     0.46007   0.73406   0.54792   0.00000  Uiso   1.00
C950   C     0.52438   0.78258   0.94979   0.00000  Uiso   1.00
C951   C     0.50380   0.74772   0.52759   0.00000  Uiso   1.00
C952   C     0.50290   0.74676   0.97301   0.00000  Uiso   1.00
C953   C     0.40163   0.75131   0.73831   0.00000  Uiso   1.00
C954   C     0.59840   0.74910   0.76207   0.00000  Uiso   1.00
C955   C     0.34824   0.76108   0.73501   0.00000  Uiso   1.00
C956   C     0.65241   0.74200   0.76754   0.00000  Uiso   1.00
C957   C     0.47620   0.54441   0.77362   0.00000  Uiso   1.00
C958   C     0.50954   0.95572   0.71216   0.00000  Uiso   1.00
C959   C     0.47066   0.58967   0.77236   0.00000  Uiso   1.00
C960   C     0.50218   0.91008   0.70738   0.00000  Uiso   1.00
C961   C     0.50591   0.61673   0.75046   0.00000  Uiso   1.00
C962   C     0.49693   0.88439   0.74964   0.00000  Uiso   1.00
C963   C     0.54621   0.59740   0.72948   0.00000  Uiso   1.00
C964   C     0.49330   0.90673   0.79387   0.00000  Uiso   1.00
C965   C     0.55435   0.55144   0.73545   0.00000  Uiso   1.00
C966   C     0.50995   0.95145   0.79965   0.00000  Uiso   1.00
C967   C     0.51800   0.52511   0.75755   0.00000  Uiso   1.00
C968   C     0.51657   0.97636   0.75744   0.00000  Uiso   1.00
Cu969  Cu    0.50000   0.74999   0.79822   0.00000  Uiso   1.00
Cu970  Cu    0.50000   0.75000   0.70179   0.00000  Uiso   1.00
H971   H     0.44621   0.52343   0.78595   0.00000  Uiso   1.00
H972   H     0.50915   0.97575   0.67974   0.00000  Uiso   1.00
H973   H     0.57447   0.77853   0.63444   0.00000  Uiso   1.00
H974   H     0.45787   0.68927   0.86950   0.00000  Uiso   1.00
H975   H     0.42612   0.72299   0.52474   0.00000  Uiso   1.00
H976   H     0.54166   0.81051   0.97074   0.00000  Uiso   1.00
N977   N     0.50000   0.75001   0.62935   0.00000  Uiso   1.00
N978   N     0.50000   0.74999   0.87066   0.00000  Uiso   1.00
O979   O     0.50000   0.68572   0.79072   0.00000  Uiso   1.00
O980   O     0.50000   0.81427   0.70929   0.00000  Uiso   1.00
O981   O     0.50000   0.68573   0.70928   0.00000  Uiso   1.00
O982   O     0.50000   0.81427   0.79072   0.00000  Uiso   1.00
O983   O     0.42495   0.74999   0.78132   0.00000  Uiso   1.00
O984   O     0.57505   0.75000   0.71868   0.00000  Uiso   1.00
O985   O     0.42495   0.75000   0.69989   0.00000  Uiso   1.00
O986   O     0.57505   0.75000   0.80012   0.00000  Uiso   1.00
C987   C     0.66399   0.79779   0.69949   0.00000  Uiso   1.00
C988   C     0.36549   0.83939   0.70555   0.00000  Uiso   1.00
H989   H     0.37201   0.84983   0.74418   0.00000  Uiso   1.00
H990   H     0.40233   0.83344   0.69228   0.00000  Uiso   1.00
H991   H     0.34757   0.86670   0.68375   0.00000  Uiso   1.00
H992   H     0.66276   0.78526   0.66181   0.00000  Uiso   1.00
H993   H     0.62616   0.80961   0.70465   0.00000  Uiso   1.00
C994   C     0.34047   0.71005   0.80758   0.00000  Uiso   1.00
C995   C     0.63568   0.67747   0.82745   0.00000  Uiso   1.00
H996   H     0.61395   0.69395   0.85353   0.00000  Uiso   1.00
H997   H     0.60926   0.66209   0.79757   0.00000  Uiso   1.00
H998   H     0.65673   0.65071   0.84749   0.00000  Uiso   1.00
H999   H     0.36817   0.68906   0.79300   0.00000  Uiso   1.00
H1000  H     0.36074   0.72952   0.83845   0.00000  Uiso   1.00
C1001  C     0.42274   0.60656   0.78902   0.00000  Uiso   1.00
C1002  C     0.38265   0.61310   0.74573   0.00000  Uiso   1.00
H1003  H     0.34554   0.61795   0.75910   0.00000  Uiso   1.00
H1004  H     0.39295   0.64250   0.72457   0.00000  Uiso   1.00
H1005  H     0.37872   0.58353   0.72177   0.00000  Uiso   1.00
H1006  H     0.40674   0.58250   0.81399   0.00000  Uiso   1.00
H1007  H     0.43044   0.63740   0.81018   0.00000  Uiso   1.00
C1008  C     0.49680   0.89206   0.65592   0.00000  Uiso   1.00
C1009  C     0.54856   0.88137   0.64101   0.00000  Uiso   1.00
H1010  H     0.56778   0.85731   0.66634   0.00000  Uiso   1.00
H1011  H     0.54345   0.86705   0.60389   0.00000  Uiso   1.00
H1012  H     0.57322   0.91193   0.64114   0.00000  Uiso   1.00
H1013  H     0.46949   0.86340   0.65035   0.00000  Uiso   1.00
H1014  H     0.47969   0.91708   0.63015   0.00000  Uiso   1.00
I1015  I     0.59174   0.63763   0.68568   0.00000  Uiso   1.00
I1016  I     0.44595   0.87873   0.84492   0.00000  Uiso   1.00
C1017  C     0.60081   0.53062   0.71833   0.00000  Uiso   1.00
C1018  C     0.63745   0.51363   0.76038   0.00000  Uiso   1.00
H1019  H     0.64640   0.53954   0.78872   0.00000  Uiso   1.00
H1020  H     0.62100   0.98355   0.77618   0.00000  Uiso   1.00
H1021  H     0.34022   0.50461   0.74700   0.00000  Uiso   1.00
H1022  H     0.58940   0.50332   0.69241   0.00000  Uiso   1.00
H1023  H     0.62314   0.55393   0.69805   0.00000  Uiso   1.00
C1024  C     0.51880   0.97207   0.85033   0.00000  Uiso   1.00
C1025  C     0.57302   0.99116   0.86316   0.00000  Uiso   1.00
H1026  H     0.60112   0.96611   0.85699   0.00000  Uiso   1.00
H1027  H     0.57954   0.52128   0.84176   0.00000  Uiso   1.00
H1028  H     0.57900   0.50071   0.90208   0.00000  Uiso   1.00
H1029  H     0.49123   0.99793   0.85454   0.00000  Uiso   1.00
H1030  H     0.51338   0.94715   0.87861   0.00000  Uiso   1.00
I1031  I     0.62057   0.77598   0.54014   0.00000  Uiso   1.00
I1032  I     0.45486   0.64969   0.96922   0.00000  Uiso   1.00
I1033  I     0.40158   0.68829   0.61916   0.00000  Uiso   1.00
I1034  I     0.58030   0.82865   0.87601   0.00000  Uiso   1.00
C1035  C     0.83449   0.66496   0.75005   0.00000  Uiso   1.00
C1036  C     0.83119   0.83532   0.74961   0.00000  Uiso   1.00
C1037  C     0.87984   0.76277   0.56034   0.00000  Uiso   1.00
C1038  C     0.81315   0.71176   0.94286   0.00000  Uiso   1.00
C1039  C     0.87569   0.76570   0.61041   0.00000  Uiso   1.00
C1040  C     0.81008   0.71547   0.89196   0.00000  Uiso   1.00
C1041  C     0.79360   0.73144   0.59822   0.00000  Uiso   1.00
C1042  C     0.85982   0.78207   0.89971   0.00000  Uiso   1.00
C1043  C     0.79340   0.73406   0.54792   0.00000  Uiso   1.00
C1044  C     0.85772   0.78258   0.94979   0.00000  Uiso   1.00
C1045  C     0.83713   0.74772   0.52759   0.00000  Uiso   1.00
C1046  C     0.83624   0.74676   0.97301   0.00000  Uiso   1.00
C1047  C     0.73496   0.75131   0.73831   0.00000  Uiso   1.00
C1048  C     0.93173   0.74910   0.76207   0.00000  Uiso   1.00
C1049  C     0.68157   0.76108   0.73501   0.00000  Uiso   1.00
C1050  C     0.98574   0.74200   0.76754   0.00000  Uiso   1.00
C1051  C     0.80953   0.54441   0.77362   0.00000  Uiso   1.00
C1052  C     0.84288   0.95572   0.71216   0.00000  Uiso   1.00
C1053  C     0.80399   0.58967   0.77236   0.00000  Uiso   1.00
C1054  C     0.83552   0.91008   0.70738   0.00000  Uiso   1.00
C1055  C     0.83924   0.61673   0.75046   0.00000  Uiso   1.00
C1056  C     0.83027   0.88439   0.74964   0.00000  Uiso   1.00
C1057  C     0.87955   0.59740   0.72948   0.00000  Uiso   1.00
C1058  C     0.82664   0.90673   0.79387   0.00000  Uiso   1.00
C1059  C     0.88768   0.55144   0.73545   0.00000  Uiso   1.00
C1060  C     0.84329   0.95145   0.79965   0.00000  Uiso   1.00
C1061  C     0.85133   0.52511   0.75755   0.00000  Uiso   1.00
C1062  C     0.84991   0.97636   0.75744   0.00000  Uiso   1.00
Cu1063 Cu    0.83333   0.74999   0.79822   0.00000  Uiso   1.00
Cu1064 Cu    0.83333   0.75000   0.70179   0.00000  Uiso   1.00
H1065  H     0.77954   0.52343   0.78595   0.00000  Uiso   1.00
H1066  H     0.84248   0.97575   0.67974   0.00000  Uiso   1.00
H1067  H     0.90780   0.77853   0.63444   0.00000  Uiso   1.00
H1068  H     0.79121   0.68927   0.86950   0.00000  Uiso   1.00
H1069  H     0.75946   0.72299   0.52474   0.00000  Uiso   1.00
H1070  H     0.87499   0.81051   0.97074   0.00000  Uiso   1.00
N1071  N     0.83333   0.75001   0.62935   0.00000  Uiso   1.00
N1072  N     0.83333   0.74999   0.87066   0.00000  Uiso   1.00
O1073  O     0.83334   0.68572   0.79072   0.00000  Uiso   1.00
O1074  O     0.83333   0.81427   0.70929   0.00000  Uiso   1.00
O1075  O     0.83334   0.68573   0.70928   0.00000  Uiso   1.00
O1076  O     0.83333   0.81427   0.79072   0.00000  Uiso   1.00
O1077  O     0.75828   0.74999   0.78132   0.00000  Uiso   1.00
O1078  O     0.90839   0.75000   0.71868   0.00000  Uiso   1.00
O1079  O     0.75828   0.75000   0.69989   0.00000  Uiso   1.00
O1080  O     0.90839   0.75000   0.80012   0.00000  Uiso   1.00
C1081  C     0.99732   0.79779   0.69949   0.00000  Uiso   1.00
C1082  C     0.69882   0.83939   0.70555   0.00000  Uiso   1.00
H1083  H     0.70534   0.84983   0.74418   0.00000  Uiso   1.00
H1084  H     0.73566   0.83344   0.69228   0.00000  Uiso   1.00
H1085  H     0.68090   0.86670   0.68375   0.00000  Uiso   1.00
H1086  H     0.99610   0.78526   0.66181   0.00000  Uiso   1.00
H1087  H     0.95949   0.80961   0.70465   0.00000  Uiso   1.00
C1088  C     0.67381   0.71005   0.80758   0.00000  Uiso   1.00
C1089  C     0.96901   0.67747   0.82745   0.00000  Uiso   1.00
H1090  H     0.94728   0.69395   0.85353   0.00000  Uiso   1.00
H1091  H     0.94259   0.66209   0.79757   0.00000  Uiso   1.00
H1092  H     0.99006   0.65071   0.84749   0.00000  Uiso   1.00
H1093  H     0.70151   0.68906   0.79300   0.00000  Uiso   1.00
H1094  H     0.69408   0.72952   0.83845   0.00000  Uiso   1.00
C1095  C     0.75607   0.60656   0.78902   0.00000  Uiso   1.00
C1096  C     0.71599   0.61310   0.74573   0.00000  Uiso   1.00
H1097  H     0.67887   0.61795   0.75910   0.00000  Uiso   1.00
H1098  H     0.72629   0.64250   0.72457   0.00000  Uiso   1.00
H1099  H     0.71205   0.58353   0.72177   0.00000  Uiso   1.00
H1100  H     0.74007   0.58250   0.81399   0.00000  Uiso   1.00
H1101  H     0.76378   0.63740   0.81018   0.00000  Uiso   1.00
C1102  C     0.83013   0.89206   0.65592   0.00000  Uiso   1.00
C1103  C     0.88189   0.88137   0.64101   0.00000  Uiso   1.00
H1104  H     0.90111   0.85731   0.66634   0.00000  Uiso   1.00
H1105  H     0.87678   0.86705   0.60389   0.00000  Uiso   1.00
H1106  H     0.90655   0.91193   0.64114   0.00000  Uiso   1.00
H1107  H     0.80283   0.86340   0.65035   0.00000  Uiso   1.00
H1108  H     0.81302   0.91708   0.63015   0.00000  Uiso   1.00
I1109  I     0.92508   0.63763   0.68568   0.00000  Uiso   1.00
I1110  I     0.77929   0.87873   0.84492   0.00000  Uiso   1.00
C1111  C     0.93415   0.53062   0.71833   0.00000  Uiso   1.00
C1112  C     0.97079   0.51363   0.76038   0.00000  Uiso   1.00
H1113  H     0.97974   0.53954   0.78872   0.00000  Uiso   1.00
H1114  H     0.95433   0.98355   0.77618   0.00000  Uiso   1.00
H1115  H     0.67356   0.50461   0.74700   0.00000  Uiso   1.00
H1116  H     0.92273   0.50332   0.69241   0.00000  Uiso   1.00
H1117  H     0.95647   0.55393   0.69805   0.00000  Uiso   1.00
C1118  C     0.85214   0.97207   0.85033   0.00000  Uiso   1.00
C1119  C     0.90635   0.99116   0.86316   0.00000  Uiso   1.00
H1120  H     0.93445   0.96611   0.85699   0.00000  Uiso   1.00
H1121  H     0.91287   0.52128   0.84176   0.00000  Uiso   1.00
H1122  H     0.91233   0.50071   0.90208   0.00000  Uiso   1.00
H1123  H     0.82457   0.99793   0.85454   0.00000  Uiso   1.00
H1124  H     0.84671   0.94715   0.87861   0.00000  Uiso   1.00
I1125  I     0.95390   0.77598   0.54014   0.00000  Uiso   1.00
I1126  I     0.78820   0.64969   0.96922   0.00000  Uiso   1.00
I1127  I     0.73491   0.68829   0.61916   0.00000  Uiso   1.00
I1128  I     0.91364   0.82865   0.87601   0.00000  Uiso   1.00
loop_
_geom_bond_atom_site_label_1
_geom_bond_atom_site_label_2
_geom_bond_distance
_geom_bond_site_symmetry_2
_ccdc_geom_bond_type
C1     C21     1.470   .     S
C1     O41     1.293   .     A
C1     O39     1.298   .     A
C2     C22     1.487   .     S
C2     O42     1.304   .     A
C2     O40     1.298   .     A
C3     I91     2.127   .     S
C3     C5      1.412   .     A
C3     C11     1.422   .     A
C4     C12     1.423   .     A
C4     C6      1.411   .     A
C4     I92     2.127   .     S
C5     N37     1.364   .     A
C5     H33     1.075   .     S
C6     N38     1.363   .     A
C6     H34     1.078   .     S
C7     I93     2.126   .     S
C7     N37     1.379   .     A
C7     C9      1.399   .     A
C8     N38     1.377   .     A
C8     I94     2.127   .     S
C8     C10     1.400   .     A
C9     C11     1.397   .     A
C9     H35     1.081   .     S
C10    C12     1.398   .     A
C10    H36     1.081   .     S
C11    C576    1.514   1_554 S
C12    C575    1.514   .     S
C13    C15     1.447   .     S
C13    O43     1.277   .     A
C13    O45     1.299   .     A
C14    O46     1.289   .     A
C14    C16     1.443   .     S
C14    O44     1.286   .     A
C15    C204    1.372   1_455 S
C15    C235    1.533   1_455 S
C16    C109    1.372   .     S
C16    C148    1.542   .     S
C17    C27     1.392   .     A
C17    H31     1.085   .     S
C17    C19     1.384   .     A
C18    C28     1.394   .     A
C18    H32     1.084   .     S
C18    C20     1.392   .     A
C19    C21     1.411   .     A
C19    C61     1.510   .     S
C20    C22     1.426   .     A
C20    C68     1.519   .     S
C21    C23     1.422   .     A
C22    C24     1.419   .     A
C23    I75     2.158   .     S
C23    C25     1.423   .     A
C24    C26     1.411   .     A
C24    I76     2.157   .     S
C25    C77     1.530   .     S
C25    C27     1.422   .     A
C26    C84     1.529   .     S
C26    C28     1.419   .     A
C27    C310    1.475   1_545 S
C28    C309    1.475   .     S
Cu29   O42     1.957   .     S
Cu29   Cu30    2.680   .     S
Cu29   N38     2.013   .     S
Cu29   O43     1.984   .     S
Cu29   O39     1.957   .     S
Cu29   O46     1.980   .     S
Cu30   O45     1.980   .     S
Cu30   O41     1.957   .     S
Cu30   O44     1.984   .     S
Cu30   N37     2.013   .     S
Cu30   O40     1.957   .     S
C47    H53     1.102   .     S
C47    H52     1.110   .     S
C47    C109    1.533   .     S
C47    C142    1.529   .     S
C48    H51     1.111   .     S
C48    H50     1.105   .     S
C48    H49     1.110   .     S
C48    C235    1.529   1_455 S
C54    H60     1.111   .     S
C54    H59     1.102   .     S
C54    C204    1.542   1_455 S
C54    C243    1.534   1_455 S
C55    H56     1.109   .     S
C55    H57     1.108   .     S
C55    H58     1.111   .     S
C55    C148    1.534   .     S
C61    H66     1.113   .     S
C61    H67     1.103   .     S
C61    C62     1.521   .     S
C62    H64     1.110   .     S
C62    H63     1.107   .     S
C62    H65     1.111   .     S
C68    H74     1.112   .     S
C68    C69     1.526   .     S
C68    H73     1.106   .     S
C69    H71     1.110   .     S
C69    H70     1.106   .     S
C69    H72     1.111   .     S
C77    C78     1.526   .     S
C77    H83     1.101   .     S
C77    H82     1.106   .     S
C78    H79     1.111   .     S
C78    H362    1.107   1_545 S
C78    H175    1.111   .     S
H80    C360    1.107   .     S
H81    C266    1.111   1_455 S
C84    H90     1.107   .     S
C84    C85     1.526   .     S
C84    H89     1.107   .     S
C85    H86     1.111   .     S
C85    H369    1.107   .     S
C85    H370    1.111   .     S
H87    C367    1.107   1_545 S
H88    C367    1.111   1_545 S
C95    C115    1.470   .     S
C95    O135    1.293   .     A
C95    O133    1.298   .     A
C96    C116    1.487   .     S
C96    O136    1.304   .     A
C96    O134    1.298   .     A
C97    I185    2.127   .     S
C97    C99     1.412   .     A
C97    C105    1.422   .     A
C98    C106    1.423   .     A
C98    C100    1.411   .     A
C98    I186    2.127   .     S
C99    N131    1.364   .     A
C99    H127    1.075   .     S
C100   N132    1.363   .     A
C100   H128    1.078   .     S
C101   I187    2.126   .     S
C101   N131    1.379   .     A
C101   C103    1.399   .     A
C102   N132    1.377   .     A
C102   I188    2.127   .     S
C102   C104    1.400   .     A
C103   C105    1.397   .     A
C103   H129    1.081   .     S
C104   C106    1.398   .     A
C104   H130    1.081   .     S
C105   C670    1.514   1_554 S
C106   C669    1.514   .     S
C107   C109    1.447   .     S
C107   O137    1.277   .     A
C107   O139    1.299   .     A
C108   O140    1.289   .     A
C108   C110    1.443   .     S
C108   O138    1.286   .     A
C110   C203    1.372   .     S
C110   C242    1.542   .     S
C111   C121    1.392   .     A
C111   H125    1.085   .     S
C111   C113    1.384   .     A
C112   C122    1.394   .     A
C112   H126    1.084   .     S
C112   C114    1.392   .     A
C113   C115    1.411   .     A
C113   C155    1.510   .     S
C114   C116    1.426   .     A
C114   C162    1.519   .     S
C115   C117    1.422   .     A
C116   C118    1.419   .     A
C117   I169    2.158   .     S
C117   C119    1.423   .     A
C118   C120    1.411   .     A
C118   I170    2.157   .     S
C119   C171    1.530   .     S
C119   C121    1.422   .     A
C120   C178    1.529   .     S
C120   C122    1.419   .     A
C121   C404    1.475   1_545 S
C122   C403    1.475   .     S
Cu123  O136    1.957   .     S
Cu123  Cu124   2.680   .     S
Cu123  N132    2.013   .     S
Cu123  O137    1.984   .     S
Cu123  O133    1.957   .     S
Cu123  O140    1.980   .     S
Cu124  O139    1.980   .     S
Cu124  O135    1.957   .     S
Cu124  O138    1.984   .     S
Cu124  N131    2.013   .     S
Cu124  O134    1.957   .     S
C141   H147    1.102   .     S
C141   H146    1.110   .     S
C141   C203    1.533   .     S
C141   C236    1.529   .     S
C142   H145    1.111   .     S
C142   H144    1.105   .     S
C142   H143    1.110   .     S
C148   H154    1.111   .     S
C148   H153    1.102   .     S
C149   H150    1.109   .     S
C149   H151    1.108   .     S
C149   H152    1.111   .     S
C149   C242    1.534   .     S
C155   H160    1.113   .     S
C155   H161    1.103   .     S
C155   C156    1.521   .     S
C156   H158    1.110   .     S
C156   H157    1.107   .     S
C156   H159    1.111   .     S
C162   H168    1.112   .     S
C162   C163    1.526   .     S
C162   H167    1.106   .     S
C163   H165    1.110   .     S
C163   H164    1.106   .     S
C163   H166    1.111   .     S
C171   C172    1.526   .     S
C171   H177    1.101   .     S
C171   H176    1.106   .     S
C172   H173    1.111   .     S
C172   H456    1.107   1_545 S
C172   H269    1.111   .     S
H174   C454    1.107   .     S
C178   H184    1.107   .     S
C178   C179    1.526   .     S
C178   H183    1.107   .     S
C179   H180    1.111   .     S
C179   H463    1.107   .     S
C179   H464    1.111   .     S
H181   C461    1.107   1_545 S
H182   C461    1.111   1_545 S
C189   C209    1.470   .     S
C189   O229    1.293   .     A
C189   O227    1.298   .     A
C190   C210    1.487   .     S
C190   O230    1.304   .     A
C190   O228    1.298   .     A
C191   I279    2.127   .     S
C191   C193    1.412   .     A
C191   C199    1.422   .     A
C192   C200    1.423   .     A
C192   C194    1.411   .     A
C192   I280    2.127   .     S
C193   N225    1.364   .     A
C193   H221    1.075   .     S
C194   N226    1.363   .     A
C194   H222    1.078   .     S
C195   I281    2.126   .     S
C195   N225    1.379   .     A
C195   C197    1.399   .     A
C196   N226    1.377   .     A
C196   I282    2.127   .     S
C196   C198    1.400   .     A
C197   C199    1.397   .     A
C197   H223    1.081   .     S
C198   C200    1.398   .     A
C198   H224    1.081   .     S
C199   C764    1.514   1_554 S
C200   C763    1.514   .     S
C201   C203    1.447   .     S
C201   O231    1.277   .     A
C201   O233    1.299   .     A
C202   O234    1.289   .     A
C202   C204    1.443   .     S
C202   O232    1.286   .     A
C204   C15     1.372   1_655 S
C204   C54     1.542   1_655 S
C205   C215    1.392   .     A
C205   H219    1.085   .     S
C205   C207    1.384   .     A
C206   C216    1.394   .     A
C206   H220    1.084   .     S
C206   C208    1.392   .     A
C207   C209    1.411   .     A
C207   C249    1.510   .     S
C208   C210    1.426   .     A
C208   C256    1.519   .     S
C209   C211    1.422   .     A
C210   C212    1.419   .     A
C211   I263    2.158   .     S
C211   C213    1.423   .     A
C212   C214    1.411   .     A
C212   I264    2.157   .     S
C213   C265    1.530   .     S
C213   C215    1.422   .     A
C214   C272    1.529   .     S
C214   C216    1.419   .     A
C215   C498    1.475   1_545 S
C216   C497    1.475   .     S
Cu217  O230    1.957   .     S
Cu217  Cu218   2.680   .     S
Cu217  N226    2.013   .     S
Cu217  O231    1.984   .     S
Cu217  O227    1.957   .     S
Cu217  O234    1.980   .     S
Cu218  O233    1.980   .     S
Cu218  O229    1.957   .     S
Cu218  O232    1.984   .     S
Cu218  N225    2.013   .     S
Cu218  O228    1.957   .     S
C235   H241    1.102   .     S
C235   H240    1.110   .     S
C235   C15     1.533   1_655 S
C235   C48     1.529   1_655 S
C236   H239    1.111   .     S
C236   H238    1.105   .     S
C236   H237    1.110   .     S
C242   H248    1.111   .     S
C242   H247    1.102   .     S
C243   H244    1.109   .     S
C243   H245    1.108   .     S
C243   H246    1.111   .     S
C243   C54     1.534   1_655 S
C249   H254    1.113   .     S
C249   H255    1.103   .     S
C249   C250    1.521   .     S
C250   H252    1.110   .     S
C250   H251    1.107   .     S
C250   H253    1.111   .     S
C256   H262    1.112   .     S
C256   C257    1.526   .     S
C256   H261    1.106   .     S
C257   H259    1.110   .     S
C257   H258    1.106   .     S
C257   H260    1.111   .     S
C265   C266    1.526   .     S
C265   H271    1.101   .     S
C265   H270    1.106   .     S
C266   H267    1.111   .     S
C266   H550    1.107   1_545 S
C266   H81     1.111   1_655 S
H268   C548    1.107   .     S
C272   H278    1.107   .     S
C272   C273    1.526   .     S
C272   H277    1.107   .     S
C273   H274    1.111   .     S
C273   H557    1.107   .     S
C273   H558    1.111   .     S
H275   C555    1.107   1_545 S
H276   C555    1.111   1_545 S
C283   C303    1.470   .     S
C283   O323    1.293   .     A
C283   O321    1.298   .     A
C284   C304    1.487   .     S
C284   O324    1.304   .     A
C284   O322    1.298   .     A
C285   I373    2.127   .     S
C285   C287    1.412   .     A
C285   C293    1.422   .     A
C286   C294    1.423   .     A
C286   C288    1.411   .     A
C286   I374    2.127   .     S
C287   N319    1.364   .     A
C287   H315    1.075   .     S
C288   N320    1.363   .     A
C288   H316    1.078   .     S
C289   I375    2.126   .     S
C289   N319    1.379   .     A
C289   C291    1.399   .     A
C290   N320    1.377   .     A
C290   I376    2.127   .     S
C290   C292    1.400   .     A
C291   C293    1.397   .     A
C291   H317    1.081   .     S
C292   C294    1.398   .     A
C292   H318    1.081   .     S
C293   C858    1.514   1_554 S
C294   C857    1.514   .     S
C295   C297    1.447   .     S
C295   O325    1.277   .     A
C295   O327    1.299   .     A
C296   O328    1.289   .     A
C296   C298    1.443   .     S
C296   O326    1.286   .     A
C297   C486    1.372   1_455 S
C297   C517    1.533   1_455 S
C298   C391    1.372   .     S
C298   C430    1.542   .     S
C299   C309    1.392   .     A
C299   H313    1.085   .     S
C299   C301    1.384   .     A
C300   C310    1.394   .     A
C300   H314    1.084   .     S
C300   C302    1.392   .     A
C301   C303    1.411   .     A
C301   C343    1.510   .     S
C302   C304    1.426   .     A
C302   C350    1.519   .     S
C303   C305    1.422   .     A
C304   C306    1.419   .     A
C305   I357    2.158   .     S
C305   C307    1.423   .     A
C306   C308    1.411   .     A
C306   I358    2.157   .     S
C307   C359    1.530   .     S
C307   C309    1.422   .     A
C308   C366    1.529   .     S
C308   C310    1.419   .     A
C310   C27     1.475   1_565 S
Cu311  O324    1.957   .     S
Cu311  Cu312   2.680   .     S
Cu311  N320    2.013   .     S
Cu311  O325    1.984   .     S
Cu311  O321    1.957   .     S
Cu311  O328    1.980   .     S
Cu312  O327    1.980   .     S
Cu312  O323    1.957   .     S
Cu312  O326    1.984   .     S
Cu312  N319    2.013   .     S
Cu312  O322    1.957   .     S
C329   H335    1.102   .     S
C329   H334    1.110   .     S
C329   C391    1.533   .     S
C329   C424    1.529   .     S
C330   H333    1.111   .     S
C330   H332    1.105   .     S
C330   H331    1.110   .     S
C330   C517    1.529   1_455 S
C336   H342    1.111   .     S
C336   H341    1.102   .     S
C336   C486    1.542   1_455 S
C336   C525    1.534   1_455 S
C337   H338    1.109   .     S
C337   H339    1.108   .     S
C337   H340    1.111   .     S
C337   C430    1.534   .     S
C343   H348    1.113   .     S
C343   H349    1.103   .     S
C343   C344    1.521   .     S
C344   H346    1.110   .     S
C344   H345    1.107   .     S
C344   H347    1.111   .     S
C350   H356    1.112   .     S
C350   C351    1.526   .     S
C350   H355    1.106   .     S
C351   H353    1.110   .     S
C351   H352    1.106   .     S
C351   H354    1.111   .     S
C359   C360    1.526   .     S
C359   H365    1.101   .     S
C359   H364    1.106   .     S
C360   H361    1.111   .     S
C360   H457    1.111   .     S
H362   C78     1.107   1_565 S
H363   C548    1.111   1_455 S
C366   H372    1.107   .     S
C366   C367    1.526   .     S
C366   H371    1.107   .     S
C367   H368    1.111   .     S
C367   H87     1.107   1_565 S
C367   H88     1.111   1_565 S
C377   C397    1.470   .     S
C377   O417    1.293   .     A
C377   O415    1.298   .     A
C378   C398    1.487   .     S
C378   O418    1.304   .     A
C378   O416    1.298   .     A
C379   I467    2.127   .     S
C379   C381    1.412   .     A
C379   C387    1.422   .     A
C380   C388    1.423   .     A
C380   C382    1.411   .     A
C380   I468    2.127   .     S
C381   N413    1.364   .     A
C381   H409    1.075   .     S
C382   N414    1.363   .     A
C382   H410    1.078   .     S
C383   I469    2.126   .     S
C383   N413    1.379   .     A
C383   C385    1.399   .     A
C384   N414    1.377   .     A
C384   I470    2.127   .     S
C384   C386    1.400   .     A
C385   C387    1.397   .     A
C385   H411    1.081   .     S
C386   C388    1.398   .     A
C386   H412    1.081   .     S
C387   C952    1.514   1_554 S
C388   C951    1.514   .     S
C389   C391    1.447   .     S
C389   O419    1.277   .     A
C389   O421    1.299   .     A
C390   O422    1.289   .     A
C390   C392    1.443   .     S
C390   O420    1.286   .     A
C392   C485    1.372   .     S
C392   C524    1.542   .     S
C393   C403    1.392   .     A
C393   H407    1.085   .     S
C393   C395    1.384   .     A
C394   C404    1.394   .     A
C394   H408    1.084   .     S
C394   C396    1.392   .     A
C395   C397    1.411   .     A
C395   C437    1.510   .     S
C396   C398    1.426   .     A
C396   C444    1.519   .     S
C397   C399    1.422   .     A
C398   C400    1.419   .     A
C399   I451    2.158   .     S
C399   C401    1.423   .     A
C400   C402    1.411   .     A
C400   I452    2.157   .     S
C401   C453    1.530   .     S
C401   C403    1.422   .     A
C402   C460    1.529   .     S
C402   C404    1.419   .     A
C404   C121    1.475   1_565 S
Cu405  O418    1.957   .     S
Cu405  Cu406   2.680   .     S
Cu405  N414    2.013   .     S
Cu405  O419    1.984   .     S
Cu405  O415    1.957   .     S
Cu405  O422    1.980   .     S
Cu406  O421    1.980   .     S
Cu406  O417    1.957   .     S
Cu406  O420    1.984   .     S
Cu406  N413    2.013   .     S
Cu406  O416    1.957   .     S
C423   H429    1.102   .     S
C423   H428    1.110   .     S
C423   C485    1.533   .     S
C423   C518    1.529   .     S
C424   H427    1.111   .     S
C424   H426    1.105   .     S
C424   H425    1.110   .     S
C430   H436    1.111   .     S
C430   H435    1.102   .     S
C431   H432    1.109   .     S
C431   H433    1.108   .     S
C431   H434    1.111   .     S
C431   C524    1.534   .     S
C437   H442    1.113   .     S
C437   H443    1.103   .     S
C437   C438    1.521   .     S
C438   H440    1.110   .     S
C438   H439    1.107   .     S
C438   H441    1.111   .     S
C444   H450    1.112   .     S
C444   C445    1.526   .     S
C444   H449    1.106   .     S
C445   H447    1.110   .     S
C445   H446    1.106   .     S
C445   H448    1.111   .     S
C453   C454    1.526   .     S
C453   H459    1.101   .     S
C453   H458    1.106   .     S
C454   H455    1.111   .     S
C454   H551    1.111   .     S
H456   C172    1.107   1_565 S
C460   H466    1.107   .     S
C460   C461    1.526   .     S
C460   H465    1.107   .     S
C461   H462    1.111   .     S
C461   H181    1.107   1_565 S
C461   H182    1.111   1_565 S
C471   C491    1.470   .     S
C471   O511    1.293   .     A
C471   O509    1.298   .     A
C472   C492    1.487   .     S
C472   O512    1.304   .     A
C472   O510    1.298   .     A
C473   I561    2.127   .     S
C473   C475    1.412   .     A
C473   C481    1.422   .     A
C474   C482    1.423   .     A
C474   C476    1.411   .     A
C474   I562    2.127   .     S
C475   N507    1.364   .     A
C475   H503    1.075   .     S
C476   N508    1.363   .     A
C476   H504    1.078   .     S
C477   I563    2.126   .     S
C477   N507    1.379   .     A
C477   C479    1.399   .     A
C478   N508    1.377   .     A
C478   I564    2.127   .     S
C478   C480    1.400   .     A
C479   C481    1.397   .     A
C479   H505    1.081   .     S
C480   C482    1.398   .     A
C480   H506    1.081   .     S
C481   C1046   1.514   1_554 S
C482   C1045   1.514   .     S
C483   C485    1.447   .     S
C483   O513    1.277   .     A
C483   O515    1.299   .     A
C484   O516    1.289   .     A
C484   C486    1.443   .     S
C484   O514    1.286   .     A
C486   C297    1.372   1_655 S
C486   C336    1.542   1_655 S
C487   C497    1.392   .     A
C487   H501    1.085   .     S
C487   C489    1.384   .     A
C488   C498    1.394   .     A
C488   H502    1.084   .     S
C488   C490    1.392   .     A
C489   C491    1.411   .     A
C489   C531    1.510   .     S
C490   C492    1.426   .     A
C490   C538    1.519   .     S
C491   C493    1.422   .     A
C492   C494    1.419   .     A
C493   I545    2.158   .     S
C493   C495    1.423   .     A
C494   C496    1.411   .     A
C494   I546    2.157   .     S
C495   C547    1.530   .     S
C495   C497    1.422   .     A
C496   C554    1.529   .     S
C496   C498    1.419   .     A
C498   C215    1.475   1_565 S
Cu499  O512    1.957   .     S
Cu499  Cu500   2.680   .     S
Cu499  N508    2.013   .     S
Cu499  O513    1.984   .     S
Cu499  O509    1.957   .     S
Cu499  O516    1.980   .     S
Cu500  O515    1.980   .     S
Cu500  O511    1.957   .     S
Cu500  O514    1.984   .     S
Cu500  N507    2.013   .     S
Cu500  O510    1.957   .     S
C517   H523    1.102   .     S
C517   H522    1.110   .     S
C517   C297    1.533   1_655 S
C517   C330    1.529   1_655 S
C518   H521    1.111   .     S
C518   H520    1.105   .     S
C518   H519    1.110   .     S
C524   H530    1.111   .     S
C524   H529    1.102   .     S
C525   H526    1.109   .     S
C525   H527    1.108   .     S
C525   H528    1.111   .     S
C525   C336    1.534   1_655 S
C531   H536    1.113   .     S
C531   H537    1.103   .     S
C531   C532    1.521   .     S
C532   H534    1.110   .     S
C532   H533    1.107   .     S
C532   H535    1.111   .     S
C538   H544    1.112   .     S
C538   C539    1.526   .     S
C538   H543    1.106   .     S
C539   H541    1.110   .     S
C539   H540    1.106   .     S
C539   H542    1.111   .     S
C547   C548    1.526   .     S
C547   H553    1.101   .     S
C547   H552    1.106   .     S
C548   H549    1.111   .     S
C548   H363    1.111   1_655 S
H550   C266    1.107   1_565 S
C554   H560    1.107   .     S
C554   C555    1.526   .     S
C554   H559    1.107   .     S
C555   H556    1.111   .     S
C555   H275    1.107   1_565 S
C555   H276    1.111   1_565 S
C565   C585    1.470   .     S
C565   O605    1.293   .     A
C565   O603    1.298   .     A
C566   C586    1.487   .     S
C566   O606    1.304   .     A
C566   O604    1.298   .     A
C567   I655    2.127   .     S
C567   C569    1.412   .     A
C567   C575    1.422   .     A
C568   C576    1.423   .     A
C568   C570    1.411   .     A
C568   I656    2.127   .     S
C569   N601    1.364   .     A
C569   H597    1.075   .     S
C570   N602    1.363   .     A
C570   H598    1.078   .     S
C571   I657    2.126   .     S
C571   N601    1.379   .     A
C571   C573    1.399   .     A
C572   N602    1.377   .     A
C572   I658    2.127   .     S
C572   C574    1.400   .     A
C573   C575    1.397   .     A
C573   H599    1.081   .     S
C574   C576    1.398   .     A
C574   H600    1.081   .     S
C576   C11     1.514   1_556 S
C577   C579    1.447   .     S
C577   O607    1.277   .     A
C577   O609    1.299   .     A
C578   O610    1.289   .     A
C578   C580    1.443   .     S
C578   O608    1.286   .     A
C579   C768    1.372   1_455 S
C579   C799    1.533   1_455 S
C580   C673    1.372   .     S
C580   C712    1.542   .     S
C581   C591    1.392   .     A
C581   H595    1.085   .     S
C581   C583    1.384   .     A
C582   C592    1.394   .     A
C582   H596    1.084   .     S
C582   C584    1.392   .     A
C583   C585    1.411   .     A
C583   C625    1.510   .     S
C584   C586    1.426   .     A
C584   C632    1.519   .     S
C585   C587    1.422   .     A
C586   C588    1.419   .     A
C587   I639    2.158   .     S
C587   C589    1.423   .     A
C588   C590    1.411   .     A
C588   I640    2.157   .     S
C589   C641    1.530   .     S
C589   C591    1.422   .     A
C590   C648    1.529   .     S
C590   C592    1.419   .     A
C591   C874    1.475   1_545 S
C592   C873    1.475   .     S
Cu593  O606    1.957   .     S
Cu593  Cu594   2.680   .     S
Cu593  N602    2.013   .     S
Cu593  O607    1.984   .     S
Cu593  O603    1.957   .     S
Cu593  O610    1.980   .     S
Cu594  O609    1.980   .     S
Cu594  O605    1.957   .     S
Cu594  O608    1.984   .     S
Cu594  N601    2.013   .     S
Cu594  O604    1.957   .     S
C611   H617    1.102   .     S
C611   H616    1.110   .     S
C611   C673    1.533   .     S
C611   C706    1.529   .     S
C612   H615    1.111   .     S
C612   H614    1.105   .     S
C612   H613    1.110   .     S
C612   C799    1.529   1_455 S
C618   H624    1.111   .     S
C618   H623    1.102   .     S
C618   C768    1.542   1_455 S
C618   C807    1.534   1_455 S
C619   H620    1.109   .     S
C619   H621    1.108   .     S
C619   H622    1.111   .     S
C619   C712    1.534   .     S
C625   H630    1.113   .     S
C625   H631    1.103   .     S
C625   C626    1.521   .     S
C626   H628    1.110   .     S
C626   H627    1.107   .     S
C626   H629    1.111   .     S
C632   H638    1.112   .     S
C632   C633    1.526   .     S
C632   H637    1.106   .     S
C633   H635    1.110   .     S
C633   H634    1.106   .     S
C633   H636    1.111   .     S
C641   C642    1.526   .     S
C641   H647    1.101   .     S
C641   H646    1.106   .     S
C642   H643    1.111   .     S
C642   H926    1.107   1_545 S
C642   H739    1.111   .     S
H644   C924    1.107   .     S
H645   C830    1.111   1_455 S
C648   H654    1.107   .     S
C648   C649    1.526   .     S
C648   H653    1.107   .     S
C649   H650    1.111   .     S
C649   H933    1.107   .     S
C649   H934    1.111   .     S
H651   C931    1.107   1_545 S
H652   C931    1.111   1_545 S
C659   C679    1.470   .     S
C659   O699    1.293   .     A
C659   O697    1.298   .     A
C660   C680    1.487   .     S
C660   O700    1.304   .     A
C660   O698    1.298   .     A
C661   I749    2.127   .     S
C661   C663    1.412   .     A
C661   C669    1.422   .     A
C662   C670    1.423   .     A
C662   C664    1.411   .     A
C662   I750    2.127   .     S
C663   N695    1.364   .     A
C663   H691    1.075   .     S
C664   N696    1.363   .     A
C664   H692    1.078   .     S
C665   I751    2.126   .     S
C665   N695    1.379   .     A
C665   C667    1.399   .     A
C666   N696    1.377   .     A
C666   I752    2.127   .     S
C666   C668    1.400   .     A
C667   C669    1.397   .     A
C667   H693    1.081   .     S
C668   C670    1.398   .     A
C668   H694    1.081   .     S
C670   C105    1.514   1_556 S
C671   C673    1.447   .     S
C671   O701    1.277   .     A
C671   O703    1.299   .     A
C672   O704    1.289   .     A
C672   C674    1.443   .     S
C672   O702    1.286   .     A
C674   C767    1.372   .     S
C674   C806    1.542   .     S
C675   C685    1.392   .     A
C675   H689    1.085   .     S
C675   C677    1.384   .     A
C676   C686    1.394   .     A
C676   H690    1.084   .     S
C676   C678    1.392   .     A
C677   C679    1.411   .     A
C677   C719    1.510   .     S
C678   C680    1.426   .     A
C678   C726    1.519   .     S
C679   C681    1.422   .     A
C680   C682    1.419   .     A
C681   I733    2.158   .     S
C681   C683    1.423   .     A
C682   C684    1.411   .     A
C682   I734    2.157   .     S
C683   C735    1.530   .     S
C683   C685    1.422   .     A
C684   C742    1.529   .     S
C684   C686    1.419   .     A
C685   C968    1.475   1_545 S
C686   C967    1.475   .     S
Cu687  O700    1.957   .     S
Cu687  Cu688   2.680   .     S
Cu687  N696    2.013   .     S
Cu687  O701    1.984   .     S
Cu687  O697    1.957   .     S
Cu687  O704    1.980   .     S
Cu688  O703    1.980   .     S
Cu688  O699    1.957   .     S
Cu688  O702    1.984   .     S
Cu688  N695    2.013   .     S
Cu688  O698    1.957   .     S
C705   H711    1.102   .     S
C705   H710    1.110   .     S
C705   C767    1.533   .     S
C705   C800    1.529   .     S
C706   H709    1.111   .     S
C706   H708    1.105   .     S
C706   H707    1.110   .     S
C712   H718    1.111   .     S
C712   H717    1.102   .     S
C713   H714    1.109   .     S
C713   H715    1.108   .     S
C713   H716    1.111   .     S
C713   C806    1.534   .     S
C719   H724    1.113   .     S
C719   H725    1.103   .     S
C719   C720    1.521   .     S
C720   H722    1.110   .     S
C720   H721    1.107   .     S
C720   H723    1.111   .     S
C726   H732    1.112   .     S
C726   C727    1.526   .     S
C726   H731    1.106   .     S
C727   H729    1.110   .     S
C727   H728    1.106   .     S
C727   H730    1.111   .     S
C735   C736    1.526   .     S
C735   H741    1.101   .     S
C735   H740    1.106   .     S
C736   H737    1.111   .     S
C736   H1020   1.107   1_545 S
C736   H833    1.111   .     S
H738   C1018   1.107   .     S
C742   H748    1.107   .     S
C742   C743    1.526   .     S
C742   H747    1.107   .     S
C743   H744    1.111   .     S
C743   H1027   1.107   .     S
C743   H1028   1.111   .     S
H745   C1025   1.107   1_545 S
H746   C1025   1.111   1_545 S
C753   C773    1.470   .     S
C753   O793    1.293   .     A
C753   O791    1.298   .     A
C754   C774    1.487   .     S
C754   O794    1.304   .     A
C754   O792    1.298   .     A
C755   I843    2.127   .     S
C755   C757    1.412   .     A
C755   C763    1.422   .     A
C756   C764    1.423   .     A
C756   C758    1.411   .     A
C756   I844    2.127   .     S
C757   N789    1.364   .     A
C757   H785    1.075   .     S
C758   N790    1.363   .     A
C758   H786    1.078   .     S
C759   I845    2.126   .     S
C759   N789    1.379   .     A
C759   C761    1.399   .     A
C760   N790    1.377   .     A
C760   I846    2.127   .     S
C760   C762    1.400   .     A
C761   C763    1.397   .     A
C761   H787    1.081   .     S
C762   C764    1.398   .     A
C762   H788    1.081   .     S
C764   C199    1.514   1_556 S
C765   C767    1.447   .     S
C765   O795    1.277   .     A
C765   O797    1.299   .     A
C766   O798    1.289   .     A
C766   C768    1.443   .     S
C766   O796    1.286   .     A
C768   C579    1.372   1_655 S
C768   C618    1.542   1_655 S
C769   C779    1.392   .     A
C769   H783    1.085   .     S
C769   C771    1.384   .     A
C770   C780    1.394   .     A
C770   H784    1.084   .     S
C770   C772    1.392   .     A
C771   C773    1.411   .     A
C771   C813    1.510   .     S
C772   C774    1.426   .     A
C772   C820    1.519   .     S
C773   C775    1.422   .     A
C774   C776    1.419   .     A
C775   I827    2.158   .     S
C775   C777    1.423   .     A
C776   C778    1.411   .     A
C776   I828    2.157   .     S
C777   C829    1.530   .     S
C777   C779    1.422   .     A
C778   C836    1.529   .     S
C778   C780    1.419   .     A
C779   C1062   1.475   1_545 S
C780   C1061   1.475   .     S
Cu781  O794    1.957   .     S
Cu781  Cu782   2.680   .     S
Cu781  N790    2.013   .     S
Cu781  O795    1.984   .     S
Cu781  O791    1.957   .     S
Cu781  O798    1.980   .     S
Cu782  O797    1.980   .     S
Cu782  O793    1.957   .     S
Cu782  O796    1.984   .     S
Cu782  N789    2.013   .     S
Cu782  O792    1.957   .     S
C799   H805    1.102   .     S
C799   H804    1.110   .     S
C799   C579    1.533   1_655 S
C799   C612    1.529   1_655 S
C800   H803    1.111   .     S
C800   H802    1.105   .     S
C800   H801    1.110   .     S
C806   H812    1.111   .     S
C806   H811    1.102   .     S
C807   H808    1.109   .     S
C807   H809    1.108   .     S
C807   H810    1.111   .     S
C807   C618    1.534   1_655 S
C813   H818    1.113   .     S
C813   H819    1.103   .     S
C813   C814    1.521   .     S
C814   H816    1.110   .     S
C814   H815    1.107   .     S
C814   H817    1.111   .     S
C820   H826    1.112   .     S
C820   C821    1.526   .     S
C820   H825    1.106   .     S
C821   H823    1.110   .     S
C821   H822    1.106   .     S
C821   H824    1.111   .     S
C829   C830    1.526   .     S
C829   H835    1.101   .     S
C829   H834    1.106   .     S
C830   H831    1.111   .     S
C830   H1114   1.107   1_545 S
C830   H645    1.111   1_655 S
H832   C1112   1.107   .     S
C836   H842    1.107   .     S
C836   C837    1.526   .     S
C836   H841    1.107   .     S
C837   H838    1.111   .     S
C837   H1121   1.107   .     S
C837   H1122   1.111   .     S
H839   C1119   1.107   1_545 S
H840   C1119   1.111   1_545 S
C847   C867    1.470   .     S
C847   O887    1.293   .     A
C847   O885    1.298   .     A
C848   C868    1.487   .     S
C848   O888    1.304   .     A
C848   O886    1.298   .     A
C849   I937    2.127   .     S
C849   C851    1.412   .     A
C849   C857    1.422   .     A
C850   C858    1.423   .     A
C850   C852    1.411   .     A
C850   I938    2.127   .     S
C851   N883    1.364   .     A
C851   H879    1.075   .     S
C852   N884    1.363   .     A
C852   H880    1.078   .     S
C853   I939    2.126   .     S
C853   N883    1.379   .     A
C853   C855    1.399   .     A
C854   N884    1.377   .     A
C854   I940    2.127   .     S
C854   C856    1.400   .     A
C855   C857    1.397   .     A
C855   H881    1.081   .     S
C856   C858    1.398   .     A
C856   H882    1.081   .     S
C858   C293    1.514   1_556 S
C859   C861    1.447   .     S
C859   O889    1.277   .     A
C859   O891    1.299   .     A
C860   O892    1.289   .     A
C860   C862    1.443   .     S
C860   O890    1.286   .     A
C861   C1050   1.372   1_455 S
C861   C1081   1.533   1_455 S
C862   C955    1.372   .     S
C862   C994    1.542   .     S
C863   C873    1.392   .     A
C863   H877    1.085   .     S
C863   C865    1.384   .     A
C864   C874    1.394   .     A
C864   H878    1.084   .     S
C864   C866    1.392   .     A
C865   C867    1.411   .     A
C865   C907    1.510   .     S
C866   C868    1.426   .     A
C866   C914    1.519   .     S
C867   C869    1.422   .     A
C868   C870    1.419   .     A
C869   I921    2.158   .     S
C869   C871    1.423   .     A
C870   C872    1.411   .     A
C870   I922    2.157   .     S
C871   C923    1.530   .     S
C871   C873    1.422   .     A
C872   C930    1.529   .     S
C872   C874    1.419   .     A
C874   C591    1.475   1_565 S
Cu875  O888    1.957   .     S
Cu875  Cu876   2.680   .     S
Cu875  N884    2.013   .     S
Cu875  O889    1.984   .     S
Cu875  O885    1.957   .     S
Cu875  O892    1.980   .     S
Cu876  O891    1.980   .     S
Cu876  O887    1.957   .     S
Cu876  O890    1.984   .     S
Cu876  N883    2.013   .     S
Cu876  O886    1.957   .     S
C893   H899    1.102   .     S
C893   H898    1.110   .     S
C893   C955    1.533   .     S
C893   C988    1.529   .     S
C894   H897    1.111   .     S
C894   H896    1.105   .     S
C894   H895    1.110   .     S
C894   C1081   1.529   1_455 S
C900   H906    1.111   .     S
C900   H905    1.102   .     S
C900   C1050   1.542   1_455 S
C900   C1089   1.534   1_455 S
C901   H902    1.109   .     S
C901   H903    1.108   .     S
C901   H904    1.111   .     S
C901   C994    1.534   .     S
C907   H912    1.113   .     S
C907   H913    1.103   .     S
C907   C908    1.521   .     S
C908   H910    1.110   .     S
C908   H909    1.107   .     S
C908   H911    1.111   .     S
C914   H920    1.112   .     S
C914   C915    1.526   .     S
C914   H919    1.106   .     S
C915   H917    1.110   .     S
C915   H916    1.106   .     S
C915   H918    1.111   .     S
C923   C924    1.526   .     S
C923   H929    1.101   .     S
C923   H928    1.106   .     S
C924   H925    1.111   .     S
C924   H1021   1.111   .     S
H926   C642    1.107   1_565 S
H927   C1112   1.111   1_455 S
C930   H936    1.107   .     S
C930   C931    1.526   .     S
C930   H935    1.107   .     S
C931   H932    1.111   .     S
C931   H651    1.107   1_565 S
C931   H652    1.111   1_565 S
C941   C961    1.470   .     S
C941   O981    1.293   .     A
C941   O979    1.298   .     A
C942   C962    1.487   .     S
C942   O982    1.304   .     A
C942   O980    1.298   .     A
C943   I1031   2.127   .     S
C943   C945    1.412   .     A
C943   C951    1.422   .     A
C944   C952    1.423   .     A
C944   C946    1.411   .     A
C944   I1032   2.127   .     S
C945   N977    1.364   .     A
C945   H973    1.075   .     S
C946   N978    1.363   .     A
C946   H974    1.078   .     S
C947   I1033   2.126   .     S
C947   N977    1.379   .     A
C947   C949    1.399   .     A
C948   N978    1.377   .     A
C948   I1034   2.127   .     S
C948   C950    1.400   .     A
C949   C951    1.397   .     A
C949   H975    1.081   .     S
C950   C952    1.398   .     A
C950   H976    1.081   .     S
C952   C387    1.514   1_556 S
C953   C955    1.447   .     S
C953   O983    1.277   .     A
C953   O985    1.299   .     A
C954   O986    1.289   .     A
C954   C956    1.443   .     S
C954   O984    1.286   .     A
C956   C1049   1.372   .     S
C956   C1088   1.542   .     S
C957   C967    1.392   .     A
C957   H971    1.085   .     S
C957   C959    1.384   .     A
C958   C968    1.394   .     A
C958   H972    1.084   .     S
C958   C960    1.392   .     A
C959   C961    1.411   .     A
C959   C1001   1.510   .     S
C960   C962    1.426   .     A
C960   C1008   1.519   .     S
C961   C963    1.422   .     A
C962   C964    1.419   .     A
C963   I1015   2.158   .     S
C963   C965    1.423   .     A
C964   C966    1.411   .     A
C964   I1016   2.157   .     S
C965   C1017   1.530   .     S
C965   C967    1.422   .     A
C966   C1024   1.529   .     S
C966   C968    1.419   .     A
C968   C685    1.475   1_565 S
Cu969  O982    1.957   .     S
Cu969  Cu970   2.680   .     S
Cu969  N978    2.013   .     S
Cu969  O983    1.984   .     S
Cu969  O979    1.957   .     S
Cu969  O986    1.980   .     S
Cu970  O985    1.980   .     S
Cu970  O981    1.957   .     S
Cu970  O984    1.984   .     S
Cu970  N977    2.013   .     S
Cu970  O980    1.957   .     S
C987   H993    1.102   .     S
C987   H992    1.110   .     S
C987   C1049   1.533   .     S
C987   C1082   1.529   .     S
C988   H991    1.111   .     S
C988   H990    1.105   .     S
C988   H989    1.110   .     S
C994   H1000   1.111   .     S
C994   H999    1.102   .     S
C995   H996    1.109   .     S
C995   H997    1.108   .     S
C995   H998    1.111   .     S
C995   C1088   1.534   .     S
C1001  H1006   1.113   .     S
C1001  H1007   1.103   .     S
C1001  C1002   1.521   .     S
C1002  H1004   1.110   .     S
C1002  H1003   1.107   .     S
C1002  H1005   1.111   .     S
C1008  H1014   1.112   .     S
C1008  C1009   1.526   .     S
C1008  H1013   1.106   .     S
C1009  H1011   1.110   .     S
C1009  H1010   1.106   .     S
C1009  H1012   1.111   .     S
C1017  C1018   1.526   .     S
C1017  H1023   1.101   .     S
C1017  H1022   1.106   .     S
C1018  H1019   1.111   .     S
C1018  H1115   1.111   .     S
H1020  C736    1.107   1_565 S
C1024  H1030   1.107   .     S
C1024  C1025   1.526   .     S
C1024  H1029   1.107   .     S
C1025  H1026   1.111   .     S
C1025  H745    1.107   1_565 S
C1025  H746    1.111   1_565 S
C1035  C1055   1.470   .     S
C1035  O1075   1.293   .     A
C1035  O1073   1.298   .     A
C1036  C1056   1.487   .     S
C1036  O1076   1.304   .     A
C1036  O1074   1.298   .     A
C1037  I1125   2.127   .     S
C1037  C1039   1.412   .     A
C1037  C1045   1.422   .     A
C1038  C1046   1.423   .     A
C1038  C1040   1.411   .     A
C1038  I1126   2.127   .     S
C1039  N1071   1.364   .     A
C1039  H1067   1.075   .     S
C1040  N1072   1.363   .     A
C1040  H1068   1.078   .     S
C1041  I1127   2.126   .     S
C1041  N1071   1.379   .     A
C1041  C1043   1.399   .     A
C1042  N1072   1.377   .     A
C1042  I1128   2.127   .     S
C1042  C1044   1.400   .     A
C1043  C1045   1.397   .     A
C1043  H1069   1.081   .     S
C1044  C1046   1.398   .     A
C1044  H1070   1.081   .     S
C1046  C481    1.514   1_556 S
C1047  C1049   1.447   .     S
C1047  O1077   1.277   .     A
C1047  O1079   1.299   .     A
C1048  O1080   1.289   .     A
C1048  C1050   1.443   .     S
C1048  O1078   1.286   .     A
C1050  C861    1.372   1_655 S
C1050  C900    1.542   1_655 S
C1051  C1061   1.392   .     A
C1051  H1065   1.085   .     S
C1051  C1053   1.384   .     A
C1052  C1062   1.394   .     A
C1052  H1066   1.084   .     S
C1052  C1054   1.392   .     A
C1053  C1055   1.411   .     A
C1053  C1095   1.510   .     S
C1054  C1056   1.426   .     A
C1054  C1102   1.519   .     S
C1055  C1057   1.422   .     A
C1056  C1058   1.419   .     A
C1057  I1109   2.158   .     S
C1057  C1059   1.423   .     A
C1058  C1060   1.411   .     A
C1058  I1110   2.157   .     S
C1059  C1111   1.530   .     S
C1059  C1061   1.422   .     A
C1060  C1118   1.529   .     S
C1060  C1062   1.419   .     A
C1062  C779    1.475   1_565 S
Cu1063 O1076   1.957   .     S
Cu1063 Cu1064  2.680   .     S
Cu1063 N1072   2.013   .     S
Cu1063 O1077   1.984   .     S
Cu1063 O1073   1.957   .     S
Cu1063 O1080   1.980   .     S
Cu1064 O1079   1.980   .     S
Cu1064 O1075   1.957   .     S
Cu1064 O1078   1.984   .     S
Cu1064 N1071   2.013   .     S
Cu1064 O1074   1.957   .     S
C1081  H1087   1.102   .     S
C1081  H1086   1.110   .     S
C1081  C861    1.533   1_655 S
C1081  C894    1.529   1_655 S
C1082  H1085   1.111   .     S
C1082  H1084   1.105   .     S
C1082  H1083   1.110   .     S
C1088  H1094   1.111   .     S
C1088  H1093   1.102   .     S
C1089  H1090   1.109   .     S
C1089  H1091   1.108   .     S
C1089  H1092   1.111   .     S
C1089  C900    1.534   1_655 S
C1095  H1100   1.113   .     S
C1095  H1101   1.103   .     S
C1095  C1096   1.521   .     S
C1096  H1098   1.110   .     S
C1096  H1097   1.107   .     S
C1096  H1099   1.111   .     S
C1102  H1108   1.112   .     S
C1102  C1103   1.526   .     S
C1102  H1107   1.106   .     S
C1103  H1105   1.110   .     S
C1103  H1104   1.106   .     S
C1103  H1106   1.111   .     S
C1111  C1112   1.526   .     S
C1111  H1117   1.101   .     S
C1111  H1116   1.106   .     S
C1112  H1113   1.111   .     S
C1112  H927    1.111   1_655 S
H1114  C830    1.107   1_565 S
C1118  H1124   1.107   .     S
C1118  C1119   1.526   .     S
C1118  H1123   1.107   .     S
C1119  H1120   1.111   .     S
C1119  H839    1.107   1_565 S
C1119  H840    1.111   1_565 S
