data_str_m2_o10_o17_pcu_sym.53
_audit_creation_date              2020-01-03
_audit_creation_method            'Materials Studio'
_symmetry_space_group_name_H-M    'P1'
_symmetry_Int_Tables_number       1
_symmetry_cell_setting            triclinic
loop_
_symmetry_equiv_pos_as_xyz
  x,y,z
_cell_length_a                    30.1026
_cell_length_b                    26.0426
_cell_length_c                    22.3174
_cell_angle_alpha                 102.8871
_cell_angle_beta                  94.4254
_cell_angle_gamma                 92.5615
loop_
_atom_site_label
_atom_site_type_symbol
_atom_site_fract_x
_atom_site_fract_y
_atom_site_fract_z
_atom_site_U_iso_or_equiv
_atom_site_adp_type
_atom_site_occupancy
C1     C     0.24864   0.06656   0.15109   0.00000  Uiso   1.00
C2     C     0.08839   0.13206   0.11468   0.00000  Uiso   1.00
C3     C     0.38413   0.17353   0.16597   0.00000  Uiso   1.00
C4     C     0.11587   0.15981   0.16736   0.00000  Uiso   1.00
C5     C     0.40291   0.14740   0.11348   0.00000  Uiso   1.00
C6     C     0.09709   0.18593   0.21985   0.00000  Uiso   1.00
C7     C     0.44882   0.14543   0.11333   0.00000  Uiso   1.00
C8     C     0.05118   0.18791   0.22001   0.00000  Uiso   1.00
C9     C     0.47677   0.16883   0.16698   0.00000  Uiso   1.00
C10    C     0.02323   0.16450   0.16636   0.00000  Uiso   1.00
C11    C     0.45831   0.19663   0.22093   0.00000  Uiso   1.00
C12    C     0.25136   0.26677   0.18225   0.00000  Uiso   1.00
C13    C     0.04169   0.13670   0.11241   0.00000  Uiso   1.00
C14    C     0.46674   0.11912   0.06007   0.00000  Uiso   1.00
C15    C     0.03326   0.21422   0.27327   0.00000  Uiso   1.00
C16    C     0.01244   0.11443   0.05861   0.00000  Uiso   1.00
C17    C     0.48756   0.21891   0.27472   0.00000  Uiso   1.00
C18    C     0.24797   0.01061   0.14229   0.00000  Uiso   1.00
C19    C     0.25203   0.32272   0.19104   0.00000  Uiso   1.00
C20    C     0.16436   0.16406   0.16694   0.00000  Uiso   1.00
C21    C     0.33564   0.16928   0.16639   0.00000  Uiso   1.00
C22    C     0.41162   0.20128   0.21865   0.00000  Uiso   1.00
Cu23   Cu    0.25501   0.17246   0.22813   0.00000  Uiso   1.00
Cu24   Cu    0.24500   0.16087   0.10521   0.00000  Uiso   1.00
H25    H     0.38153   0.12719   0.07292   0.00000  Uiso   1.00
H26    H     0.13173   0.08237   0.08331   0.00000  Uiso   1.00
H27    H     0.05030   0.11266   0.31981   0.00000  Uiso   1.00
H28    H     0.04173   0.05300   0.00645   0.00000  Uiso   1.00
H29    H     0.44970   0.22068   0.01352   0.00000  Uiso   1.00
H30    H     0.45827   0.28034   0.32688   0.00000  Uiso   1.00
H31    H     0.11847   0.20614   0.26042   0.00000  Uiso   1.00
H32    H     0.44493   0.10177   0.01881   0.00000  Uiso   1.00
H33    H     0.05507   0.23156   0.31453   0.00000  Uiso   1.00
H34    H     0.24412   0.32010   0.09530   0.00000  Uiso   1.00
H35    H     0.25588   0.01323   0.23804   0.00000  Uiso   1.00
H36    H     0.21497   0.12593   0.31606   0.00000  Uiso   1.00
H37    H     0.28503   0.20741   0.01727   0.00000  Uiso   1.00
H38    H     0.36827   0.25097   0.25003   0.00000  Uiso   1.00
N39    N     0.23745   0.15214   0.01284   0.00000  Uiso   1.00
N40    N     0.26256   0.18119   0.32049   0.00000  Uiso   1.00
N41    N     0.02741   0.08770   0.00108   0.00000  Uiso   1.00
N42    N     0.47259   0.24564   0.33226   0.00000  Uiso   1.00
O43    O     0.25326   0.09538   0.20659   0.00000  Uiso   1.00
O44    O     0.10663   0.09974   0.06628   0.00000  Uiso   1.00
O45    O     0.24675   0.23796   0.12674   0.00000  Uiso   1.00
O46    O     0.24480   0.08559   0.10279   0.00000  Uiso   1.00
O47    O     0.25520   0.24774   0.23055   0.00000  Uiso   1.00
O48    O     0.18936   0.17155   0.21857   0.00000  Uiso   1.00
O49    O     0.31065   0.16179   0.11476   0.00000  Uiso   1.00
O50    O     0.18090   0.16176   0.11477   0.00000  Uiso   1.00
O51    O     0.31910   0.17157   0.21857   0.00000  Uiso   1.00
O52    O     0.39337   0.23360   0.26705   0.00000  Uiso   1.00
C53    C     0.74864   0.06656   0.15109   0.00000  Uiso   1.00
C54    C     0.58839   0.13206   0.11468   0.00000  Uiso   1.00
C55    C     0.88413   0.17353   0.16597   0.00000  Uiso   1.00
C56    C     0.61587   0.15981   0.16736   0.00000  Uiso   1.00
C57    C     0.90291   0.14740   0.11348   0.00000  Uiso   1.00
C58    C     0.59709   0.18593   0.21985   0.00000  Uiso   1.00
C59    C     0.94882   0.14543   0.11333   0.00000  Uiso   1.00
C60    C     0.55118   0.18791   0.22001   0.00000  Uiso   1.00
C61    C     0.97677   0.16883   0.16698   0.00000  Uiso   1.00
C62    C     0.52323   0.16450   0.16636   0.00000  Uiso   1.00
C63    C     0.95831   0.19663   0.22093   0.00000  Uiso   1.00
C64    C     0.75136   0.26677   0.18225   0.00000  Uiso   1.00
C65    C     0.54169   0.13670   0.11241   0.00000  Uiso   1.00
C66    C     0.96674   0.11912   0.06007   0.00000  Uiso   1.00
C67    C     0.53326   0.21422   0.27327   0.00000  Uiso   1.00
C68    C     0.51244   0.11443   0.05861   0.00000  Uiso   1.00
C69    C     0.98756   0.21891   0.27472   0.00000  Uiso   1.00
C70    C     0.74797   0.01061   0.14229   0.00000  Uiso   1.00
C71    C     0.75203   0.32272   0.19104   0.00000  Uiso   1.00
C72    C     0.66436   0.16406   0.16694   0.00000  Uiso   1.00
C73    C     0.83564   0.16928   0.16639   0.00000  Uiso   1.00
C74    C     0.91162   0.20128   0.21865   0.00000  Uiso   1.00
Cu75   Cu    0.75501   0.17246   0.22813   0.00000  Uiso   1.00
Cu76   Cu    0.74500   0.16087   0.10521   0.00000  Uiso   1.00
H77    H     0.88153   0.12719   0.07292   0.00000  Uiso   1.00
H78    H     0.63173   0.08237   0.08331   0.00000  Uiso   1.00
H79    H     0.55030   0.11266   0.31981   0.00000  Uiso   1.00
H80    H     0.54173   0.05300   0.00645   0.00000  Uiso   1.00
H81    H     0.94970   0.22068   0.01352   0.00000  Uiso   1.00
H82    H     0.95827   0.28034   0.32688   0.00000  Uiso   1.00
H83    H     0.61847   0.20614   0.26042   0.00000  Uiso   1.00
H84    H     0.94493   0.10177   0.01881   0.00000  Uiso   1.00
H85    H     0.55507   0.23156   0.31453   0.00000  Uiso   1.00
H86    H     0.74412   0.32010   0.09530   0.00000  Uiso   1.00
H87    H     0.75588   0.01323   0.23804   0.00000  Uiso   1.00
H88    H     0.71497   0.12593   0.31606   0.00000  Uiso   1.00
H89    H     0.78503   0.20741   0.01727   0.00000  Uiso   1.00
H90    H     0.86827   0.25097   0.25003   0.00000  Uiso   1.00
N91    N     0.73745   0.15214   0.01284   0.00000  Uiso   1.00
N92    N     0.76256   0.18119   0.32049   0.00000  Uiso   1.00
N93    N     0.52741   0.08770   0.00108   0.00000  Uiso   1.00
N94    N     0.97259   0.24564   0.33226   0.00000  Uiso   1.00
O95    O     0.75326   0.09538   0.20659   0.00000  Uiso   1.00
O96    O     0.60663   0.09974   0.06628   0.00000  Uiso   1.00
O97    O     0.74675   0.23796   0.12674   0.00000  Uiso   1.00
O98    O     0.74480   0.08559   0.10279   0.00000  Uiso   1.00
O99    O     0.75520   0.24774   0.23055   0.00000  Uiso   1.00
O100   O     0.68936   0.17155   0.21857   0.00000  Uiso   1.00
O101   O     0.81065   0.16179   0.11476   0.00000  Uiso   1.00
O102   O     0.68090   0.16176   0.11477   0.00000  Uiso   1.00
O103   O     0.81910   0.17157   0.21857   0.00000  Uiso   1.00
O104   O     0.89337   0.23360   0.26705   0.00000  Uiso   1.00
C105   C     0.24864   0.39990   0.15109   0.00000  Uiso   1.00
C106   C     0.08839   0.46539   0.11468   0.00000  Uiso   1.00
C107   C     0.38413   0.50686   0.16597   0.00000  Uiso   1.00
C108   C     0.11587   0.49314   0.16736   0.00000  Uiso   1.00
C109   C     0.40291   0.48074   0.11348   0.00000  Uiso   1.00
C110   C     0.09709   0.51926   0.21985   0.00000  Uiso   1.00
C111   C     0.44882   0.47876   0.11333   0.00000  Uiso   1.00
C112   C     0.05118   0.52124   0.22001   0.00000  Uiso   1.00
C113   C     0.47677   0.50216   0.16698   0.00000  Uiso   1.00
C114   C     0.02323   0.49784   0.16636   0.00000  Uiso   1.00
C115   C     0.45831   0.52997   0.22093   0.00000  Uiso   1.00
C116   C     0.25136   0.60010   0.18225   0.00000  Uiso   1.00
C117   C     0.04169   0.47003   0.11241   0.00000  Uiso   1.00
C118   C     0.46674   0.45245   0.06007   0.00000  Uiso   1.00
C119   C     0.03326   0.54755   0.27327   0.00000  Uiso   1.00
C120   C     0.01244   0.44776   0.05861   0.00000  Uiso   1.00
C121   C     0.48756   0.55224   0.27472   0.00000  Uiso   1.00
C122   C     0.24797   0.34394   0.14229   0.00000  Uiso   1.00
C123   C     0.25203   0.65606   0.19104   0.00000  Uiso   1.00
C124   C     0.16436   0.49739   0.16694   0.00000  Uiso   1.00
C125   C     0.33564   0.50261   0.16639   0.00000  Uiso   1.00
C126   C     0.41162   0.53461   0.21865   0.00000  Uiso   1.00
Cu127  Cu    0.25501   0.50579   0.22813   0.00000  Uiso   1.00
Cu128  Cu    0.24500   0.49421   0.10521   0.00000  Uiso   1.00
H129   H     0.38153   0.46053   0.07292   0.00000  Uiso   1.00
H130   H     0.13173   0.41570   0.08331   0.00000  Uiso   1.00
H131   H     0.05030   0.44600   0.31981   0.00000  Uiso   1.00
H132   H     0.04173   0.38633   0.00645   0.00000  Uiso   1.00
H133   H     0.44970   0.55401   0.01352   0.00000  Uiso   1.00
H134   H     0.45827   0.61367   0.32688   0.00000  Uiso   1.00
H135   H     0.11847   0.53948   0.26042   0.00000  Uiso   1.00
H136   H     0.44493   0.43511   0.01881   0.00000  Uiso   1.00
H137   H     0.05507   0.56490   0.31453   0.00000  Uiso   1.00
H138   H     0.24412   0.65343   0.09530   0.00000  Uiso   1.00
H139   H     0.25588   0.34657   0.23804   0.00000  Uiso   1.00
H140   H     0.21497   0.45926   0.31606   0.00000  Uiso   1.00
H141   H     0.28503   0.54074   0.01727   0.00000  Uiso   1.00
H142   H     0.36827   0.58430   0.25003   0.00000  Uiso   1.00
N143   N     0.23745   0.48547   0.01284   0.00000  Uiso   1.00
N144   N     0.26256   0.51453   0.32049   0.00000  Uiso   1.00
N145   N     0.02741   0.42103   0.00108   0.00000  Uiso   1.00
N146   N     0.47259   0.57898   0.33226   0.00000  Uiso   1.00
O147   O     0.25326   0.42871   0.20659   0.00000  Uiso   1.00
O148   O     0.10663   0.43307   0.06628   0.00000  Uiso   1.00
O149   O     0.24675   0.57129   0.12674   0.00000  Uiso   1.00
O150   O     0.24480   0.41892   0.10279   0.00000  Uiso   1.00
O151   O     0.25520   0.58108   0.23055   0.00000  Uiso   1.00
O152   O     0.18936   0.50488   0.21857   0.00000  Uiso   1.00
O153   O     0.31065   0.49512   0.11476   0.00000  Uiso   1.00
O154   O     0.18090   0.49510   0.11477   0.00000  Uiso   1.00
O155   O     0.31910   0.50490   0.21857   0.00000  Uiso   1.00
O156   O     0.39337   0.56693   0.26705   0.00000  Uiso   1.00
C157   C     0.74864   0.39990   0.15109   0.00000  Uiso   1.00
C158   C     0.58839   0.46539   0.11468   0.00000  Uiso   1.00
C159   C     0.88413   0.50686   0.16597   0.00000  Uiso   1.00
C160   C     0.61587   0.49314   0.16736   0.00000  Uiso   1.00
C161   C     0.90291   0.48074   0.11348   0.00000  Uiso   1.00
C162   C     0.59709   0.51926   0.21985   0.00000  Uiso   1.00
C163   C     0.94882   0.47876   0.11333   0.00000  Uiso   1.00
C164   C     0.55118   0.52124   0.22001   0.00000  Uiso   1.00
C165   C     0.97677   0.50216   0.16698   0.00000  Uiso   1.00
C166   C     0.52323   0.49784   0.16636   0.00000  Uiso   1.00
C167   C     0.95831   0.52997   0.22093   0.00000  Uiso   1.00
C168   C     0.75136   0.60010   0.18225   0.00000  Uiso   1.00
C169   C     0.54169   0.47003   0.11241   0.00000  Uiso   1.00
C170   C     0.96674   0.45245   0.06007   0.00000  Uiso   1.00
C171   C     0.53326   0.54755   0.27327   0.00000  Uiso   1.00
C172   C     0.51244   0.44776   0.05861   0.00000  Uiso   1.00
C173   C     0.98756   0.55224   0.27472   0.00000  Uiso   1.00
C174   C     0.74797   0.34394   0.14229   0.00000  Uiso   1.00
C175   C     0.75203   0.65606   0.19104   0.00000  Uiso   1.00
C176   C     0.66436   0.49739   0.16694   0.00000  Uiso   1.00
C177   C     0.83564   0.50261   0.16639   0.00000  Uiso   1.00
C178   C     0.91162   0.53461   0.21865   0.00000  Uiso   1.00
Cu179  Cu    0.75501   0.50579   0.22813   0.00000  Uiso   1.00
Cu180  Cu    0.74500   0.49421   0.10521   0.00000  Uiso   1.00
H181   H     0.88153   0.46053   0.07292   0.00000  Uiso   1.00
H182   H     0.63173   0.41570   0.08331   0.00000  Uiso   1.00
H183   H     0.55030   0.44600   0.31981   0.00000  Uiso   1.00
H184   H     0.54173   0.38633   0.00645   0.00000  Uiso   1.00
H185   H     0.94970   0.55401   0.01352   0.00000  Uiso   1.00
H186   H     0.95827   0.61367   0.32688   0.00000  Uiso   1.00
H187   H     0.61847   0.53948   0.26042   0.00000  Uiso   1.00
H188   H     0.94493   0.43511   0.01881   0.00000  Uiso   1.00
H189   H     0.55507   0.56490   0.31453   0.00000  Uiso   1.00
H190   H     0.74412   0.65343   0.09530   0.00000  Uiso   1.00
H191   H     0.75588   0.34657   0.23804   0.00000  Uiso   1.00
H192   H     0.71497   0.45926   0.31606   0.00000  Uiso   1.00
H193   H     0.78503   0.54074   0.01727   0.00000  Uiso   1.00
H194   H     0.86827   0.58430   0.25003   0.00000  Uiso   1.00
N195   N     0.73745   0.48547   0.01284   0.00000  Uiso   1.00
N196   N     0.76256   0.51453   0.32049   0.00000  Uiso   1.00
N197   N     0.52741   0.42103   0.00108   0.00000  Uiso   1.00
N198   N     0.97259   0.57898   0.33226   0.00000  Uiso   1.00
O199   O     0.75326   0.42871   0.20659   0.00000  Uiso   1.00
O200   O     0.60663   0.43307   0.06628   0.00000  Uiso   1.00
O201   O     0.74675   0.57129   0.12674   0.00000  Uiso   1.00
O202   O     0.74480   0.41892   0.10279   0.00000  Uiso   1.00
O203   O     0.75520   0.58108   0.23055   0.00000  Uiso   1.00
O204   O     0.68936   0.50488   0.21857   0.00000  Uiso   1.00
O205   O     0.81065   0.49512   0.11476   0.00000  Uiso   1.00
O206   O     0.68090   0.49510   0.11477   0.00000  Uiso   1.00
O207   O     0.81910   0.50490   0.21857   0.00000  Uiso   1.00
O208   O     0.89337   0.56693   0.26705   0.00000  Uiso   1.00
C209   C     0.24864   0.73323   0.15109   0.00000  Uiso   1.00
C210   C     0.08839   0.79872   0.11468   0.00000  Uiso   1.00
C211   C     0.38413   0.84019   0.16597   0.00000  Uiso   1.00
C212   C     0.11587   0.82647   0.16736   0.00000  Uiso   1.00
C213   C     0.40291   0.81407   0.11348   0.00000  Uiso   1.00
C214   C     0.09709   0.85260   0.21985   0.00000  Uiso   1.00
C215   C     0.44882   0.81209   0.11333   0.00000  Uiso   1.00
C216   C     0.05118   0.85458   0.22001   0.00000  Uiso   1.00
C217   C     0.47677   0.83550   0.16698   0.00000  Uiso   1.00
C218   C     0.02323   0.83117   0.16636   0.00000  Uiso   1.00
C219   C     0.45831   0.86330   0.22093   0.00000  Uiso   1.00
C220   C     0.25136   0.93344   0.18225   0.00000  Uiso   1.00
C221   C     0.04169   0.80337   0.11241   0.00000  Uiso   1.00
C222   C     0.46674   0.78579   0.06007   0.00000  Uiso   1.00
C223   C     0.03326   0.88088   0.27327   0.00000  Uiso   1.00
C224   C     0.01244   0.78110   0.05861   0.00000  Uiso   1.00
C225   C     0.48756   0.88557   0.27472   0.00000  Uiso   1.00
C226   C     0.24797   0.67728   0.14229   0.00000  Uiso   1.00
C227   C     0.25203   0.98939   0.19104   0.00000  Uiso   1.00
C228   C     0.16436   0.83072   0.16694   0.00000  Uiso   1.00
C229   C     0.33564   0.83594   0.16639   0.00000  Uiso   1.00
C230   C     0.41162   0.86794   0.21865   0.00000  Uiso   1.00
Cu231  Cu    0.25501   0.83913   0.22813   0.00000  Uiso   1.00
Cu232  Cu    0.24500   0.82754   0.10521   0.00000  Uiso   1.00
H233   H     0.38153   0.79386   0.07292   0.00000  Uiso   1.00
H234   H     0.13173   0.74904   0.08331   0.00000  Uiso   1.00
H235   H     0.05030   0.77933   0.31981   0.00000  Uiso   1.00
H236   H     0.04173   0.71967   0.00645   0.00000  Uiso   1.00
H237   H     0.44970   0.88734   0.01352   0.00000  Uiso   1.00
H238   H     0.45827   0.94700   0.32688   0.00000  Uiso   1.00
H239   H     0.11847   0.87281   0.26042   0.00000  Uiso   1.00
H240   H     0.44493   0.76844   0.01881   0.00000  Uiso   1.00
H241   H     0.05507   0.89823   0.31453   0.00000  Uiso   1.00
H242   H     0.24412   0.98677   0.09530   0.00000  Uiso   1.00
H243   H     0.25588   0.67990   0.23804   0.00000  Uiso   1.00
H244   H     0.21497   0.79259   0.31606   0.00000  Uiso   1.00
H245   H     0.28503   0.87407   0.01727   0.00000  Uiso   1.00
H246   H     0.36827   0.91763   0.25003   0.00000  Uiso   1.00
N247   N     0.23745   0.81881   0.01284   0.00000  Uiso   1.00
N248   N     0.26256   0.84786   0.32049   0.00000  Uiso   1.00
N249   N     0.02741   0.75436   0.00108   0.00000  Uiso   1.00
N250   N     0.47259   0.91231   0.33226   0.00000  Uiso   1.00
O251   O     0.25326   0.76204   0.20659   0.00000  Uiso   1.00
O252   O     0.10663   0.76640   0.06628   0.00000  Uiso   1.00
O253   O     0.24675   0.90462   0.12674   0.00000  Uiso   1.00
O254   O     0.24480   0.75226   0.10279   0.00000  Uiso   1.00
O255   O     0.25520   0.91441   0.23055   0.00000  Uiso   1.00
O256   O     0.18936   0.83821   0.21857   0.00000  Uiso   1.00
O257   O     0.31065   0.82845   0.11476   0.00000  Uiso   1.00
O258   O     0.18090   0.82843   0.11477   0.00000  Uiso   1.00
O259   O     0.31910   0.83824   0.21857   0.00000  Uiso   1.00
O260   O     0.39337   0.90026   0.26705   0.00000  Uiso   1.00
C261   C     0.74864   0.73323   0.15109   0.00000  Uiso   1.00
C262   C     0.58839   0.79872   0.11468   0.00000  Uiso   1.00
C263   C     0.88413   0.84019   0.16597   0.00000  Uiso   1.00
C264   C     0.61587   0.82647   0.16736   0.00000  Uiso   1.00
C265   C     0.90291   0.81407   0.11348   0.00000  Uiso   1.00
C266   C     0.59709   0.85260   0.21985   0.00000  Uiso   1.00
C267   C     0.94882   0.81209   0.11333   0.00000  Uiso   1.00
C268   C     0.55118   0.85458   0.22001   0.00000  Uiso   1.00
C269   C     0.97677   0.83550   0.16698   0.00000  Uiso   1.00
C270   C     0.52323   0.83117   0.16636   0.00000  Uiso   1.00
C271   C     0.95831   0.86330   0.22093   0.00000  Uiso   1.00
C272   C     0.75136   0.93344   0.18225   0.00000  Uiso   1.00
C273   C     0.54169   0.80337   0.11241   0.00000  Uiso   1.00
C274   C     0.96674   0.78579   0.06007   0.00000  Uiso   1.00
C275   C     0.53326   0.88088   0.27327   0.00000  Uiso   1.00
C276   C     0.51244   0.78110   0.05861   0.00000  Uiso   1.00
C277   C     0.98756   0.88557   0.27472   0.00000  Uiso   1.00
C278   C     0.74797   0.67728   0.14229   0.00000  Uiso   1.00
C279   C     0.75203   0.98939   0.19104   0.00000  Uiso   1.00
C280   C     0.66436   0.83072   0.16694   0.00000  Uiso   1.00
C281   C     0.83564   0.83594   0.16639   0.00000  Uiso   1.00
C282   C     0.91162   0.86794   0.21865   0.00000  Uiso   1.00
Cu283  Cu    0.75501   0.83913   0.22813   0.00000  Uiso   1.00
Cu284  Cu    0.74500   0.82754   0.10521   0.00000  Uiso   1.00
H285   H     0.88153   0.79386   0.07292   0.00000  Uiso   1.00
H286   H     0.63173   0.74904   0.08331   0.00000  Uiso   1.00
H287   H     0.55030   0.77933   0.31981   0.00000  Uiso   1.00
H288   H     0.54173   0.71967   0.00645   0.00000  Uiso   1.00
H289   H     0.94970   0.88734   0.01352   0.00000  Uiso   1.00
H290   H     0.95827   0.94700   0.32688   0.00000  Uiso   1.00
H291   H     0.61847   0.87281   0.26042   0.00000  Uiso   1.00
H292   H     0.94493   0.76844   0.01881   0.00000  Uiso   1.00
H293   H     0.55507   0.89823   0.31453   0.00000  Uiso   1.00
H294   H     0.74412   0.98677   0.09530   0.00000  Uiso   1.00
H295   H     0.75588   0.67990   0.23804   0.00000  Uiso   1.00
H296   H     0.71497   0.79259   0.31606   0.00000  Uiso   1.00
H297   H     0.78503   0.87407   0.01727   0.00000  Uiso   1.00
H298   H     0.86827   0.91763   0.25003   0.00000  Uiso   1.00
N299   N     0.73745   0.81881   0.01284   0.00000  Uiso   1.00
N300   N     0.76256   0.84786   0.32049   0.00000  Uiso   1.00
N301   N     0.52741   0.75436   0.00108   0.00000  Uiso   1.00
N302   N     0.97259   0.91231   0.33226   0.00000  Uiso   1.00
O303   O     0.75326   0.76204   0.20659   0.00000  Uiso   1.00
O304   O     0.60663   0.76640   0.06628   0.00000  Uiso   1.00
O305   O     0.74675   0.90462   0.12674   0.00000  Uiso   1.00
O306   O     0.74480   0.75226   0.10279   0.00000  Uiso   1.00
O307   O     0.75520   0.91441   0.23055   0.00000  Uiso   1.00
O308   O     0.68936   0.83821   0.21857   0.00000  Uiso   1.00
O309   O     0.81065   0.82845   0.11476   0.00000  Uiso   1.00
O310   O     0.68090   0.82843   0.11477   0.00000  Uiso   1.00
O311   O     0.81910   0.83824   0.21857   0.00000  Uiso   1.00
O312   O     0.89337   0.90026   0.26705   0.00000  Uiso   1.00
C313   C     0.24864   0.06656   0.48442   0.00000  Uiso   1.00
C314   C     0.08839   0.13206   0.44802   0.00000  Uiso   1.00
C315   C     0.38413   0.17353   0.49931   0.00000  Uiso   1.00
C316   C     0.11587   0.15981   0.50069   0.00000  Uiso   1.00
C317   C     0.40291   0.14740   0.44682   0.00000  Uiso   1.00
C318   C     0.09709   0.18593   0.55318   0.00000  Uiso   1.00
C319   C     0.44882   0.14543   0.44666   0.00000  Uiso   1.00
C320   C     0.05118   0.18791   0.55334   0.00000  Uiso   1.00
C321   C     0.47677   0.16883   0.50031   0.00000  Uiso   1.00
C322   C     0.02323   0.16450   0.49969   0.00000  Uiso   1.00
C323   C     0.45831   0.19663   0.55426   0.00000  Uiso   1.00
C324   C     0.25136   0.26677   0.51558   0.00000  Uiso   1.00
C325   C     0.04169   0.13670   0.44574   0.00000  Uiso   1.00
C326   C     0.46674   0.11912   0.39340   0.00000  Uiso   1.00
C327   C     0.03326   0.21422   0.60660   0.00000  Uiso   1.00
C328   C     0.01244   0.11443   0.39195   0.00000  Uiso   1.00
C329   C     0.48756   0.21891   0.60805   0.00000  Uiso   1.00
C330   C     0.24797   0.01061   0.47562   0.00000  Uiso   1.00
C331   C     0.25203   0.32272   0.52438   0.00000  Uiso   1.00
C332   C     0.16436   0.16406   0.50028   0.00000  Uiso   1.00
C333   C     0.33564   0.16928   0.49972   0.00000  Uiso   1.00
C334   C     0.41162   0.20128   0.55198   0.00000  Uiso   1.00
Cu335  Cu    0.25501   0.17246   0.56146   0.00000  Uiso   1.00
Cu336  Cu    0.24500   0.16087   0.43854   0.00000  Uiso   1.00
H337   H     0.38153   0.12719   0.40625   0.00000  Uiso   1.00
H338   H     0.13173   0.08237   0.41664   0.00000  Uiso   1.00
H339   H     0.05030   0.11266   0.65315   0.00000  Uiso   1.00
H340   H     0.04173   0.05300   0.33978   0.00000  Uiso   1.00
H341   H     0.44970   0.22068   0.34685   0.00000  Uiso   1.00
H342   H     0.45827   0.28034   0.66022   0.00000  Uiso   1.00
H343   H     0.11847   0.20614   0.59375   0.00000  Uiso   1.00
H344   H     0.44493   0.10177   0.35214   0.00000  Uiso   1.00
H345   H     0.05507   0.23156   0.64786   0.00000  Uiso   1.00
H346   H     0.24412   0.32010   0.42863   0.00000  Uiso   1.00
H347   H     0.25588   0.01323   0.57137   0.00000  Uiso   1.00
H348   H     0.21497   0.12593   0.64940   0.00000  Uiso   1.00
H349   H     0.28503   0.20741   0.35060   0.00000  Uiso   1.00
H350   H     0.36827   0.25097   0.58336   0.00000  Uiso   1.00
N351   N     0.23745   0.15214   0.34617   0.00000  Uiso   1.00
N352   N     0.26256   0.18119   0.65383   0.00000  Uiso   1.00
N353   N     0.02741   0.08770   0.33441   0.00000  Uiso   1.00
N354   N     0.47259   0.24564   0.66559   0.00000  Uiso   1.00
O355   O     0.25326   0.09538   0.53992   0.00000  Uiso   1.00
O356   O     0.10663   0.09974   0.39961   0.00000  Uiso   1.00
O357   O     0.24675   0.23796   0.46008   0.00000  Uiso   1.00
O358   O     0.24480   0.08559   0.43612   0.00000  Uiso   1.00
O359   O     0.25520   0.24774   0.56388   0.00000  Uiso   1.00
O360   O     0.18936   0.17155   0.55191   0.00000  Uiso   1.00
O361   O     0.31065   0.16179   0.44809   0.00000  Uiso   1.00
O362   O     0.18090   0.16176   0.44810   0.00000  Uiso   1.00
O363   O     0.31910   0.17157   0.55190   0.00000  Uiso   1.00
O364   O     0.39337   0.23360   0.60039   0.00000  Uiso   1.00
C365   C     0.74864   0.06656   0.48442   0.00000  Uiso   1.00
C366   C     0.58839   0.13206   0.44802   0.00000  Uiso   1.00
C367   C     0.88413   0.17353   0.49931   0.00000  Uiso   1.00
C368   C     0.61587   0.15981   0.50069   0.00000  Uiso   1.00
C369   C     0.90291   0.14740   0.44682   0.00000  Uiso   1.00
C370   C     0.59709   0.18593   0.55318   0.00000  Uiso   1.00
C371   C     0.94882   0.14543   0.44666   0.00000  Uiso   1.00
C372   C     0.55118   0.18791   0.55334   0.00000  Uiso   1.00
C373   C     0.97677   0.16883   0.50031   0.00000  Uiso   1.00
C374   C     0.52323   0.16450   0.49969   0.00000  Uiso   1.00
C375   C     0.95831   0.19663   0.55426   0.00000  Uiso   1.00
C376   C     0.75136   0.26677   0.51558   0.00000  Uiso   1.00
C377   C     0.54169   0.13670   0.44574   0.00000  Uiso   1.00
C378   C     0.96674   0.11912   0.39340   0.00000  Uiso   1.00
C379   C     0.53326   0.21422   0.60660   0.00000  Uiso   1.00
C380   C     0.51244   0.11443   0.39195   0.00000  Uiso   1.00
C381   C     0.98756   0.21891   0.60805   0.00000  Uiso   1.00
C382   C     0.74797   0.01061   0.47562   0.00000  Uiso   1.00
C383   C     0.75203   0.32272   0.52438   0.00000  Uiso   1.00
C384   C     0.66436   0.16406   0.50028   0.00000  Uiso   1.00
C385   C     0.83564   0.16928   0.49972   0.00000  Uiso   1.00
C386   C     0.91162   0.20128   0.55198   0.00000  Uiso   1.00
Cu387  Cu    0.75501   0.17246   0.56146   0.00000  Uiso   1.00
Cu388  Cu    0.74500   0.16087   0.43854   0.00000  Uiso   1.00
H389   H     0.88153   0.12719   0.40625   0.00000  Uiso   1.00
H390   H     0.63173   0.08237   0.41664   0.00000  Uiso   1.00
H391   H     0.55030   0.11266   0.65315   0.00000  Uiso   1.00
H392   H     0.54173   0.05300   0.33978   0.00000  Uiso   1.00
H393   H     0.94970   0.22068   0.34685   0.00000  Uiso   1.00
H394   H     0.95827   0.28034   0.66022   0.00000  Uiso   1.00
H395   H     0.61847   0.20614   0.59375   0.00000  Uiso   1.00
H396   H     0.94493   0.10177   0.35214   0.00000  Uiso   1.00
H397   H     0.55507   0.23156   0.64786   0.00000  Uiso   1.00
H398   H     0.74412   0.32010   0.42863   0.00000  Uiso   1.00
H399   H     0.75588   0.01323   0.57137   0.00000  Uiso   1.00
H400   H     0.71497   0.12593   0.64940   0.00000  Uiso   1.00
H401   H     0.78503   0.20741   0.35060   0.00000  Uiso   1.00
H402   H     0.86827   0.25097   0.58336   0.00000  Uiso   1.00
N403   N     0.73745   0.15214   0.34617   0.00000  Uiso   1.00
N404   N     0.76256   0.18119   0.65383   0.00000  Uiso   1.00
N405   N     0.52741   0.08770   0.33441   0.00000  Uiso   1.00
N406   N     0.97259   0.24564   0.66559   0.00000  Uiso   1.00
O407   O     0.75326   0.09538   0.53992   0.00000  Uiso   1.00
O408   O     0.60663   0.09974   0.39961   0.00000  Uiso   1.00
O409   O     0.74675   0.23796   0.46008   0.00000  Uiso   1.00
O410   O     0.74480   0.08559   0.43612   0.00000  Uiso   1.00
O411   O     0.75520   0.24774   0.56388   0.00000  Uiso   1.00
O412   O     0.68936   0.17155   0.55191   0.00000  Uiso   1.00
O413   O     0.81065   0.16179   0.44809   0.00000  Uiso   1.00
O414   O     0.68090   0.16176   0.44810   0.00000  Uiso   1.00
O415   O     0.81910   0.17157   0.55190   0.00000  Uiso   1.00
O416   O     0.89337   0.23360   0.60039   0.00000  Uiso   1.00
C417   C     0.24864   0.39990   0.48442   0.00000  Uiso   1.00
C418   C     0.08839   0.46539   0.44802   0.00000  Uiso   1.00
C419   C     0.38413   0.50686   0.49931   0.00000  Uiso   1.00
C420   C     0.11587   0.49314   0.50069   0.00000  Uiso   1.00
C421   C     0.40291   0.48074   0.44682   0.00000  Uiso   1.00
C422   C     0.09709   0.51926   0.55318   0.00000  Uiso   1.00
C423   C     0.44882   0.47876   0.44666   0.00000  Uiso   1.00
C424   C     0.05118   0.52124   0.55334   0.00000  Uiso   1.00
C425   C     0.47677   0.50216   0.50031   0.00000  Uiso   1.00
C426   C     0.02323   0.49784   0.49969   0.00000  Uiso   1.00
C427   C     0.45831   0.52997   0.55426   0.00000  Uiso   1.00
C428   C     0.25136   0.60010   0.51558   0.00000  Uiso   1.00
C429   C     0.04169   0.47003   0.44574   0.00000  Uiso   1.00
C430   C     0.46674   0.45245   0.39340   0.00000  Uiso   1.00
C431   C     0.03326   0.54755   0.60660   0.00000  Uiso   1.00
C432   C     0.01244   0.44776   0.39195   0.00000  Uiso   1.00
C433   C     0.48756   0.55224   0.60805   0.00000  Uiso   1.00
C434   C     0.24797   0.34394   0.47562   0.00000  Uiso   1.00
C435   C     0.25203   0.65606   0.52438   0.00000  Uiso   1.00
C436   C     0.16436   0.49739   0.50028   0.00000  Uiso   1.00
C437   C     0.33564   0.50261   0.49972   0.00000  Uiso   1.00
C438   C     0.41162   0.53461   0.55198   0.00000  Uiso   1.00
Cu439  Cu    0.25501   0.50579   0.56146   0.00000  Uiso   1.00
Cu440  Cu    0.24500   0.49421   0.43854   0.00000  Uiso   1.00
H441   H     0.38153   0.46053   0.40625   0.00000  Uiso   1.00
H442   H     0.13173   0.41570   0.41664   0.00000  Uiso   1.00
H443   H     0.05030   0.44600   0.65315   0.00000  Uiso   1.00
H444   H     0.04173   0.38633   0.33978   0.00000  Uiso   1.00
H445   H     0.44970   0.55401   0.34685   0.00000  Uiso   1.00
H446   H     0.45827   0.61367   0.66022   0.00000  Uiso   1.00
H447   H     0.11847   0.53948   0.59375   0.00000  Uiso   1.00
H448   H     0.44493   0.43511   0.35214   0.00000  Uiso   1.00
H449   H     0.05507   0.56490   0.64786   0.00000  Uiso   1.00
H450   H     0.24412   0.65343   0.42863   0.00000  Uiso   1.00
H451   H     0.25588   0.34657   0.57137   0.00000  Uiso   1.00
H452   H     0.21497   0.45926   0.64940   0.00000  Uiso   1.00
H453   H     0.28503   0.54074   0.35060   0.00000  Uiso   1.00
H454   H     0.36827   0.58430   0.58336   0.00000  Uiso   1.00
N455   N     0.23745   0.48547   0.34617   0.00000  Uiso   1.00
N456   N     0.26256   0.51453   0.65383   0.00000  Uiso   1.00
N457   N     0.02741   0.42103   0.33441   0.00000  Uiso   1.00
N458   N     0.47259   0.57898   0.66559   0.00000  Uiso   1.00
O459   O     0.25326   0.42871   0.53992   0.00000  Uiso   1.00
O460   O     0.10663   0.43307   0.39961   0.00000  Uiso   1.00
O461   O     0.24675   0.57129   0.46008   0.00000  Uiso   1.00
O462   O     0.24480   0.41892   0.43612   0.00000  Uiso   1.00
O463   O     0.25520   0.58108   0.56388   0.00000  Uiso   1.00
O464   O     0.18936   0.50488   0.55191   0.00000  Uiso   1.00
O465   O     0.31065   0.49512   0.44809   0.00000  Uiso   1.00
O466   O     0.18090   0.49510   0.44810   0.00000  Uiso   1.00
O467   O     0.31910   0.50490   0.55190   0.00000  Uiso   1.00
O468   O     0.39337   0.56693   0.60039   0.00000  Uiso   1.00
C469   C     0.74864   0.39990   0.48442   0.00000  Uiso   1.00
C470   C     0.58839   0.46539   0.44802   0.00000  Uiso   1.00
C471   C     0.88413   0.50686   0.49931   0.00000  Uiso   1.00
C472   C     0.61587   0.49314   0.50069   0.00000  Uiso   1.00
C473   C     0.90291   0.48074   0.44682   0.00000  Uiso   1.00
C474   C     0.59709   0.51926   0.55318   0.00000  Uiso   1.00
C475   C     0.94882   0.47876   0.44666   0.00000  Uiso   1.00
C476   C     0.55118   0.52124   0.55334   0.00000  Uiso   1.00
C477   C     0.97677   0.50216   0.50031   0.00000  Uiso   1.00
C478   C     0.52323   0.49784   0.49969   0.00000  Uiso   1.00
C479   C     0.95831   0.52997   0.55426   0.00000  Uiso   1.00
C480   C     0.75136   0.60010   0.51558   0.00000  Uiso   1.00
C481   C     0.54169   0.47003   0.44574   0.00000  Uiso   1.00
C482   C     0.96674   0.45245   0.39340   0.00000  Uiso   1.00
C483   C     0.53326   0.54755   0.60660   0.00000  Uiso   1.00
C484   C     0.51244   0.44776   0.39195   0.00000  Uiso   1.00
C485   C     0.98756   0.55224   0.60805   0.00000  Uiso   1.00
C486   C     0.74797   0.34394   0.47562   0.00000  Uiso   1.00
C487   C     0.75203   0.65606   0.52438   0.00000  Uiso   1.00
C488   C     0.66436   0.49739   0.50028   0.00000  Uiso   1.00
C489   C     0.83564   0.50261   0.49972   0.00000  Uiso   1.00
C490   C     0.91162   0.53461   0.55198   0.00000  Uiso   1.00
Cu491  Cu    0.75501   0.50579   0.56146   0.00000  Uiso   1.00
Cu492  Cu    0.74500   0.49421   0.43854   0.00000  Uiso   1.00
H493   H     0.88153   0.46053   0.40625   0.00000  Uiso   1.00
H494   H     0.63173   0.41570   0.41664   0.00000  Uiso   1.00
H495   H     0.55030   0.44600   0.65315   0.00000  Uiso   1.00
H496   H     0.54173   0.38633   0.33978   0.00000  Uiso   1.00
H497   H     0.94970   0.55401   0.34685   0.00000  Uiso   1.00
H498   H     0.95827   0.61367   0.66022   0.00000  Uiso   1.00
H499   H     0.61847   0.53948   0.59375   0.00000  Uiso   1.00
H500   H     0.94493   0.43511   0.35214   0.00000  Uiso   1.00
H501   H     0.55507   0.56490   0.64786   0.00000  Uiso   1.00
H502   H     0.74412   0.65343   0.42863   0.00000  Uiso   1.00
H503   H     0.75588   0.34657   0.57137   0.00000  Uiso   1.00
H504   H     0.71497   0.45926   0.64940   0.00000  Uiso   1.00
H505   H     0.78503   0.54074   0.35060   0.00000  Uiso   1.00
H506   H     0.86827   0.58430   0.58336   0.00000  Uiso   1.00
N507   N     0.73745   0.48547   0.34617   0.00000  Uiso   1.00
N508   N     0.76256   0.51453   0.65383   0.00000  Uiso   1.00
N509   N     0.52741   0.42103   0.33441   0.00000  Uiso   1.00
N510   N     0.97259   0.57898   0.66559   0.00000  Uiso   1.00
O511   O     0.75326   0.42871   0.53992   0.00000  Uiso   1.00
O512   O     0.60663   0.43307   0.39961   0.00000  Uiso   1.00
O513   O     0.74675   0.57129   0.46008   0.00000  Uiso   1.00
O514   O     0.74480   0.41892   0.43612   0.00000  Uiso   1.00
O515   O     0.75520   0.58108   0.56388   0.00000  Uiso   1.00
O516   O     0.68936   0.50488   0.55191   0.00000  Uiso   1.00
O517   O     0.81065   0.49512   0.44809   0.00000  Uiso   1.00
O518   O     0.68090   0.49510   0.44810   0.00000  Uiso   1.00
O519   O     0.81910   0.50490   0.55190   0.00000  Uiso   1.00
O520   O     0.89337   0.56693   0.60039   0.00000  Uiso   1.00
C521   C     0.24864   0.73323   0.48442   0.00000  Uiso   1.00
C522   C     0.08839   0.79872   0.44802   0.00000  Uiso   1.00
C523   C     0.38413   0.84019   0.49931   0.00000  Uiso   1.00
C524   C     0.11587   0.82647   0.50069   0.00000  Uiso   1.00
C525   C     0.40291   0.81407   0.44682   0.00000  Uiso   1.00
C526   C     0.09709   0.85260   0.55318   0.00000  Uiso   1.00
C527   C     0.44882   0.81209   0.44666   0.00000  Uiso   1.00
C528   C     0.05118   0.85458   0.55334   0.00000  Uiso   1.00
C529   C     0.47677   0.83550   0.50031   0.00000  Uiso   1.00
C530   C     0.02323   0.83117   0.49969   0.00000  Uiso   1.00
C531   C     0.45831   0.86330   0.55426   0.00000  Uiso   1.00
C532   C     0.25136   0.93344   0.51558   0.00000  Uiso   1.00
C533   C     0.04169   0.80337   0.44574   0.00000  Uiso   1.00
C534   C     0.46674   0.78579   0.39340   0.00000  Uiso   1.00
C535   C     0.03326   0.88088   0.60660   0.00000  Uiso   1.00
C536   C     0.01244   0.78110   0.39195   0.00000  Uiso   1.00
C537   C     0.48756   0.88557   0.60805   0.00000  Uiso   1.00
C538   C     0.24797   0.67728   0.47562   0.00000  Uiso   1.00
C539   C     0.25203   0.98939   0.52438   0.00000  Uiso   1.00
C540   C     0.16436   0.83072   0.50028   0.00000  Uiso   1.00
C541   C     0.33564   0.83594   0.49972   0.00000  Uiso   1.00
C542   C     0.41162   0.86794   0.55198   0.00000  Uiso   1.00
Cu543  Cu    0.25501   0.83913   0.56146   0.00000  Uiso   1.00
Cu544  Cu    0.24500   0.82754   0.43854   0.00000  Uiso   1.00
H545   H     0.38153   0.79386   0.40625   0.00000  Uiso   1.00
H546   H     0.13173   0.74904   0.41664   0.00000  Uiso   1.00
H547   H     0.05030   0.77933   0.65315   0.00000  Uiso   1.00
H548   H     0.04173   0.71967   0.33978   0.00000  Uiso   1.00
H549   H     0.44970   0.88734   0.34685   0.00000  Uiso   1.00
H550   H     0.45827   0.94700   0.66022   0.00000  Uiso   1.00
H551   H     0.11847   0.87281   0.59375   0.00000  Uiso   1.00
H552   H     0.44493   0.76844   0.35214   0.00000  Uiso   1.00
H553   H     0.05507   0.89823   0.64786   0.00000  Uiso   1.00
H554   H     0.24412   0.98677   0.42863   0.00000  Uiso   1.00
H555   H     0.25588   0.67990   0.57137   0.00000  Uiso   1.00
H556   H     0.21497   0.79259   0.64940   0.00000  Uiso   1.00
H557   H     0.28503   0.87407   0.35060   0.00000  Uiso   1.00
H558   H     0.36827   0.91763   0.58336   0.00000  Uiso   1.00
N559   N     0.23745   0.81881   0.34617   0.00000  Uiso   1.00
N560   N     0.26256   0.84786   0.65383   0.00000  Uiso   1.00
N561   N     0.02741   0.75436   0.33441   0.00000  Uiso   1.00
N562   N     0.47259   0.91231   0.66559   0.00000  Uiso   1.00
O563   O     0.25326   0.76204   0.53992   0.00000  Uiso   1.00
O564   O     0.10663   0.76640   0.39961   0.00000  Uiso   1.00
O565   O     0.24675   0.90462   0.46008   0.00000  Uiso   1.00
O566   O     0.24480   0.75226   0.43612   0.00000  Uiso   1.00
O567   O     0.25520   0.91441   0.56388   0.00000  Uiso   1.00
O568   O     0.18936   0.83821   0.55191   0.00000  Uiso   1.00
O569   O     0.31065   0.82845   0.44809   0.00000  Uiso   1.00
O570   O     0.18090   0.82843   0.44810   0.00000  Uiso   1.00
O571   O     0.31910   0.83824   0.55190   0.00000  Uiso   1.00
O572   O     0.39337   0.90026   0.60039   0.00000  Uiso   1.00
C573   C     0.74864   0.73323   0.48442   0.00000  Uiso   1.00
C574   C     0.58839   0.79872   0.44802   0.00000  Uiso   1.00
C575   C     0.88413   0.84019   0.49931   0.00000  Uiso   1.00
C576   C     0.61587   0.82647   0.50069   0.00000  Uiso   1.00
C577   C     0.90291   0.81407   0.44682   0.00000  Uiso   1.00
C578   C     0.59709   0.85260   0.55318   0.00000  Uiso   1.00
C579   C     0.94882   0.81209   0.44666   0.00000  Uiso   1.00
C580   C     0.55118   0.85458   0.55334   0.00000  Uiso   1.00
C581   C     0.97677   0.83550   0.50031   0.00000  Uiso   1.00
C582   C     0.52323   0.83117   0.49969   0.00000  Uiso   1.00
C583   C     0.95831   0.86330   0.55426   0.00000  Uiso   1.00
C584   C     0.75136   0.93344   0.51558   0.00000  Uiso   1.00
C585   C     0.54169   0.80337   0.44574   0.00000  Uiso   1.00
C586   C     0.96674   0.78579   0.39340   0.00000  Uiso   1.00
C587   C     0.53326   0.88088   0.60660   0.00000  Uiso   1.00
C588   C     0.51244   0.78110   0.39195   0.00000  Uiso   1.00
C589   C     0.98756   0.88557   0.60805   0.00000  Uiso   1.00
C590   C     0.74797   0.67728   0.47562   0.00000  Uiso   1.00
C591   C     0.75203   0.98939   0.52438   0.00000  Uiso   1.00
C592   C     0.66436   0.83072   0.50028   0.00000  Uiso   1.00
C593   C     0.83564   0.83594   0.49972   0.00000  Uiso   1.00
C594   C     0.91162   0.86794   0.55198   0.00000  Uiso   1.00
Cu595  Cu    0.75501   0.83913   0.56146   0.00000  Uiso   1.00
Cu596  Cu    0.74500   0.82754   0.43854   0.00000  Uiso   1.00
H597   H     0.88153   0.79386   0.40625   0.00000  Uiso   1.00
H598   H     0.63173   0.74904   0.41664   0.00000  Uiso   1.00
H599   H     0.55030   0.77933   0.65315   0.00000  Uiso   1.00
H600   H     0.54173   0.71967   0.33978   0.00000  Uiso   1.00
H601   H     0.94970   0.88734   0.34685   0.00000  Uiso   1.00
H602   H     0.95827   0.94700   0.66022   0.00000  Uiso   1.00
H603   H     0.61847   0.87281   0.59375   0.00000  Uiso   1.00
H604   H     0.94493   0.76844   0.35214   0.00000  Uiso   1.00
H605   H     0.55507   0.89823   0.64786   0.00000  Uiso   1.00
H606   H     0.74412   0.98677   0.42863   0.00000  Uiso   1.00
H607   H     0.75588   0.67990   0.57137   0.00000  Uiso   1.00
H608   H     0.71497   0.79259   0.64940   0.00000  Uiso   1.00
H609   H     0.78503   0.87407   0.35060   0.00000  Uiso   1.00
H610   H     0.86827   0.91763   0.58336   0.00000  Uiso   1.00
N611   N     0.73745   0.81881   0.34617   0.00000  Uiso   1.00
N612   N     0.76256   0.84786   0.65383   0.00000  Uiso   1.00
N613   N     0.52741   0.75436   0.33441   0.00000  Uiso   1.00
N614   N     0.97259   0.91231   0.66559   0.00000  Uiso   1.00
O615   O     0.75326   0.76204   0.53992   0.00000  Uiso   1.00
O616   O     0.60663   0.76640   0.39961   0.00000  Uiso   1.00
O617   O     0.74675   0.90462   0.46008   0.00000  Uiso   1.00
O618   O     0.74480   0.75226   0.43612   0.00000  Uiso   1.00
O619   O     0.75520   0.91441   0.56388   0.00000  Uiso   1.00
O620   O     0.68936   0.83821   0.55191   0.00000  Uiso   1.00
O621   O     0.81065   0.82845   0.44809   0.00000  Uiso   1.00
O622   O     0.68090   0.82843   0.44810   0.00000  Uiso   1.00
O623   O     0.81910   0.83824   0.55190   0.00000  Uiso   1.00
O624   O     0.89337   0.90026   0.60039   0.00000  Uiso   1.00
C625   C     0.24864   0.06656   0.81775   0.00000  Uiso   1.00
C626   C     0.08839   0.13206   0.78135   0.00000  Uiso   1.00
C627   C     0.38413   0.17353   0.83264   0.00000  Uiso   1.00
C628   C     0.11587   0.15981   0.83403   0.00000  Uiso   1.00
C629   C     0.40291   0.14740   0.78015   0.00000  Uiso   1.00
C630   C     0.09709   0.18593   0.88652   0.00000  Uiso   1.00
C631   C     0.44882   0.14543   0.77999   0.00000  Uiso   1.00
C632   C     0.05118   0.18791   0.88667   0.00000  Uiso   1.00
C633   C     0.47677   0.16883   0.83364   0.00000  Uiso   1.00
C634   C     0.02323   0.16450   0.83302   0.00000  Uiso   1.00
C635   C     0.45831   0.19663   0.88759   0.00000  Uiso   1.00
C636   C     0.25136   0.26677   0.84891   0.00000  Uiso   1.00
C637   C     0.04169   0.13670   0.77907   0.00000  Uiso   1.00
C638   C     0.46674   0.11912   0.72673   0.00000  Uiso   1.00
C639   C     0.03326   0.21422   0.93993   0.00000  Uiso   1.00
C640   C     0.01244   0.11443   0.72528   0.00000  Uiso   1.00
C641   C     0.48756   0.21891   0.94139   0.00000  Uiso   1.00
C642   C     0.24797   0.01061   0.80896   0.00000  Uiso   1.00
C643   C     0.25203   0.32272   0.85771   0.00000  Uiso   1.00
C644   C     0.16436   0.16406   0.83361   0.00000  Uiso   1.00
C645   C     0.33564   0.16928   0.83306   0.00000  Uiso   1.00
C646   C     0.41162   0.20128   0.88532   0.00000  Uiso   1.00
Cu647  Cu    0.25501   0.17246   0.89479   0.00000  Uiso   1.00
Cu648  Cu    0.24500   0.16087   0.77187   0.00000  Uiso   1.00
H649   H     0.38153   0.12719   0.73958   0.00000  Uiso   1.00
H650   H     0.13173   0.08237   0.74997   0.00000  Uiso   1.00
H651   H     0.05030   0.11266   0.98648   0.00000  Uiso   1.00
H652   H     0.04173   0.05300   0.67311   0.00000  Uiso   1.00
H653   H     0.44970   0.22068   0.68019   0.00000  Uiso   1.00
H654   H     0.45827   0.28034   0.99355   0.00000  Uiso   1.00
H655   H     0.11847   0.20614   0.92708   0.00000  Uiso   1.00
H656   H     0.44493   0.10177   0.68547   0.00000  Uiso   1.00
H657   H     0.05507   0.23156   0.98119   0.00000  Uiso   1.00
H658   H     0.24412   0.32010   0.76196   0.00000  Uiso   1.00
H659   H     0.25588   0.01323   0.90470   0.00000  Uiso   1.00
H660   H     0.21497   0.12593   0.98273   0.00000  Uiso   1.00
H661   H     0.28503   0.20741   0.68394   0.00000  Uiso   1.00
H662   H     0.36827   0.25097   0.91669   0.00000  Uiso   1.00
N663   N     0.23745   0.15214   0.67951   0.00000  Uiso   1.00
N664   N     0.26256   0.18119   0.98716   0.00000  Uiso   1.00
N665   N     0.02741   0.08770   0.66774   0.00000  Uiso   1.00
N666   N     0.47259   0.24564   0.99892   0.00000  Uiso   1.00
O667   O     0.25326   0.09538   0.87326   0.00000  Uiso   1.00
O668   O     0.10663   0.09974   0.73295   0.00000  Uiso   1.00
O669   O     0.24675   0.23796   0.79341   0.00000  Uiso   1.00
O670   O     0.24480   0.08559   0.76945   0.00000  Uiso   1.00
O671   O     0.25520   0.24774   0.89721   0.00000  Uiso   1.00
O672   O     0.18936   0.17155   0.88524   0.00000  Uiso   1.00
O673   O     0.31065   0.16179   0.78143   0.00000  Uiso   1.00
O674   O     0.18090   0.16176   0.78143   0.00000  Uiso   1.00
O675   O     0.31910   0.17157   0.88523   0.00000  Uiso   1.00
O676   O     0.39337   0.23360   0.93372   0.00000  Uiso   1.00
C677   C     0.74864   0.06656   0.81775   0.00000  Uiso   1.00
C678   C     0.58839   0.13206   0.78135   0.00000  Uiso   1.00
C679   C     0.88413   0.17353   0.83264   0.00000  Uiso   1.00
C680   C     0.61587   0.15981   0.83403   0.00000  Uiso   1.00
C681   C     0.90291   0.14740   0.78015   0.00000  Uiso   1.00
C682   C     0.59709   0.18593   0.88652   0.00000  Uiso   1.00
C683   C     0.94882   0.14543   0.77999   0.00000  Uiso   1.00
C684   C     0.55118   0.18791   0.88667   0.00000  Uiso   1.00
C685   C     0.97677   0.16883   0.83364   0.00000  Uiso   1.00
C686   C     0.52323   0.16450   0.83302   0.00000  Uiso   1.00
C687   C     0.95831   0.19663   0.88759   0.00000  Uiso   1.00
C688   C     0.75136   0.26677   0.84891   0.00000  Uiso   1.00
C689   C     0.54169   0.13670   0.77907   0.00000  Uiso   1.00
C690   C     0.96674   0.11912   0.72673   0.00000  Uiso   1.00
C691   C     0.53326   0.21422   0.93993   0.00000  Uiso   1.00
C692   C     0.51244   0.11443   0.72528   0.00000  Uiso   1.00
C693   C     0.98756   0.21891   0.94139   0.00000  Uiso   1.00
C694   C     0.74797   0.01061   0.80896   0.00000  Uiso   1.00
C695   C     0.75203   0.32272   0.85771   0.00000  Uiso   1.00
C696   C     0.66436   0.16406   0.83361   0.00000  Uiso   1.00
C697   C     0.83564   0.16928   0.83306   0.00000  Uiso   1.00
C698   C     0.91162   0.20128   0.88532   0.00000  Uiso   1.00
Cu699  Cu    0.75501   0.17246   0.89479   0.00000  Uiso   1.00
Cu700  Cu    0.74500   0.16087   0.77187   0.00000  Uiso   1.00
H701   H     0.88153   0.12719   0.73958   0.00000  Uiso   1.00
H702   H     0.63173   0.08237   0.74997   0.00000  Uiso   1.00
H703   H     0.55030   0.11266   0.98648   0.00000  Uiso   1.00
H704   H     0.54173   0.05300   0.67311   0.00000  Uiso   1.00
H705   H     0.94970   0.22068   0.68019   0.00000  Uiso   1.00
H706   H     0.95827   0.28034   0.99355   0.00000  Uiso   1.00
H707   H     0.61847   0.20614   0.92708   0.00000  Uiso   1.00
H708   H     0.94493   0.10177   0.68547   0.00000  Uiso   1.00
H709   H     0.55507   0.23156   0.98119   0.00000  Uiso   1.00
H710   H     0.74412   0.32010   0.76196   0.00000  Uiso   1.00
H711   H     0.75588   0.01323   0.90470   0.00000  Uiso   1.00
H712   H     0.71497   0.12593   0.98273   0.00000  Uiso   1.00
H713   H     0.78503   0.20741   0.68394   0.00000  Uiso   1.00
H714   H     0.86827   0.25097   0.91669   0.00000  Uiso   1.00
N715   N     0.73745   0.15214   0.67951   0.00000  Uiso   1.00
N716   N     0.76256   0.18119   0.98716   0.00000  Uiso   1.00
N717   N     0.52741   0.08770   0.66774   0.00000  Uiso   1.00
N718   N     0.97259   0.24564   0.99892   0.00000  Uiso   1.00
O719   O     0.75326   0.09538   0.87326   0.00000  Uiso   1.00
O720   O     0.60663   0.09974   0.73295   0.00000  Uiso   1.00
O721   O     0.74675   0.23796   0.79341   0.00000  Uiso   1.00
O722   O     0.74480   0.08559   0.76945   0.00000  Uiso   1.00
O723   O     0.75520   0.24774   0.89721   0.00000  Uiso   1.00
O724   O     0.68936   0.17155   0.88524   0.00000  Uiso   1.00
O725   O     0.81065   0.16179   0.78143   0.00000  Uiso   1.00
O726   O     0.68090   0.16176   0.78143   0.00000  Uiso   1.00
O727   O     0.81910   0.17157   0.88523   0.00000  Uiso   1.00
O728   O     0.89337   0.23360   0.93372   0.00000  Uiso   1.00
C729   C     0.24864   0.39990   0.81775   0.00000  Uiso   1.00
C730   C     0.08839   0.46539   0.78135   0.00000  Uiso   1.00
C731   C     0.38413   0.50686   0.83264   0.00000  Uiso   1.00
C732   C     0.11587   0.49314   0.83403   0.00000  Uiso   1.00
C733   C     0.40291   0.48074   0.78015   0.00000  Uiso   1.00
C734   C     0.09709   0.51926   0.88652   0.00000  Uiso   1.00
C735   C     0.44882   0.47876   0.77999   0.00000  Uiso   1.00
C736   C     0.05118   0.52124   0.88667   0.00000  Uiso   1.00
C737   C     0.47677   0.50216   0.83364   0.00000  Uiso   1.00
C738   C     0.02323   0.49784   0.83302   0.00000  Uiso   1.00
C739   C     0.45831   0.52997   0.88759   0.00000  Uiso   1.00
C740   C     0.25136   0.60010   0.84891   0.00000  Uiso   1.00
C741   C     0.04169   0.47003   0.77907   0.00000  Uiso   1.00
C742   C     0.46674   0.45245   0.72673   0.00000  Uiso   1.00
C743   C     0.03326   0.54755   0.93993   0.00000  Uiso   1.00
C744   C     0.01244   0.44776   0.72528   0.00000  Uiso   1.00
C745   C     0.48756   0.55224   0.94139   0.00000  Uiso   1.00
C746   C     0.24797   0.34394   0.80896   0.00000  Uiso   1.00
C747   C     0.25203   0.65606   0.85771   0.00000  Uiso   1.00
C748   C     0.16436   0.49739   0.83361   0.00000  Uiso   1.00
C749   C     0.33564   0.50261   0.83306   0.00000  Uiso   1.00
C750   C     0.41162   0.53461   0.88532   0.00000  Uiso   1.00
Cu751  Cu    0.25501   0.50579   0.89479   0.00000  Uiso   1.00
Cu752  Cu    0.24500   0.49421   0.77187   0.00000  Uiso   1.00
H753   H     0.38153   0.46053   0.73958   0.00000  Uiso   1.00
H754   H     0.13173   0.41570   0.74997   0.00000  Uiso   1.00
H755   H     0.05030   0.44600   0.98648   0.00000  Uiso   1.00
H756   H     0.04173   0.38633   0.67311   0.00000  Uiso   1.00
H757   H     0.44970   0.55401   0.68019   0.00000  Uiso   1.00
H758   H     0.45827   0.61367   0.99355   0.00000  Uiso   1.00
H759   H     0.11847   0.53948   0.92708   0.00000  Uiso   1.00
H760   H     0.44493   0.43511   0.68547   0.00000  Uiso   1.00
H761   H     0.05507   0.56490   0.98119   0.00000  Uiso   1.00
H762   H     0.24412   0.65343   0.76196   0.00000  Uiso   1.00
H763   H     0.25588   0.34657   0.90470   0.00000  Uiso   1.00
H764   H     0.21497   0.45926   0.98273   0.00000  Uiso   1.00
H765   H     0.28503   0.54074   0.68394   0.00000  Uiso   1.00
H766   H     0.36827   0.58430   0.91669   0.00000  Uiso   1.00
N767   N     0.23745   0.48547   0.67951   0.00000  Uiso   1.00
N768   N     0.26256   0.51453   0.98716   0.00000  Uiso   1.00
N769   N     0.02741   0.42103   0.66774   0.00000  Uiso   1.00
N770   N     0.47259   0.57898   0.99892   0.00000  Uiso   1.00
O771   O     0.25326   0.42871   0.87326   0.00000  Uiso   1.00
O772   O     0.10663   0.43307   0.73295   0.00000  Uiso   1.00
O773   O     0.24675   0.57129   0.79341   0.00000  Uiso   1.00
O774   O     0.24480   0.41892   0.76945   0.00000  Uiso   1.00
O775   O     0.25520   0.58108   0.89721   0.00000  Uiso   1.00
O776   O     0.18936   0.50488   0.88524   0.00000  Uiso   1.00
O777   O     0.31065   0.49512   0.78143   0.00000  Uiso   1.00
O778   O     0.18090   0.49510   0.78143   0.00000  Uiso   1.00
O779   O     0.31910   0.50490   0.88523   0.00000  Uiso   1.00
O780   O     0.39337   0.56693   0.93372   0.00000  Uiso   1.00
C781   C     0.74864   0.39990   0.81775   0.00000  Uiso   1.00
C782   C     0.58839   0.46539   0.78135   0.00000  Uiso   1.00
C783   C     0.88413   0.50686   0.83264   0.00000  Uiso   1.00
C784   C     0.61587   0.49314   0.83403   0.00000  Uiso   1.00
C785   C     0.90291   0.48074   0.78015   0.00000  Uiso   1.00
C786   C     0.59709   0.51926   0.88652   0.00000  Uiso   1.00
C787   C     0.94882   0.47876   0.77999   0.00000  Uiso   1.00
C788   C     0.55118   0.52124   0.88667   0.00000  Uiso   1.00
C789   C     0.97677   0.50216   0.83364   0.00000  Uiso   1.00
C790   C     0.52323   0.49784   0.83302   0.00000  Uiso   1.00
C791   C     0.95831   0.52997   0.88759   0.00000  Uiso   1.00
C792   C     0.75136   0.60010   0.84891   0.00000  Uiso   1.00
C793   C     0.54169   0.47003   0.77907   0.00000  Uiso   1.00
C794   C     0.96674   0.45245   0.72673   0.00000  Uiso   1.00
C795   C     0.53326   0.54755   0.93993   0.00000  Uiso   1.00
C796   C     0.51244   0.44776   0.72528   0.00000  Uiso   1.00
C797   C     0.98756   0.55224   0.94139   0.00000  Uiso   1.00
C798   C     0.74797   0.34394   0.80896   0.00000  Uiso   1.00
C799   C     0.75203   0.65606   0.85771   0.00000  Uiso   1.00
C800   C     0.66436   0.49739   0.83361   0.00000  Uiso   1.00
C801   C     0.83564   0.50261   0.83306   0.00000  Uiso   1.00
C802   C     0.91162   0.53461   0.88532   0.00000  Uiso   1.00
Cu803  Cu    0.75501   0.50579   0.89479   0.00000  Uiso   1.00
Cu804  Cu    0.74500   0.49421   0.77187   0.00000  Uiso   1.00
H805   H     0.88153   0.46053   0.73958   0.00000  Uiso   1.00
H806   H     0.63173   0.41570   0.74997   0.00000  Uiso   1.00
H807   H     0.55030   0.44600   0.98648   0.00000  Uiso   1.00
H808   H     0.54173   0.38633   0.67311   0.00000  Uiso   1.00
H809   H     0.94970   0.55401   0.68019   0.00000  Uiso   1.00
H810   H     0.95827   0.61367   0.99355   0.00000  Uiso   1.00
H811   H     0.61847   0.53948   0.92708   0.00000  Uiso   1.00
H812   H     0.94493   0.43511   0.68547   0.00000  Uiso   1.00
H813   H     0.55507   0.56490   0.98119   0.00000  Uiso   1.00
H814   H     0.74412   0.65343   0.76196   0.00000  Uiso   1.00
H815   H     0.75588   0.34657   0.90470   0.00000  Uiso   1.00
H816   H     0.71497   0.45926   0.98273   0.00000  Uiso   1.00
H817   H     0.78503   0.54074   0.68394   0.00000  Uiso   1.00
H818   H     0.86827   0.58430   0.91669   0.00000  Uiso   1.00
N819   N     0.73745   0.48547   0.67951   0.00000  Uiso   1.00
N820   N     0.76256   0.51453   0.98716   0.00000  Uiso   1.00
N821   N     0.52741   0.42103   0.66774   0.00000  Uiso   1.00
N822   N     0.97259   0.57898   0.99892   0.00000  Uiso   1.00
O823   O     0.75326   0.42871   0.87326   0.00000  Uiso   1.00
O824   O     0.60663   0.43307   0.73295   0.00000  Uiso   1.00
O825   O     0.74675   0.57129   0.79341   0.00000  Uiso   1.00
O826   O     0.74480   0.41892   0.76945   0.00000  Uiso   1.00
O827   O     0.75520   0.58108   0.89721   0.00000  Uiso   1.00
O828   O     0.68936   0.50488   0.88524   0.00000  Uiso   1.00
O829   O     0.81065   0.49512   0.78143   0.00000  Uiso   1.00
O830   O     0.68090   0.49510   0.78143   0.00000  Uiso   1.00
O831   O     0.81910   0.50490   0.88523   0.00000  Uiso   1.00
O832   O     0.89337   0.56693   0.93372   0.00000  Uiso   1.00
C833   C     0.24864   0.73323   0.81775   0.00000  Uiso   1.00
C834   C     0.08839   0.79872   0.78135   0.00000  Uiso   1.00
C835   C     0.38413   0.84019   0.83264   0.00000  Uiso   1.00
C836   C     0.11587   0.82647   0.83403   0.00000  Uiso   1.00
C837   C     0.40291   0.81407   0.78015   0.00000  Uiso   1.00
C838   C     0.09709   0.85260   0.88652   0.00000  Uiso   1.00
C839   C     0.44882   0.81209   0.77999   0.00000  Uiso   1.00
C840   C     0.05118   0.85458   0.88667   0.00000  Uiso   1.00
C841   C     0.47677   0.83550   0.83364   0.00000  Uiso   1.00
C842   C     0.02323   0.83117   0.83302   0.00000  Uiso   1.00
C843   C     0.45831   0.86330   0.88759   0.00000  Uiso   1.00
C844   C     0.25136   0.93344   0.84891   0.00000  Uiso   1.00
C845   C     0.04169   0.80337   0.77907   0.00000  Uiso   1.00
C846   C     0.46674   0.78579   0.72673   0.00000  Uiso   1.00
C847   C     0.03326   0.88088   0.93993   0.00000  Uiso   1.00
C848   C     0.01244   0.78110   0.72528   0.00000  Uiso   1.00
C849   C     0.48756   0.88557   0.94139   0.00000  Uiso   1.00
C850   C     0.24797   0.67728   0.80896   0.00000  Uiso   1.00
C851   C     0.25203   0.98939   0.85771   0.00000  Uiso   1.00
C852   C     0.16436   0.83072   0.83361   0.00000  Uiso   1.00
C853   C     0.33564   0.83594   0.83306   0.00000  Uiso   1.00
C854   C     0.41162   0.86794   0.88532   0.00000  Uiso   1.00
Cu855  Cu    0.25501   0.83913   0.89479   0.00000  Uiso   1.00
Cu856  Cu    0.24500   0.82754   0.77187   0.00000  Uiso   1.00
H857   H     0.38153   0.79386   0.73958   0.00000  Uiso   1.00
H858   H     0.13173   0.74904   0.74997   0.00000  Uiso   1.00
H859   H     0.05030   0.77933   0.98648   0.00000  Uiso   1.00
H860   H     0.04173   0.71967   0.67311   0.00000  Uiso   1.00
H861   H     0.44970   0.88734   0.68019   0.00000  Uiso   1.00
H862   H     0.45827   0.94700   0.99355   0.00000  Uiso   1.00
H863   H     0.11847   0.87281   0.92708   0.00000  Uiso   1.00
H864   H     0.44493   0.76844   0.68547   0.00000  Uiso   1.00
H865   H     0.05507   0.89823   0.98119   0.00000  Uiso   1.00
H866   H     0.24412   0.98677   0.76196   0.00000  Uiso   1.00
H867   H     0.25588   0.67990   0.90470   0.00000  Uiso   1.00
H868   H     0.21497   0.79259   0.98273   0.00000  Uiso   1.00
H869   H     0.28503   0.87407   0.68394   0.00000  Uiso   1.00
H870   H     0.36827   0.91763   0.91669   0.00000  Uiso   1.00
N871   N     0.23745   0.81881   0.67951   0.00000  Uiso   1.00
N872   N     0.26256   0.84786   0.98716   0.00000  Uiso   1.00
N873   N     0.02741   0.75436   0.66774   0.00000  Uiso   1.00
N874   N     0.47259   0.91231   0.99892   0.00000  Uiso   1.00
O875   O     0.25326   0.76204   0.87326   0.00000  Uiso   1.00
O876   O     0.10663   0.76640   0.73295   0.00000  Uiso   1.00
O877   O     0.24675   0.90462   0.79341   0.00000  Uiso   1.00
O878   O     0.24480   0.75226   0.76945   0.00000  Uiso   1.00
O879   O     0.25520   0.91441   0.89721   0.00000  Uiso   1.00
O880   O     0.18936   0.83821   0.88524   0.00000  Uiso   1.00
O881   O     0.31065   0.82845   0.78143   0.00000  Uiso   1.00
O882   O     0.18090   0.82843   0.78143   0.00000  Uiso   1.00
O883   O     0.31910   0.83824   0.88523   0.00000  Uiso   1.00
O884   O     0.39337   0.90026   0.93372   0.00000  Uiso   1.00
C885   C     0.74864   0.73323   0.81775   0.00000  Uiso   1.00
C886   C     0.58839   0.79872   0.78135   0.00000  Uiso   1.00
C887   C     0.88413   0.84019   0.83264   0.00000  Uiso   1.00
C888   C     0.61587   0.82647   0.83403   0.00000  Uiso   1.00
C889   C     0.90291   0.81407   0.78015   0.00000  Uiso   1.00
C890   C     0.59709   0.85260   0.88652   0.00000  Uiso   1.00
C891   C     0.94882   0.81209   0.77999   0.00000  Uiso   1.00
C892   C     0.55118   0.85458   0.88667   0.00000  Uiso   1.00
C893   C     0.97677   0.83550   0.83364   0.00000  Uiso   1.00
C894   C     0.52323   0.83117   0.83302   0.00000  Uiso   1.00
C895   C     0.95831   0.86330   0.88759   0.00000  Uiso   1.00
C896   C     0.75136   0.93344   0.84891   0.00000  Uiso   1.00
C897   C     0.54169   0.80337   0.77907   0.00000  Uiso   1.00
C898   C     0.96674   0.78579   0.72673   0.00000  Uiso   1.00
C899   C     0.53326   0.88088   0.93993   0.00000  Uiso   1.00
C900   C     0.51244   0.78110   0.72528   0.00000  Uiso   1.00
C901   C     0.98756   0.88557   0.94139   0.00000  Uiso   1.00
C902   C     0.74797   0.67728   0.80896   0.00000  Uiso   1.00
C903   C     0.75203   0.98939   0.85771   0.00000  Uiso   1.00
C904   C     0.66436   0.83072   0.83361   0.00000  Uiso   1.00
C905   C     0.83564   0.83594   0.83306   0.00000  Uiso   1.00
C906   C     0.91162   0.86794   0.88532   0.00000  Uiso   1.00
Cu907  Cu    0.75501   0.83913   0.89479   0.00000  Uiso   1.00
Cu908  Cu    0.74500   0.82754   0.77187   0.00000  Uiso   1.00
H909   H     0.88153   0.79386   0.73958   0.00000  Uiso   1.00
H910   H     0.63173   0.74904   0.74997   0.00000  Uiso   1.00
H911   H     0.55030   0.77933   0.98648   0.00000  Uiso   1.00
H912   H     0.54173   0.71967   0.67311   0.00000  Uiso   1.00
H913   H     0.94970   0.88734   0.68019   0.00000  Uiso   1.00
H914   H     0.95827   0.94700   0.99355   0.00000  Uiso   1.00
H915   H     0.61847   0.87281   0.92708   0.00000  Uiso   1.00
H916   H     0.94493   0.76844   0.68547   0.00000  Uiso   1.00
H917   H     0.55507   0.89823   0.98119   0.00000  Uiso   1.00
H918   H     0.74412   0.98677   0.76196   0.00000  Uiso   1.00
H919   H     0.75588   0.67990   0.90470   0.00000  Uiso   1.00
H920   H     0.71497   0.79259   0.98273   0.00000  Uiso   1.00
H921   H     0.78503   0.87407   0.68394   0.00000  Uiso   1.00
H922   H     0.86827   0.91763   0.91669   0.00000  Uiso   1.00
N923   N     0.73745   0.81881   0.67951   0.00000  Uiso   1.00
N924   N     0.76256   0.84786   0.98716   0.00000  Uiso   1.00
N925   N     0.52741   0.75436   0.66774   0.00000  Uiso   1.00
N926   N     0.97259   0.91231   0.99892   0.00000  Uiso   1.00
O927   O     0.75326   0.76204   0.87326   0.00000  Uiso   1.00
O928   O     0.60663   0.76640   0.73295   0.00000  Uiso   1.00
O929   O     0.74675   0.90462   0.79341   0.00000  Uiso   1.00
O930   O     0.74480   0.75226   0.76945   0.00000  Uiso   1.00
O931   O     0.75520   0.91441   0.89721   0.00000  Uiso   1.00
O932   O     0.68936   0.83821   0.88524   0.00000  Uiso   1.00
O933   O     0.81065   0.82845   0.78143   0.00000  Uiso   1.00
O934   O     0.68090   0.82843   0.78143   0.00000  Uiso   1.00
O935   O     0.81910   0.83824   0.88523   0.00000  Uiso   1.00
O936   O     0.89337   0.90026   0.93372   0.00000  Uiso   1.00
loop_
_geom_bond_atom_site_label_1
_geom_bond_atom_site_label_2
_geom_bond_distance
_geom_bond_site_symmetry_2
_ccdc_geom_bond_type
C1     C18     1.425   .     S
C1     O46     1.283   .     A
C1     O43     1.291   .     A
C2     C4      1.416   .     A
C2     O44     1.380   .     S
C2     C13     1.414   .     A
C3     C21     1.460   .     S
C3     C22     1.416   .     A
C3     C5      1.391   .     A
C4     C20     1.460   .     S
C4     C6      1.391   .     A
C5     H25     1.085   .     S
C5     C7      1.386   .     A
C6     H31     1.085   .     S
C6     C8      1.386   .     A
C7     C9      1.409   .     A
C7     C14     1.393   .     A
C8     C15     1.393   .     A
C8     C10     1.409   .     A
C9     C11     1.426   .     A
C9     C62     1.409   .     S
C10    C13     1.426   .     A
C10    C61     1.409   1_455 S
C11    C22     1.414   .     A
C11    C17     1.426   .     A
C12    O47     1.283   .     A
C12    C19     1.425   .     S
C12    O45     1.291   .     A
C13    C16     1.426   .     A
C14    H32     1.085   .     S
C14    C68     1.389   .     S
C15    H33     1.085   .     S
C15    C69     1.389   1_455 S
C16    N41     1.434   .     S
C16    C66     1.389   1_455 S
C17    N42     1.434   .     S
C17    C67     1.389   .     S
C18    C227    1.326   1_545 S
C18    H242    1.088   1_545 S
C19    C122    1.326   .     S
C19    H139    1.088   .     S
C20    O48     1.298   .     A
C20    O50     1.292   .     A
C21    O49     1.298   .     A
C21    O51     1.292   .     A
C22    O52     1.380   .     S
Cu23   Cu24    2.684   .     S
Cu23   O51     1.958   .     S
Cu23   O47     1.949   .     S
Cu23   N40     2.017   .     S
Cu23   O43     1.954   .     S
Cu23   O48     1.970   .     S
Cu24   O46     1.949   .     S
Cu24   O45     1.954   .     S
Cu24   O50     1.958   .     S
Cu24   N39     2.017   .     S
Cu24   O49     1.970   .     S
H26    O44     0.991   .     S
H27    N353    1.045   .     S
H28    N41     1.045   .     S
H29    N666    1.045   1_554 S
H30    N42     1.045   .     S
H34    C122    1.088   .     S
H35    C227    1.088   1_545 S
H36    N351    1.029   .     S
H37    N664    1.029   1_554 S
H38    O52     0.991   .     S
N39    H660    1.029   1_554 S
N39    N664    1.297   1_554 S
N40    N351    1.297   .     S
N40    H349    1.029   .     S
N41    H651    1.045   1_554 S
N42    H341    1.045   .     S
C53    C70     1.425   .     S
C53    O98     1.283   .     A
C53    O95     1.291   .     A
C54    C56     1.416   .     A
C54    O96     1.380   .     S
C54    C65     1.414   .     A
C55    C73     1.460   .     S
C55    C74     1.416   .     A
C55    C57     1.391   .     A
C56    C72     1.460   .     S
C56    C58     1.391   .     A
C57    H77     1.085   .     S
C57    C59     1.386   .     A
C58    H83     1.085   .     S
C58    C60     1.386   .     A
C59    C61     1.409   .     A
C59    C66     1.393   .     A
C60    C67     1.393   .     A
C60    C62     1.409   .     A
C61    C63     1.426   .     A
C61    C10     1.409   1_655 S
C62    C65     1.426   .     A
C63    C74     1.414   .     A
C63    C69     1.426   .     A
C64    O99     1.283   .     A
C64    C71     1.425   .     S
C64    O97     1.291   .     A
C65    C68     1.426   .     A
C66    H84     1.085   .     S
C66    C16     1.389   1_655 S
C67    H85     1.085   .     S
C68    N93     1.434   .     S
C69    N94     1.434   .     S
C69    C15     1.389   1_655 S
C70    C279    1.326   1_545 S
C70    H294    1.088   1_545 S
C71    C174    1.326   .     S
C71    H191    1.088   .     S
C72    O100    1.298   .     A
C72    O102    1.292   .     A
C73    O101    1.298   .     A
C73    O103    1.292   .     A
C74    O104    1.380   .     S
Cu75   Cu76    2.684   .     S
Cu75   O103    1.958   .     S
Cu75   O99     1.949   .     S
Cu75   N92     2.017   .     S
Cu75   O95     1.954   .     S
Cu75   O100    1.970   .     S
Cu76   O98     1.949   .     S
Cu76   O97     1.954   .     S
Cu76   O102    1.958   .     S
Cu76   N91     2.017   .     S
Cu76   O101    1.970   .     S
H78    O96     0.991   .     S
H79    N405    1.045   .     S
H80    N93     1.045   .     S
H81    N718    1.045   1_554 S
H82    N94     1.045   .     S
H86    C174    1.088   .     S
H87    C279    1.088   1_545 S
H88    N403    1.029   .     S
H89    N716    1.029   1_554 S
H90    O104    0.991   .     S
N91    H712    1.029   1_554 S
N91    N716    1.297   1_554 S
N92    N403    1.297   .     S
N92    H401    1.029   .     S
N93    H703    1.045   1_554 S
N94    H393    1.045   .     S
C105   C122    1.425   .     S
C105   O150    1.283   .     A
C105   O147    1.291   .     A
C106   C108    1.416   .     A
C106   O148    1.380   .     S
C106   C117    1.414   .     A
C107   C125    1.460   .     S
C107   C126    1.416   .     A
C107   C109    1.391   .     A
C108   C124    1.460   .     S
C108   C110    1.391   .     A
C109   H129    1.085   .     S
C109   C111    1.386   .     A
C110   H135    1.085   .     S
C110   C112    1.386   .     A
C111   C113    1.409   .     A
C111   C118    1.393   .     A
C112   C119    1.393   .     A
C112   C114    1.409   .     A
C113   C115    1.426   .     A
C113   C166    1.409   .     S
C114   C117    1.426   .     A
C114   C165    1.409   1_455 S
C115   C126    1.414   .     A
C115   C121    1.426   .     A
C116   O151    1.283   .     A
C116   C123    1.425   .     S
C116   O149    1.291   .     A
C117   C120    1.426   .     A
C118   H136    1.085   .     S
C118   C172    1.389   .     S
C119   H137    1.085   .     S
C119   C173    1.389   1_455 S
C120   N145    1.434   .     S
C120   C170    1.389   1_455 S
C121   N146    1.434   .     S
C121   C171    1.389   .     S
C123   C226    1.326   .     S
C123   H243    1.088   .     S
C124   O152    1.298   .     A
C124   O154    1.292   .     A
C125   O153    1.298   .     A
C125   O155    1.292   .     A
C126   O156    1.380   .     S
Cu127  Cu128   2.684   .     S
Cu127  O155    1.958   .     S
Cu127  O151    1.949   .     S
Cu127  N144    2.017   .     S
Cu127  O147    1.954   .     S
Cu127  O152    1.970   .     S
Cu128  O150    1.949   .     S
Cu128  O149    1.954   .     S
Cu128  O154    1.958   .     S
Cu128  N143    2.017   .     S
Cu128  O153    1.970   .     S
H130   O148    0.991   .     S
H131   N457    1.045   .     S
H132   N145    1.045   .     S
H133   N770    1.045   1_554 S
H134   N146    1.045   .     S
H138   C226    1.088   .     S
H140   N455    1.029   .     S
H141   N768    1.029   1_554 S
H142   O156    0.991   .     S
N143   H764    1.029   1_554 S
N143   N768    1.297   1_554 S
N144   N455    1.297   .     S
N144   H453    1.029   .     S
N145   H755    1.045   1_554 S
N146   H445    1.045   .     S
C157   C174    1.425   .     S
C157   O202    1.283   .     A
C157   O199    1.291   .     A
C158   C160    1.416   .     A
C158   O200    1.380   .     S
C158   C169    1.414   .     A
C159   C177    1.460   .     S
C159   C178    1.416   .     A
C159   C161    1.391   .     A
C160   C176    1.460   .     S
C160   C162    1.391   .     A
C161   H181    1.085   .     S
C161   C163    1.386   .     A
C162   H187    1.085   .     S
C162   C164    1.386   .     A
C163   C165    1.409   .     A
C163   C170    1.393   .     A
C164   C171    1.393   .     A
C164   C166    1.409   .     A
C165   C167    1.426   .     A
C165   C114    1.409   1_655 S
C166   C169    1.426   .     A
C167   C178    1.414   .     A
C167   C173    1.426   .     A
C168   O203    1.283   .     A
C168   C175    1.425   .     S
C168   O201    1.291   .     A
C169   C172    1.426   .     A
C170   H188    1.085   .     S
C170   C120    1.389   1_655 S
C171   H189    1.085   .     S
C172   N197    1.434   .     S
C173   N198    1.434   .     S
C173   C119    1.389   1_655 S
C175   C278    1.326   .     S
C175   H295    1.088   .     S
C176   O204    1.298   .     A
C176   O206    1.292   .     A
C177   O205    1.298   .     A
C177   O207    1.292   .     A
C178   O208    1.380   .     S
Cu179  Cu180   2.684   .     S
Cu179  O207    1.958   .     S
Cu179  O203    1.949   .     S
Cu179  N196    2.017   .     S
Cu179  O199    1.954   .     S
Cu179  O204    1.970   .     S
Cu180  O202    1.949   .     S
Cu180  O201    1.954   .     S
Cu180  O206    1.958   .     S
Cu180  N195    2.017   .     S
Cu180  O205    1.970   .     S
H182   O200    0.991   .     S
H183   N509    1.045   .     S
H184   N197    1.045   .     S
H185   N822    1.045   1_554 S
H186   N198    1.045   .     S
H190   C278    1.088   .     S
H192   N507    1.029   .     S
H193   N820    1.029   1_554 S
H194   O208    0.991   .     S
N195   H816    1.029   1_554 S
N195   N820    1.297   1_554 S
N196   N507    1.297   .     S
N196   H505    1.029   .     S
N197   H807    1.045   1_554 S
N198   H497    1.045   .     S
C209   C226    1.425   .     S
C209   O254    1.283   .     A
C209   O251    1.291   .     A
C210   C212    1.416   .     A
C210   O252    1.380   .     S
C210   C221    1.414   .     A
C211   C229    1.460   .     S
C211   C230    1.416   .     A
C211   C213    1.391   .     A
C212   C228    1.460   .     S
C212   C214    1.391   .     A
C213   H233    1.085   .     S
C213   C215    1.386   .     A
C214   H239    1.085   .     S
C214   C216    1.386   .     A
C215   C217    1.409   .     A
C215   C222    1.393   .     A
C216   C223    1.393   .     A
C216   C218    1.409   .     A
C217   C219    1.426   .     A
C217   C270    1.409   .     S
C218   C221    1.426   .     A
C218   C269    1.409   1_455 S
C219   C230    1.414   .     A
C219   C225    1.426   .     A
C220   O255    1.283   .     A
C220   C227    1.425   .     S
C220   O253    1.291   .     A
C221   C224    1.426   .     A
C222   H240    1.085   .     S
C222   C276    1.389   .     S
C223   H241    1.085   .     S
C223   C277    1.389   1_455 S
C224   N249    1.434   .     S
C224   C274    1.389   1_455 S
C225   N250    1.434   .     S
C225   C275    1.389   .     S
C227   C18     1.326   1_565 S
C227   H35     1.088   1_565 S
C228   O256    1.298   .     A
C228   O258    1.292   .     A
C229   O257    1.298   .     A
C229   O259    1.292   .     A
C230   O260    1.380   .     S
Cu231  Cu232   2.684   .     S
Cu231  O259    1.958   .     S
Cu231  O255    1.949   .     S
Cu231  N248    2.017   .     S
Cu231  O251    1.954   .     S
Cu231  O256    1.970   .     S
Cu232  O254    1.949   .     S
Cu232  O253    1.954   .     S
Cu232  O258    1.958   .     S
Cu232  N247    2.017   .     S
Cu232  O257    1.970   .     S
H234   O252    0.991   .     S
H235   N561    1.045   .     S
H236   N249    1.045   .     S
H237   N874    1.045   1_554 S
H238   N250    1.045   .     S
H242   C18     1.088   1_565 S
H244   N559    1.029   .     S
H245   N872    1.029   1_554 S
H246   O260    0.991   .     S
N247   H868    1.029   1_554 S
N247   N872    1.297   1_554 S
N248   N559    1.297   .     S
N248   H557    1.029   .     S
N249   H859    1.045   1_554 S
N250   H549    1.045   .     S
C261   C278    1.425   .     S
C261   O306    1.283   .     A
C261   O303    1.291   .     A
C262   C264    1.416   .     A
C262   O304    1.380   .     S
C262   C273    1.414   .     A
C263   C281    1.460   .     S
C263   C282    1.416   .     A
C263   C265    1.391   .     A
C264   C280    1.460   .     S
C264   C266    1.391   .     A
C265   H285    1.085   .     S
C265   C267    1.386   .     A
C266   H291    1.085   .     S
C266   C268    1.386   .     A
C267   C269    1.409   .     A
C267   C274    1.393   .     A
C268   C275    1.393   .     A
C268   C270    1.409   .     A
C269   C271    1.426   .     A
C269   C218    1.409   1_655 S
C270   C273    1.426   .     A
C271   C282    1.414   .     A
C271   C277    1.426   .     A
C272   O307    1.283   .     A
C272   C279    1.425   .     S
C272   O305    1.291   .     A
C273   C276    1.426   .     A
C274   H292    1.085   .     S
C274   C224    1.389   1_655 S
C275   H293    1.085   .     S
C276   N301    1.434   .     S
C277   N302    1.434   .     S
C277   C223    1.389   1_655 S
C279   C70     1.326   1_565 S
C279   H87     1.088   1_565 S
C280   O308    1.298   .     A
C280   O310    1.292   .     A
C281   O309    1.298   .     A
C281   O311    1.292   .     A
C282   O312    1.380   .     S
Cu283  Cu284   2.684   .     S
Cu283  O311    1.958   .     S
Cu283  O307    1.949   .     S
Cu283  N300    2.017   .     S
Cu283  O303    1.954   .     S
Cu283  O308    1.970   .     S
Cu284  O306    1.949   .     S
Cu284  O305    1.954   .     S
Cu284  O310    1.958   .     S
Cu284  N299    2.017   .     S
Cu284  O309    1.970   .     S
H286   O304    0.991   .     S
H287   N613    1.045   .     S
H288   N301    1.045   .     S
H289   N926    1.045   1_554 S
H290   N302    1.045   .     S
H294   C70     1.088   1_565 S
H296   N611    1.029   .     S
H297   N924    1.029   1_554 S
H298   O312    0.991   .     S
N299   H920    1.029   1_554 S
N299   N924    1.297   1_554 S
N300   N611    1.297   .     S
N300   H609    1.029   .     S
N301   H911    1.045   1_554 S
N302   H601    1.045   .     S
C313   C330    1.425   .     S
C313   O358    1.283   .     A
C313   O355    1.291   .     A
C314   C316    1.416   .     A
C314   O356    1.380   .     S
C314   C325    1.414   .     A
C315   C333    1.460   .     S
C315   C334    1.416   .     A
C315   C317    1.391   .     A
C316   C332    1.460   .     S
C316   C318    1.391   .     A
C317   H337    1.085   .     S
C317   C319    1.386   .     A
C318   H343    1.085   .     S
C318   C320    1.386   .     A
C319   C321    1.409   .     A
C319   C326    1.393   .     A
C320   C327    1.393   .     A
C320   C322    1.409   .     A
C321   C323    1.426   .     A
C321   C374    1.409   .     S
C322   C325    1.426   .     A
C322   C373    1.409   1_455 S
C323   C334    1.414   .     A
C323   C329    1.426   .     A
C324   O359    1.283   .     A
C324   C331    1.425   .     S
C324   O357    1.291   .     A
C325   C328    1.426   .     A
C326   H344    1.085   .     S
C326   C380    1.389   .     S
C327   H345    1.085   .     S
C327   C381    1.389   1_455 S
C328   N353    1.434   .     S
C328   C378    1.389   1_455 S
C329   N354    1.434   .     S
C329   C379    1.389   .     S
C330   C539    1.326   1_545 S
C330   H554    1.088   1_545 S
C331   C434    1.326   .     S
C331   H451    1.088   .     S
C332   O360    1.298   .     A
C332   O362    1.292   .     A
C333   O361    1.298   .     A
C333   O363    1.292   .     A
C334   O364    1.380   .     S
Cu335  Cu336   2.684   .     S
Cu335  O363    1.958   .     S
Cu335  O359    1.949   .     S
Cu335  N352    2.017   .     S
Cu335  O355    1.954   .     S
Cu335  O360    1.970   .     S
Cu336  O358    1.949   .     S
Cu336  O357    1.954   .     S
Cu336  O362    1.958   .     S
Cu336  N351    2.017   .     S
Cu336  O361    1.970   .     S
H338   O356    0.991   .     S
H339   N665    1.045   .     S
H340   N353    1.045   .     S
H342   N354    1.045   .     S
H346   C434    1.088   .     S
H347   C539    1.088   1_545 S
H348   N663    1.029   .     S
H350   O364    0.991   .     S
N352   N663    1.297   .     S
N352   H661    1.029   .     S
N354   H653    1.045   .     S
C365   C382    1.425   .     S
C365   O410    1.283   .     A
C365   O407    1.291   .     A
C366   C368    1.416   .     A
C366   O408    1.380   .     S
C366   C377    1.414   .     A
C367   C385    1.460   .     S
C367   C386    1.416   .     A
C367   C369    1.391   .     A
C368   C384    1.460   .     S
C368   C370    1.391   .     A
C369   H389    1.085   .     S
C369   C371    1.386   .     A
C370   H395    1.085   .     S
C370   C372    1.386   .     A
C371   C373    1.409   .     A
C371   C378    1.393   .     A
C372   C379    1.393   .     A
C372   C374    1.409   .     A
C373   C375    1.426   .     A
C373   C322    1.409   1_655 S
C374   C377    1.426   .     A
C375   C386    1.414   .     A
C375   C381    1.426   .     A
C376   O411    1.283   .     A
C376   C383    1.425   .     S
C376   O409    1.291   .     A
C377   C380    1.426   .     A
C378   H396    1.085   .     S
C378   C328    1.389   1_655 S
C379   H397    1.085   .     S
C380   N405    1.434   .     S
C381   N406    1.434   .     S
C381   C327    1.389   1_655 S
C382   C591    1.326   1_545 S
C382   H606    1.088   1_545 S
C383   C486    1.326   .     S
C383   H503    1.088   .     S
C384   O412    1.298   .     A
C384   O414    1.292   .     A
C385   O413    1.298   .     A
C385   O415    1.292   .     A
C386   O416    1.380   .     S
Cu387  Cu388   2.684   .     S
Cu387  O415    1.958   .     S
Cu387  O411    1.949   .     S
Cu387  N404    2.017   .     S
Cu387  O407    1.954   .     S
Cu387  O412    1.970   .     S
Cu388  O410    1.949   .     S
Cu388  O409    1.954   .     S
Cu388  O414    1.958   .     S
Cu388  N403    2.017   .     S
Cu388  O413    1.970   .     S
H390   O408    0.991   .     S
H391   N717    1.045   .     S
H392   N405    1.045   .     S
H394   N406    1.045   .     S
H398   C486    1.088   .     S
H399   C591    1.088   1_545 S
H400   N715    1.029   .     S
H402   O416    0.991   .     S
N404   N715    1.297   .     S
N404   H713    1.029   .     S
N406   H705    1.045   .     S
C417   C434    1.425   .     S
C417   O462    1.283   .     A
C417   O459    1.291   .     A
C418   C420    1.416   .     A
C418   O460    1.380   .     S
C418   C429    1.414   .     A
C419   C437    1.460   .     S
C419   C438    1.416   .     A
C419   C421    1.391   .     A
C420   C436    1.460   .     S
C420   C422    1.391   .     A
C421   H441    1.085   .     S
C421   C423    1.386   .     A
C422   H447    1.085   .     S
C422   C424    1.386   .     A
C423   C425    1.409   .     A
C423   C430    1.393   .     A
C424   C431    1.393   .     A
C424   C426    1.409   .     A
C425   C427    1.426   .     A
C425   C478    1.409   .     S
C426   C429    1.426   .     A
C426   C477    1.409   1_455 S
C427   C438    1.414   .     A
C427   C433    1.426   .     A
C428   O463    1.283   .     A
C428   C435    1.425   .     S
C428   O461    1.291   .     A
C429   C432    1.426   .     A
C430   H448    1.085   .     S
C430   C484    1.389   .     S
C431   H449    1.085   .     S
C431   C485    1.389   1_455 S
C432   N457    1.434   .     S
C432   C482    1.389   1_455 S
C433   N458    1.434   .     S
C433   C483    1.389   .     S
C435   C538    1.326   .     S
C435   H555    1.088   .     S
C436   O464    1.298   .     A
C436   O466    1.292   .     A
C437   O465    1.298   .     A
C437   O467    1.292   .     A
C438   O468    1.380   .     S
Cu439  Cu440   2.684   .     S
Cu439  O467    1.958   .     S
Cu439  O463    1.949   .     S
Cu439  N456    2.017   .     S
Cu439  O459    1.954   .     S
Cu439  O464    1.970   .     S
Cu440  O462    1.949   .     S
Cu440  O461    1.954   .     S
Cu440  O466    1.958   .     S
Cu440  N455    2.017   .     S
Cu440  O465    1.970   .     S
H442   O460    0.991   .     S
H443   N769    1.045   .     S
H444   N457    1.045   .     S
H446   N458    1.045   .     S
H450   C538    1.088   .     S
H452   N767    1.029   .     S
H454   O468    0.991   .     S
N456   N767    1.297   .     S
N456   H765    1.029   .     S
N458   H757    1.045   .     S
C469   C486    1.425   .     S
C469   O514    1.283   .     A
C469   O511    1.291   .     A
C470   C472    1.416   .     A
C470   O512    1.380   .     S
C470   C481    1.414   .     A
C471   C489    1.460   .     S
C471   C490    1.416   .     A
C471   C473    1.391   .     A
C472   C488    1.460   .     S
C472   C474    1.391   .     A
C473   H493    1.085   .     S
C473   C475    1.386   .     A
C474   H499    1.085   .     S
C474   C476    1.386   .     A
C475   C477    1.409   .     A
C475   C482    1.393   .     A
C476   C483    1.393   .     A
C476   C478    1.409   .     A
C477   C479    1.426   .     A
C477   C426    1.409   1_655 S
C478   C481    1.426   .     A
C479   C490    1.414   .     A
C479   C485    1.426   .     A
C480   O515    1.283   .     A
C480   C487    1.425   .     S
C480   O513    1.291   .     A
C481   C484    1.426   .     A
C482   H500    1.085   .     S
C482   C432    1.389   1_655 S
C483   H501    1.085   .     S
C484   N509    1.434   .     S
C485   N510    1.434   .     S
C485   C431    1.389   1_655 S
C487   C590    1.326   .     S
C487   H607    1.088   .     S
C488   O516    1.298   .     A
C488   O518    1.292   .     A
C489   O517    1.298   .     A
C489   O519    1.292   .     A
C490   O520    1.380   .     S
Cu491  Cu492   2.684   .     S
Cu491  O519    1.958   .     S
Cu491  O515    1.949   .     S
Cu491  N508    2.017   .     S
Cu491  O511    1.954   .     S
Cu491  O516    1.970   .     S
Cu492  O514    1.949   .     S
Cu492  O513    1.954   .     S
Cu492  O518    1.958   .     S
Cu492  N507    2.017   .     S
Cu492  O517    1.970   .     S
H494   O512    0.991   .     S
H495   N821    1.045   .     S
H496   N509    1.045   .     S
H498   N510    1.045   .     S
H502   C590    1.088   .     S
H504   N819    1.029   .     S
H506   O520    0.991   .     S
N508   N819    1.297   .     S
N508   H817    1.029   .     S
N510   H809    1.045   .     S
C521   C538    1.425   .     S
C521   O566    1.283   .     A
C521   O563    1.291   .     A
C522   C524    1.416   .     A
C522   O564    1.380   .     S
C522   C533    1.414   .     A
C523   C541    1.460   .     S
C523   C542    1.416   .     A
C523   C525    1.391   .     A
C524   C540    1.460   .     S
C524   C526    1.391   .     A
C525   H545    1.085   .     S
C525   C527    1.386   .     A
C526   H551    1.085   .     S
C526   C528    1.386   .     A
C527   C529    1.409   .     A
C527   C534    1.393   .     A
C528   C535    1.393   .     A
C528   C530    1.409   .     A
C529   C531    1.426   .     A
C529   C582    1.409   .     S
C530   C533    1.426   .     A
C530   C581    1.409   1_455 S
C531   C542    1.414   .     A
C531   C537    1.426   .     A
C532   O567    1.283   .     A
C532   C539    1.425   .     S
C532   O565    1.291   .     A
C533   C536    1.426   .     A
C534   H552    1.085   .     S
C534   C588    1.389   .     S
C535   H553    1.085   .     S
C535   C589    1.389   1_455 S
C536   N561    1.434   .     S
C536   C586    1.389   1_455 S
C537   N562    1.434   .     S
C537   C587    1.389   .     S
C539   C330    1.326   1_565 S
C539   H347    1.088   1_565 S
C540   O568    1.298   .     A
C540   O570    1.292   .     A
C541   O569    1.298   .     A
C541   O571    1.292   .     A
C542   O572    1.380   .     S
Cu543  Cu544   2.684   .     S
Cu543  O571    1.958   .     S
Cu543  O567    1.949   .     S
Cu543  N560    2.017   .     S
Cu543  O563    1.954   .     S
Cu543  O568    1.970   .     S
Cu544  O566    1.949   .     S
Cu544  O565    1.954   .     S
Cu544  O570    1.958   .     S
Cu544  N559    2.017   .     S
Cu544  O569    1.970   .     S
H546   O564    0.991   .     S
H547   N873    1.045   .     S
H548   N561    1.045   .     S
H550   N562    1.045   .     S
H554   C330    1.088   1_565 S
H556   N871    1.029   .     S
H558   O572    0.991   .     S
N560   N871    1.297   .     S
N560   H869    1.029   .     S
N562   H861    1.045   .     S
C573   C590    1.425   .     S
C573   O618    1.283   .     A
C573   O615    1.291   .     A
C574   C576    1.416   .     A
C574   O616    1.380   .     S
C574   C585    1.414   .     A
C575   C593    1.460   .     S
C575   C594    1.416   .     A
C575   C577    1.391   .     A
C576   C592    1.460   .     S
C576   C578    1.391   .     A
C577   H597    1.085   .     S
C577   C579    1.386   .     A
C578   H603    1.085   .     S
C578   C580    1.386   .     A
C579   C581    1.409   .     A
C579   C586    1.393   .     A
C580   C587    1.393   .     A
C580   C582    1.409   .     A
C581   C583    1.426   .     A
C581   C530    1.409   1_655 S
C582   C585    1.426   .     A
C583   C594    1.414   .     A
C583   C589    1.426   .     A
C584   O619    1.283   .     A
C584   C591    1.425   .     S
C584   O617    1.291   .     A
C585   C588    1.426   .     A
C586   H604    1.085   .     S
C586   C536    1.389   1_655 S
C587   H605    1.085   .     S
C588   N613    1.434   .     S
C589   N614    1.434   .     S
C589   C535    1.389   1_655 S
C591   C382    1.326   1_565 S
C591   H399    1.088   1_565 S
C592   O620    1.298   .     A
C592   O622    1.292   .     A
C593   O621    1.298   .     A
C593   O623    1.292   .     A
C594   O624    1.380   .     S
Cu595  Cu596   2.684   .     S
Cu595  O623    1.958   .     S
Cu595  O619    1.949   .     S
Cu595  N612    2.017   .     S
Cu595  O615    1.954   .     S
Cu595  O620    1.970   .     S
Cu596  O618    1.949   .     S
Cu596  O617    1.954   .     S
Cu596  O622    1.958   .     S
Cu596  N611    2.017   .     S
Cu596  O621    1.970   .     S
H598   O616    0.991   .     S
H599   N925    1.045   .     S
H600   N613    1.045   .     S
H602   N614    1.045   .     S
H606   C382    1.088   1_565 S
H608   N923    1.029   .     S
H610   O624    0.991   .     S
N612   N923    1.297   .     S
N612   H921    1.029   .     S
N614   H913    1.045   .     S
C625   C642    1.425   .     S
C625   O670    1.283   .     A
C625   O667    1.291   .     A
C626   C628    1.416   .     A
C626   O668    1.380   .     S
C626   C637    1.414   .     A
C627   C645    1.460   .     S
C627   C646    1.416   .     A
C627   C629    1.391   .     A
C628   C644    1.460   .     S
C628   C630    1.391   .     A
C629   H649    1.085   .     S
C629   C631    1.386   .     A
C630   H655    1.085   .     S
C630   C632    1.386   .     A
C631   C633    1.409   .     A
C631   C638    1.393   .     A
C632   C639    1.393   .     A
C632   C634    1.409   .     A
C633   C635    1.426   .     A
C633   C686    1.409   .     S
C634   C637    1.426   .     A
C634   C685    1.409   1_455 S
C635   C646    1.414   .     A
C635   C641    1.426   .     A
C636   O671    1.283   .     A
C636   C643    1.425   .     S
C636   O669    1.291   .     A
C637   C640    1.426   .     A
C638   H656    1.085   .     S
C638   C692    1.389   .     S
C639   H657    1.085   .     S
C639   C693    1.389   1_455 S
C640   N665    1.434   .     S
C640   C690    1.389   1_455 S
C641   N666    1.434   .     S
C641   C691    1.389   .     S
C642   C851    1.326   1_545 S
C642   H866    1.088   1_545 S
C643   C746    1.326   .     S
C643   H763    1.088   .     S
C644   O672    1.298   .     A
C644   O674    1.292   .     A
C645   O673    1.298   .     A
C645   O675    1.292   .     A
C646   O676    1.380   .     S
Cu647  Cu648   2.684   .     S
Cu647  O675    1.958   .     S
Cu647  O671    1.949   .     S
Cu647  N664    2.017   .     S
Cu647  O667    1.954   .     S
Cu647  O672    1.970   .     S
Cu648  O670    1.949   .     S
Cu648  O669    1.954   .     S
Cu648  O674    1.958   .     S
Cu648  N663    2.017   .     S
Cu648  O673    1.970   .     S
H650   O668    0.991   .     S
H651   N41     1.045   1_556 S
H652   N665    1.045   .     S
H654   N666    1.045   .     S
H658   C746    1.088   .     S
H659   C851    1.088   1_545 S
H660   N39     1.029   1_556 S
H662   O676    0.991   .     S
N664   N39     1.297   1_556 S
N664   H37     1.029   1_556 S
N666   H29     1.045   1_556 S
C677   C694    1.425   .     S
C677   O722    1.283   .     A
C677   O719    1.291   .     A
C678   C680    1.416   .     A
C678   O720    1.380   .     S
C678   C689    1.414   .     A
C679   C697    1.460   .     S
C679   C698    1.416   .     A
C679   C681    1.391   .     A
C680   C696    1.460   .     S
C680   C682    1.391   .     A
C681   H701    1.085   .     S
C681   C683    1.386   .     A
C682   H707    1.085   .     S
C682   C684    1.386   .     A
C683   C685    1.409   .     A
C683   C690    1.393   .     A
C684   C691    1.393   .     A
C684   C686    1.409   .     A
C685   C687    1.426   .     A
C685   C634    1.409   1_655 S
C686   C689    1.426   .     A
C687   C698    1.414   .     A
C687   C693    1.426   .     A
C688   O723    1.283   .     A
C688   C695    1.425   .     S
C688   O721    1.291   .     A
C689   C692    1.426   .     A
C690   H708    1.085   .     S
C690   C640    1.389   1_655 S
C691   H709    1.085   .     S
C692   N717    1.434   .     S
C693   N718    1.434   .     S
C693   C639    1.389   1_655 S
C694   C903    1.326   1_545 S
C694   H918    1.088   1_545 S
C695   C798    1.326   .     S
C695   H815    1.088   .     S
C696   O724    1.298   .     A
C696   O726    1.292   .     A
C697   O725    1.298   .     A
C697   O727    1.292   .     A
C698   O728    1.380   .     S
Cu699  Cu700   2.684   .     S
Cu699  O727    1.958   .     S
Cu699  O723    1.949   .     S
Cu699  N716    2.017   .     S
Cu699  O719    1.954   .     S
Cu699  O724    1.970   .     S
Cu700  O722    1.949   .     S
Cu700  O721    1.954   .     S
Cu700  O726    1.958   .     S
Cu700  N715    2.017   .     S
Cu700  O725    1.970   .     S
H702   O720    0.991   .     S
H703   N93     1.045   1_556 S
H704   N717    1.045   .     S
H706   N718    1.045   .     S
H710   C798    1.088   .     S
H711   C903    1.088   1_545 S
H712   N91     1.029   1_556 S
H714   O728    0.991   .     S
N716   N91     1.297   1_556 S
N716   H89     1.029   1_556 S
N718   H81     1.045   1_556 S
C729   C746    1.425   .     S
C729   O774    1.283   .     A
C729   O771    1.291   .     A
C730   C732    1.416   .     A
C730   O772    1.380   .     S
C730   C741    1.414   .     A
C731   C749    1.460   .     S
C731   C750    1.416   .     A
C731   C733    1.391   .     A
C732   C748    1.460   .     S
C732   C734    1.391   .     A
C733   H753    1.085   .     S
C733   C735    1.386   .     A
C734   H759    1.085   .     S
C734   C736    1.386   .     A
C735   C737    1.409   .     A
C735   C742    1.393   .     A
C736   C743    1.393   .     A
C736   C738    1.409   .     A
C737   C739    1.426   .     A
C737   C790    1.409   .     S
C738   C741    1.426   .     A
C738   C789    1.409   1_455 S
C739   C750    1.414   .     A
C739   C745    1.426   .     A
C740   O775    1.283   .     A
C740   C747    1.425   .     S
C740   O773    1.291   .     A
C741   C744    1.426   .     A
C742   H760    1.085   .     S
C742   C796    1.389   .     S
C743   H761    1.085   .     S
C743   C797    1.389   1_455 S
C744   N769    1.434   .     S
C744   C794    1.389   1_455 S
C745   N770    1.434   .     S
C745   C795    1.389   .     S
C747   C850    1.326   .     S
C747   H867    1.088   .     S
C748   O776    1.298   .     A
C748   O778    1.292   .     A
C749   O777    1.298   .     A
C749   O779    1.292   .     A
C750   O780    1.380   .     S
Cu751  Cu752   2.684   .     S
Cu751  O779    1.958   .     S
Cu751  O775    1.949   .     S
Cu751  N768    2.017   .     S
Cu751  O771    1.954   .     S
Cu751  O776    1.970   .     S
Cu752  O774    1.949   .     S
Cu752  O773    1.954   .     S
Cu752  O778    1.958   .     S
Cu752  N767    2.017   .     S
Cu752  O777    1.970   .     S
H754   O772    0.991   .     S
H755   N145    1.045   1_556 S
H756   N769    1.045   .     S
H758   N770    1.045   .     S
H762   C850    1.088   .     S
H764   N143    1.029   1_556 S
H766   O780    0.991   .     S
N768   N143    1.297   1_556 S
N768   H141    1.029   1_556 S
N770   H133    1.045   1_556 S
C781   C798    1.425   .     S
C781   O826    1.283   .     A
C781   O823    1.291   .     A
C782   C784    1.416   .     A
C782   O824    1.380   .     S
C782   C793    1.414   .     A
C783   C801    1.460   .     S
C783   C802    1.416   .     A
C783   C785    1.391   .     A
C784   C800    1.460   .     S
C784   C786    1.391   .     A
C785   H805    1.085   .     S
C785   C787    1.386   .     A
C786   H811    1.085   .     S
C786   C788    1.386   .     A
C787   C789    1.409   .     A
C787   C794    1.393   .     A
C788   C795    1.393   .     A
C788   C790    1.409   .     A
C789   C791    1.426   .     A
C789   C738    1.409   1_655 S
C790   C793    1.426   .     A
C791   C802    1.414   .     A
C791   C797    1.426   .     A
C792   O827    1.283   .     A
C792   C799    1.425   .     S
C792   O825    1.291   .     A
C793   C796    1.426   .     A
C794   H812    1.085   .     S
C794   C744    1.389   1_655 S
C795   H813    1.085   .     S
C796   N821    1.434   .     S
C797   N822    1.434   .     S
C797   C743    1.389   1_655 S
C799   C902    1.326   .     S
C799   H919    1.088   .     S
C800   O828    1.298   .     A
C800   O830    1.292   .     A
C801   O829    1.298   .     A
C801   O831    1.292   .     A
C802   O832    1.380   .     S
Cu803  Cu804   2.684   .     S
Cu803  O831    1.958   .     S
Cu803  O827    1.949   .     S
Cu803  N820    2.017   .     S
Cu803  O823    1.954   .     S
Cu803  O828    1.970   .     S
Cu804  O826    1.949   .     S
Cu804  O825    1.954   .     S
Cu804  O830    1.958   .     S
Cu804  N819    2.017   .     S
Cu804  O829    1.970   .     S
H806   O824    0.991   .     S
H807   N197    1.045   1_556 S
H808   N821    1.045   .     S
H810   N822    1.045   .     S
H814   C902    1.088   .     S
H816   N195    1.029   1_556 S
H818   O832    0.991   .     S
N820   N195    1.297   1_556 S
N820   H193    1.029   1_556 S
N822   H185    1.045   1_556 S
C833   C850    1.425   .     S
C833   O878    1.283   .     A
C833   O875    1.291   .     A
C834   C836    1.416   .     A
C834   O876    1.380   .     S
C834   C845    1.414   .     A
C835   C853    1.460   .     S
C835   C854    1.416   .     A
C835   C837    1.391   .     A
C836   C852    1.460   .     S
C836   C838    1.391   .     A
C837   H857    1.085   .     S
C837   C839    1.386   .     A
C838   H863    1.085   .     S
C838   C840    1.386   .     A
C839   C841    1.409   .     A
C839   C846    1.393   .     A
C840   C847    1.393   .     A
C840   C842    1.409   .     A
C841   C843    1.426   .     A
C841   C894    1.409   .     S
C842   C845    1.426   .     A
C842   C893    1.409   1_455 S
C843   C854    1.414   .     A
C843   C849    1.426   .     A
C844   O879    1.283   .     A
C844   C851    1.425   .     S
C844   O877    1.291   .     A
C845   C848    1.426   .     A
C846   H864    1.085   .     S
C846   C900    1.389   .     S
C847   H865    1.085   .     S
C847   C901    1.389   1_455 S
C848   N873    1.434   .     S
C848   C898    1.389   1_455 S
C849   N874    1.434   .     S
C849   C899    1.389   .     S
C851   C642    1.326   1_565 S
C851   H659    1.088   1_565 S
C852   O880    1.298   .     A
C852   O882    1.292   .     A
C853   O881    1.298   .     A
C853   O883    1.292   .     A
C854   O884    1.380   .     S
Cu855  Cu856   2.684   .     S
Cu855  O883    1.958   .     S
Cu855  O879    1.949   .     S
Cu855  N872    2.017   .     S
Cu855  O875    1.954   .     S
Cu855  O880    1.970   .     S
Cu856  O878    1.949   .     S
Cu856  O877    1.954   .     S
Cu856  O882    1.958   .     S
Cu856  N871    2.017   .     S
Cu856  O881    1.970   .     S
H858   O876    0.991   .     S
H859   N249    1.045   1_556 S
H860   N873    1.045   .     S
H862   N874    1.045   .     S
H866   C642    1.088   1_565 S
H868   N247    1.029   1_556 S
H870   O884    0.991   .     S
N872   N247    1.297   1_556 S
N872   H245    1.029   1_556 S
N874   H237    1.045   1_556 S
C885   C902    1.425   .     S
C885   O930    1.283   .     A
C885   O927    1.291   .     A
C886   C888    1.416   .     A
C886   O928    1.380   .     S
C886   C897    1.414   .     A
C887   C905    1.460   .     S
C887   C906    1.416   .     A
C887   C889    1.391   .     A
C888   C904    1.460   .     S
C888   C890    1.391   .     A
C889   H909    1.085   .     S
C889   C891    1.386   .     A
C890   H915    1.085   .     S
C890   C892    1.386   .     A
C891   C893    1.409   .     A
C891   C898    1.393   .     A
C892   C899    1.393   .     A
C892   C894    1.409   .     A
C893   C895    1.426   .     A
C893   C842    1.409   1_655 S
C894   C897    1.426   .     A
C895   C906    1.414   .     A
C895   C901    1.426   .     A
C896   O931    1.283   .     A
C896   C903    1.425   .     S
C896   O929    1.291   .     A
C897   C900    1.426   .     A
C898   H916    1.085   .     S
C898   C848    1.389   1_655 S
C899   H917    1.085   .     S
C900   N925    1.434   .     S
C901   N926    1.434   .     S
C901   C847    1.389   1_655 S
C903   C694    1.326   1_565 S
C903   H711    1.088   1_565 S
C904   O932    1.298   .     A
C904   O934    1.292   .     A
C905   O933    1.298   .     A
C905   O935    1.292   .     A
C906   O936    1.380   .     S
Cu907  Cu908   2.684   .     S
Cu907  O935    1.958   .     S
Cu907  O931    1.949   .     S
Cu907  N924    2.017   .     S
Cu907  O927    1.954   .     S
Cu907  O932    1.970   .     S
Cu908  O930    1.949   .     S
Cu908  O929    1.954   .     S
Cu908  O934    1.958   .     S
Cu908  N923    2.017   .     S
Cu908  O933    1.970   .     S
H910   O928    0.991   .     S
H911   N301    1.045   1_556 S
H912   N925    1.045   .     S
H914   N926    1.045   .     S
H918   C694    1.088   1_565 S
H920   N299    1.029   1_556 S
H922   O936    0.991   .     S
N924   N299    1.297   1_556 S
N924   H297    1.029   1_556 S
N926   H289    1.045   1_556 S
