data_str_m2_o1_o16_pcu_sym.61
_audit_creation_date              2020-01-03
_audit_creation_method            'Materials Studio'
_symmetry_space_group_name_H-M    'P1'
_symmetry_Int_Tables_number       1
_symmetry_cell_setting            triclinic
loop_
_symmetry_equiv_pos_as_xyz
  x,y,z
_cell_length_a                    28.5803
_cell_length_b                    32.4775
_cell_length_c                    26.9295
_cell_angle_alpha                 90.2098
_cell_angle_beta                  73.1694
_cell_angle_gamma                 90.3264
loop_
_atom_site_label
_atom_site_type_symbol
_atom_site_fract_x
_atom_site_fract_y
_atom_site_fract_z
_atom_site_U_iso_or_equiv
_atom_site_adp_type
_atom_site_occupancy
C1     C     0.16682   0.24590   0.24991   0.00000  Uiso   1.00
C2     C     0.12801   0.15034   0.40516   0.00000  Uiso   1.00
C3     C     0.20065   0.31242   0.26764   0.00000  Uiso   1.00
C4     C     0.14123   0.16158   0.34943   0.00000  Uiso   1.00
C5     C     0.20029   0.02170   0.26708   0.00000  Uiso   1.00
C6     C     0.16686   0.04262   0.24719   0.00000  Uiso   1.00
C7     C     0.13413   0.02024   0.22670   0.00000  Uiso   1.00
C8     C     0.13425   0.31096   0.22828   0.00000  Uiso   1.00
C9     C     0.16723   0.29039   0.24880   0.00000  Uiso   1.00
C10    C     0.29883   0.18867   0.28621   0.00000  Uiso   1.00
C11    C     0.01505   0.18855   0.28630   0.00000  Uiso   1.00
C12    C     0.14868   0.14580   0.48739   0.00000  Uiso   1.00
C13    C     0.03455   0.14494   0.21354   0.00000  Uiso   1.00
C14    C     0.31828   0.14481   0.21367   0.00000  Uiso   1.00
C15    C     0.16684   0.08735   0.24858   0.00000  Uiso   1.00
C16    C     0.19260   0.16673   0.15012   0.00000  Uiso   1.00
C17    C     0.26940   0.16615   0.01087   0.00000  Uiso   1.00
C18    C     0.20731   0.16479   0.09348   0.00000  Uiso   1.00
C19    C     0.07862   0.14404   0.43224   0.00000  Uiso   1.00
C20    C     0.06477   0.13594   0.48519   0.00000  Uiso   1.00
C21    C     0.09872   0.13855   0.01299   0.00000  Uiso   1.00
C22    C     0.16391   0.14608   0.43237   0.00000  Uiso   1.00
C23    C     0.18425   0.15236   0.01430   0.00000  Uiso   1.00
C24    C     0.23431   0.15594   0.48589   0.00000  Uiso   1.00
C25    C     0.24904   0.14820   0.43295   0.00000  Uiso   1.00
C26    C     0.21444   0.14143   0.40702   0.00000  Uiso   1.00
C27    C     0.17160   0.15718   0.06829   0.00000  Uiso   1.00
C28    C     0.25621   0.16993   0.06453   0.00000  Uiso   1.00
Cl29   Cl    0.09410   0.04334   0.19611   0.00000  Uiso   1.00
Cu30   Cu    0.11978   0.16666   0.25000   0.00000  Uiso   1.00
Cu31   Cu    0.21355   0.16667   0.25000   0.00000  Uiso   1.00
H32    H     0.28414   0.17693   0.08325   0.00000  Uiso   1.00
H33    H     0.13406   0.15544   0.09161   0.00000  Uiso   1.00
H34    H     0.05070   0.14461   0.41232   0.00000  Uiso   1.00
H35    H     0.08493   0.13336   0.05418   0.00000  Uiso   1.00
H36    H     0.02728   0.12837   0.00544   0.00000  Uiso   1.00
H37    H     0.22859   0.13104   0.36752   0.00000  Uiso   1.00
H38    H     0.22640   0.29674   0.28360   0.00000  Uiso   1.00
H39    H     0.22576   0.03828   0.28289   0.00000  Uiso   1.00
H40    H     0.10915   0.29386   0.21247   0.00000  Uiso   1.00
H41    H     0.27244   0.20639   0.31519   0.00000  Uiso   1.00
H42    H     0.02590   0.20613   0.31537   0.00000  Uiso   1.00
H43    H     0.06101   0.12767   0.18416   0.00000  Uiso   1.00
H44    H     0.30743   0.12725   0.18459   0.00000  Uiso   1.00
H45    H     0.28751   0.14703   0.41150   0.00000  Uiso   1.00
H46    H     0.30691   0.17152   0.48857   0.00000  Uiso   1.00
N47    N     0.04931   0.16666   0.24999   0.00000  Uiso   1.00
N48    N     0.28402   0.16669   0.25000   0.00000  Uiso   1.00
O49    O     0.12708   0.22678   0.25001   0.00000  Uiso   1.00
O50    O     0.20627   0.22679   0.25001   0.00000  Uiso   1.00
O51    O     0.10775   0.16665   0.32549   0.00000  Uiso   1.00
O52    O     0.18694   0.16666   0.32549   0.00000  Uiso   1.00
O53    O     0.12706   0.10654   0.25000   0.00000  Uiso   1.00
O54    O     0.20625   0.10655   0.25000   0.00000  Uiso   1.00
O55    O     0.14640   0.16667   0.17451   0.00000  Uiso   1.00
O56    O     0.22559   0.16668   0.17451   0.00000  Uiso   1.00
C57    C     0.50016   0.24590   0.24991   0.00000  Uiso   1.00
C58    C     0.46134   0.15034   0.40516   0.00000  Uiso   1.00
C59    C     0.53399   0.31242   0.26764   0.00000  Uiso   1.00
C60    C     0.47456   0.16158   0.34943   0.00000  Uiso   1.00
C61    C     0.53362   0.02170   0.26708   0.00000  Uiso   1.00
C62    C     0.50020   0.04262   0.24719   0.00000  Uiso   1.00
C63    C     0.46746   0.02024   0.22670   0.00000  Uiso   1.00
C64    C     0.46758   0.31096   0.22828   0.00000  Uiso   1.00
C65    C     0.50056   0.29039   0.24880   0.00000  Uiso   1.00
C66    C     0.63217   0.18867   0.28621   0.00000  Uiso   1.00
C67    C     0.34838   0.18855   0.28630   0.00000  Uiso   1.00
C68    C     0.48201   0.14580   0.48739   0.00000  Uiso   1.00
C69    C     0.36788   0.14494   0.21354   0.00000  Uiso   1.00
C70    C     0.65161   0.14481   0.21367   0.00000  Uiso   1.00
C71    C     0.50018   0.08735   0.24858   0.00000  Uiso   1.00
C72    C     0.52593   0.16673   0.15012   0.00000  Uiso   1.00
C73    C     0.60273   0.16615   0.01087   0.00000  Uiso   1.00
C74    C     0.54064   0.16479   0.09348   0.00000  Uiso   1.00
C75    C     0.41195   0.14404   0.43224   0.00000  Uiso   1.00
C76    C     0.39811   0.13594   0.48519   0.00000  Uiso   1.00
C77    C     0.43205   0.13855   0.01299   0.00000  Uiso   1.00
C78    C     0.49725   0.14608   0.43237   0.00000  Uiso   1.00
C79    C     0.51758   0.15236   0.01430   0.00000  Uiso   1.00
C80    C     0.56764   0.15594   0.48589   0.00000  Uiso   1.00
C81    C     0.58237   0.14820   0.43295   0.00000  Uiso   1.00
C82    C     0.54777   0.14143   0.40702   0.00000  Uiso   1.00
C83    C     0.50493   0.15718   0.06829   0.00000  Uiso   1.00
C84    C     0.58954   0.16993   0.06453   0.00000  Uiso   1.00
Cl85   Cl    0.42744   0.04334   0.19611   0.00000  Uiso   1.00
Cu86   Cu    0.45311   0.16666   0.25000   0.00000  Uiso   1.00
Cu87   Cu    0.54689   0.16667   0.25000   0.00000  Uiso   1.00
H88    H     0.61747   0.17693   0.08325   0.00000  Uiso   1.00
H89    H     0.46740   0.15544   0.09161   0.00000  Uiso   1.00
H90    H     0.38403   0.14461   0.41232   0.00000  Uiso   1.00
H91    H     0.41826   0.13336   0.05418   0.00000  Uiso   1.00
H92    H     0.36062   0.12837   0.00544   0.00000  Uiso   1.00
H93    H     0.56192   0.13104   0.36752   0.00000  Uiso   1.00
H94    H     0.55973   0.29674   0.28360   0.00000  Uiso   1.00
H95    H     0.55909   0.03828   0.28289   0.00000  Uiso   1.00
H96    H     0.44248   0.29386   0.21247   0.00000  Uiso   1.00
H97    H     0.60577   0.20639   0.31519   0.00000  Uiso   1.00
H98    H     0.35923   0.20613   0.31537   0.00000  Uiso   1.00
H99    H     0.39435   0.12767   0.18416   0.00000  Uiso   1.00
H100   H     0.64077   0.12725   0.18459   0.00000  Uiso   1.00
H101   H     0.62084   0.14703   0.41150   0.00000  Uiso   1.00
H102   H     0.64024   0.17152   0.48857   0.00000  Uiso   1.00
N103   N     0.38265   0.16666   0.24999   0.00000  Uiso   1.00
N104   N     0.61735   0.16669   0.25000   0.00000  Uiso   1.00
O105   O     0.46042   0.22678   0.25001   0.00000  Uiso   1.00
O106   O     0.53961   0.22679   0.25001   0.00000  Uiso   1.00
O107   O     0.44108   0.16665   0.32549   0.00000  Uiso   1.00
O108   O     0.52027   0.16666   0.32549   0.00000  Uiso   1.00
O109   O     0.46039   0.10654   0.25000   0.00000  Uiso   1.00
O110   O     0.53958   0.10655   0.25000   0.00000  Uiso   1.00
O111   O     0.47973   0.16667   0.17451   0.00000  Uiso   1.00
O112   O     0.55892   0.16668   0.17451   0.00000  Uiso   1.00
C113   C     0.83349   0.24590   0.24991   0.00000  Uiso   1.00
C114   C     0.79467   0.15034   0.40516   0.00000  Uiso   1.00
C115   C     0.86732   0.31242   0.26764   0.00000  Uiso   1.00
C116   C     0.80789   0.16158   0.34943   0.00000  Uiso   1.00
C117   C     0.86696   0.02170   0.26708   0.00000  Uiso   1.00
C118   C     0.83353   0.04262   0.24719   0.00000  Uiso   1.00
C119   C     0.80080   0.02024   0.22670   0.00000  Uiso   1.00
C120   C     0.80092   0.31096   0.22828   0.00000  Uiso   1.00
C121   C     0.83390   0.29039   0.24880   0.00000  Uiso   1.00
C122   C     0.96550   0.18867   0.28621   0.00000  Uiso   1.00
C123   C     0.68172   0.18855   0.28630   0.00000  Uiso   1.00
C124   C     0.81534   0.14580   0.48739   0.00000  Uiso   1.00
C125   C     0.70121   0.14494   0.21354   0.00000  Uiso   1.00
C126   C     0.98494   0.14481   0.21367   0.00000  Uiso   1.00
C127   C     0.83351   0.08735   0.24858   0.00000  Uiso   1.00
C128   C     0.85926   0.16673   0.15012   0.00000  Uiso   1.00
C129   C     0.93606   0.16615   0.01087   0.00000  Uiso   1.00
C130   C     0.87398   0.16479   0.09348   0.00000  Uiso   1.00
C131   C     0.74528   0.14404   0.43224   0.00000  Uiso   1.00
C132   C     0.73144   0.13594   0.48519   0.00000  Uiso   1.00
C133   C     0.76539   0.13855   0.01299   0.00000  Uiso   1.00
C134   C     0.83058   0.14608   0.43237   0.00000  Uiso   1.00
C135   C     0.85091   0.15236   0.01430   0.00000  Uiso   1.00
C136   C     0.90098   0.15594   0.48589   0.00000  Uiso   1.00
C137   C     0.91571   0.14820   0.43295   0.00000  Uiso   1.00
C138   C     0.88110   0.14143   0.40702   0.00000  Uiso   1.00
C139   C     0.83826   0.15718   0.06829   0.00000  Uiso   1.00
C140   C     0.92288   0.16993   0.06453   0.00000  Uiso   1.00
Cl141  Cl    0.76077   0.04334   0.19611   0.00000  Uiso   1.00
Cu142  Cu    0.78645   0.16666   0.25000   0.00000  Uiso   1.00
Cu143  Cu    0.88022   0.16667   0.25000   0.00000  Uiso   1.00
H144   H     0.95080   0.17693   0.08325   0.00000  Uiso   1.00
H145   H     0.80073   0.15544   0.09161   0.00000  Uiso   1.00
H146   H     0.71736   0.14461   0.41232   0.00000  Uiso   1.00
H147   H     0.75160   0.13336   0.05418   0.00000  Uiso   1.00
H148   H     0.69395   0.12837   0.00544   0.00000  Uiso   1.00
H149   H     0.89526   0.13104   0.36752   0.00000  Uiso   1.00
H150   H     0.89306   0.29674   0.28360   0.00000  Uiso   1.00
H151   H     0.89242   0.03828   0.28289   0.00000  Uiso   1.00
H152   H     0.77581   0.29386   0.21247   0.00000  Uiso   1.00
H153   H     0.93911   0.20639   0.31519   0.00000  Uiso   1.00
H154   H     0.69256   0.20613   0.31537   0.00000  Uiso   1.00
H155   H     0.72768   0.12767   0.18416   0.00000  Uiso   1.00
H156   H     0.97410   0.12725   0.18459   0.00000  Uiso   1.00
H157   H     0.95417   0.14703   0.41150   0.00000  Uiso   1.00
H158   H     0.97358   0.17152   0.48857   0.00000  Uiso   1.00
N159   N     0.71598   0.16666   0.24999   0.00000  Uiso   1.00
N160   N     0.95069   0.16669   0.25000   0.00000  Uiso   1.00
O161   O     0.79375   0.22678   0.25001   0.00000  Uiso   1.00
O162   O     0.87294   0.22679   0.25001   0.00000  Uiso   1.00
O163   O     0.77441   0.16665   0.32549   0.00000  Uiso   1.00
O164   O     0.85360   0.16666   0.32549   0.00000  Uiso   1.00
O165   O     0.79373   0.10654   0.25000   0.00000  Uiso   1.00
O166   O     0.87292   0.10655   0.25000   0.00000  Uiso   1.00
O167   O     0.81306   0.16667   0.17451   0.00000  Uiso   1.00
O168   O     0.89225   0.16668   0.17451   0.00000  Uiso   1.00
C169   C     0.16682   0.57923   0.24991   0.00000  Uiso   1.00
C170   C     0.12801   0.48368   0.40516   0.00000  Uiso   1.00
C171   C     0.20065   0.64575   0.26764   0.00000  Uiso   1.00
C172   C     0.14123   0.49492   0.34943   0.00000  Uiso   1.00
C173   C     0.20029   0.35503   0.26708   0.00000  Uiso   1.00
C174   C     0.16686   0.37595   0.24719   0.00000  Uiso   1.00
C175   C     0.13413   0.35358   0.22670   0.00000  Uiso   1.00
C176   C     0.13425   0.64429   0.22828   0.00000  Uiso   1.00
C177   C     0.16723   0.62372   0.24880   0.00000  Uiso   1.00
C178   C     0.29883   0.52200   0.28621   0.00000  Uiso   1.00
C179   C     0.01505   0.52188   0.28630   0.00000  Uiso   1.00
C180   C     0.14868   0.47913   0.48739   0.00000  Uiso   1.00
C181   C     0.03455   0.47827   0.21354   0.00000  Uiso   1.00
C182   C     0.31828   0.47815   0.21367   0.00000  Uiso   1.00
C183   C     0.16684   0.42068   0.24858   0.00000  Uiso   1.00
C184   C     0.19260   0.50006   0.15012   0.00000  Uiso   1.00
C185   C     0.26940   0.49948   0.01087   0.00000  Uiso   1.00
C186   C     0.20731   0.49812   0.09348   0.00000  Uiso   1.00
C187   C     0.07862   0.47737   0.43224   0.00000  Uiso   1.00
C188   C     0.06477   0.46927   0.48519   0.00000  Uiso   1.00
C189   C     0.09872   0.47188   0.01299   0.00000  Uiso   1.00
C190   C     0.16391   0.47941   0.43237   0.00000  Uiso   1.00
C191   C     0.18425   0.48569   0.01430   0.00000  Uiso   1.00
C192   C     0.23431   0.48927   0.48589   0.00000  Uiso   1.00
C193   C     0.24904   0.48154   0.43295   0.00000  Uiso   1.00
C194   C     0.21444   0.47476   0.40702   0.00000  Uiso   1.00
C195   C     0.17160   0.49051   0.06829   0.00000  Uiso   1.00
C196   C     0.25621   0.50327   0.06453   0.00000  Uiso   1.00
Cl197  Cl    0.09410   0.37667   0.19611   0.00000  Uiso   1.00
Cu198  Cu    0.11978   0.49999   0.25000   0.00000  Uiso   1.00
Cu199  Cu    0.21355   0.50001   0.25000   0.00000  Uiso   1.00
H200   H     0.28414   0.51026   0.08325   0.00000  Uiso   1.00
H201   H     0.13406   0.48878   0.09161   0.00000  Uiso   1.00
H202   H     0.05070   0.47794   0.41232   0.00000  Uiso   1.00
H203   H     0.08493   0.46669   0.05418   0.00000  Uiso   1.00
H204   H     0.02728   0.46171   0.00544   0.00000  Uiso   1.00
H205   H     0.22859   0.46437   0.36752   0.00000  Uiso   1.00
H206   H     0.22640   0.63007   0.28360   0.00000  Uiso   1.00
H207   H     0.22576   0.37161   0.28289   0.00000  Uiso   1.00
H208   H     0.10915   0.62719   0.21247   0.00000  Uiso   1.00
H209   H     0.27244   0.53972   0.31519   0.00000  Uiso   1.00
H210   H     0.02590   0.53946   0.31537   0.00000  Uiso   1.00
H211   H     0.06101   0.46100   0.18416   0.00000  Uiso   1.00
H212   H     0.30743   0.46058   0.18459   0.00000  Uiso   1.00
H213   H     0.28751   0.48036   0.41150   0.00000  Uiso   1.00
H214   H     0.30691   0.50485   0.48857   0.00000  Uiso   1.00
N215   N     0.04931   0.49999   0.24999   0.00000  Uiso   1.00
N216   N     0.28402   0.50002   0.25000   0.00000  Uiso   1.00
O217   O     0.12708   0.56011   0.25001   0.00000  Uiso   1.00
O218   O     0.20627   0.56012   0.25001   0.00000  Uiso   1.00
O219   O     0.10775   0.49998   0.32549   0.00000  Uiso   1.00
O220   O     0.18694   0.49999   0.32549   0.00000  Uiso   1.00
O221   O     0.12706   0.43988   0.25000   0.00000  Uiso   1.00
O222   O     0.20625   0.43989   0.25000   0.00000  Uiso   1.00
O223   O     0.14640   0.50001   0.17451   0.00000  Uiso   1.00
O224   O     0.22559   0.50002   0.17451   0.00000  Uiso   1.00
C225   C     0.50016   0.57923   0.24991   0.00000  Uiso   1.00
C226   C     0.46134   0.48368   0.40516   0.00000  Uiso   1.00
C227   C     0.53399   0.64575   0.26764   0.00000  Uiso   1.00
C228   C     0.47456   0.49492   0.34943   0.00000  Uiso   1.00
C229   C     0.53362   0.35503   0.26708   0.00000  Uiso   1.00
C230   C     0.50020   0.37595   0.24719   0.00000  Uiso   1.00
C231   C     0.46746   0.35358   0.22670   0.00000  Uiso   1.00
C232   C     0.46758   0.64429   0.22828   0.00000  Uiso   1.00
C233   C     0.50056   0.62372   0.24880   0.00000  Uiso   1.00
C234   C     0.63217   0.52200   0.28621   0.00000  Uiso   1.00
C235   C     0.34838   0.52188   0.28630   0.00000  Uiso   1.00
C236   C     0.48201   0.47913   0.48739   0.00000  Uiso   1.00
C237   C     0.36788   0.47827   0.21354   0.00000  Uiso   1.00
C238   C     0.65161   0.47815   0.21367   0.00000  Uiso   1.00
C239   C     0.50018   0.42068   0.24858   0.00000  Uiso   1.00
C240   C     0.52593   0.50006   0.15012   0.00000  Uiso   1.00
C241   C     0.60273   0.49948   0.01087   0.00000  Uiso   1.00
C242   C     0.54064   0.49812   0.09348   0.00000  Uiso   1.00
C243   C     0.41195   0.47737   0.43224   0.00000  Uiso   1.00
C244   C     0.39811   0.46927   0.48519   0.00000  Uiso   1.00
C245   C     0.43205   0.47188   0.01299   0.00000  Uiso   1.00
C246   C     0.49725   0.47941   0.43237   0.00000  Uiso   1.00
C247   C     0.51758   0.48569   0.01430   0.00000  Uiso   1.00
C248   C     0.56764   0.48927   0.48589   0.00000  Uiso   1.00
C249   C     0.58237   0.48154   0.43295   0.00000  Uiso   1.00
C250   C     0.54777   0.47476   0.40702   0.00000  Uiso   1.00
C251   C     0.50493   0.49051   0.06829   0.00000  Uiso   1.00
C252   C     0.58954   0.50327   0.06453   0.00000  Uiso   1.00
Cl253  Cl    0.42744   0.37667   0.19611   0.00000  Uiso   1.00
Cu254  Cu    0.45311   0.49999   0.25000   0.00000  Uiso   1.00
Cu255  Cu    0.54689   0.50001   0.25000   0.00000  Uiso   1.00
H256   H     0.61747   0.51026   0.08325   0.00000  Uiso   1.00
H257   H     0.46740   0.48878   0.09161   0.00000  Uiso   1.00
H258   H     0.38403   0.47794   0.41232   0.00000  Uiso   1.00
H259   H     0.41826   0.46669   0.05418   0.00000  Uiso   1.00
H260   H     0.36062   0.46171   0.00544   0.00000  Uiso   1.00
H261   H     0.56192   0.46437   0.36752   0.00000  Uiso   1.00
H262   H     0.55973   0.63007   0.28360   0.00000  Uiso   1.00
H263   H     0.55909   0.37161   0.28289   0.00000  Uiso   1.00
H264   H     0.44248   0.62719   0.21247   0.00000  Uiso   1.00
H265   H     0.60577   0.53972   0.31519   0.00000  Uiso   1.00
H266   H     0.35923   0.53946   0.31537   0.00000  Uiso   1.00
H267   H     0.39435   0.46100   0.18416   0.00000  Uiso   1.00
H268   H     0.64077   0.46058   0.18459   0.00000  Uiso   1.00
H269   H     0.62084   0.48036   0.41150   0.00000  Uiso   1.00
H270   H     0.64024   0.50485   0.48857   0.00000  Uiso   1.00
N271   N     0.38265   0.49999   0.24999   0.00000  Uiso   1.00
N272   N     0.61735   0.50002   0.25000   0.00000  Uiso   1.00
O273   O     0.46042   0.56011   0.25001   0.00000  Uiso   1.00
O274   O     0.53961   0.56012   0.25001   0.00000  Uiso   1.00
O275   O     0.44108   0.49998   0.32549   0.00000  Uiso   1.00
O276   O     0.52027   0.49999   0.32549   0.00000  Uiso   1.00
O277   O     0.46039   0.43988   0.25000   0.00000  Uiso   1.00
O278   O     0.53958   0.43989   0.25000   0.00000  Uiso   1.00
O279   O     0.47973   0.50001   0.17451   0.00000  Uiso   1.00
O280   O     0.55892   0.50002   0.17451   0.00000  Uiso   1.00
C281   C     0.83349   0.57923   0.24991   0.00000  Uiso   1.00
C282   C     0.79467   0.48368   0.40516   0.00000  Uiso   1.00
C283   C     0.86732   0.64575   0.26764   0.00000  Uiso   1.00
C284   C     0.80789   0.49492   0.34943   0.00000  Uiso   1.00
C285   C     0.86696   0.35503   0.26708   0.00000  Uiso   1.00
C286   C     0.83353   0.37595   0.24719   0.00000  Uiso   1.00
C287   C     0.80080   0.35358   0.22670   0.00000  Uiso   1.00
C288   C     0.80092   0.64429   0.22828   0.00000  Uiso   1.00
C289   C     0.83390   0.62372   0.24880   0.00000  Uiso   1.00
C290   C     0.96550   0.52200   0.28621   0.00000  Uiso   1.00
C291   C     0.68172   0.52188   0.28630   0.00000  Uiso   1.00
C292   C     0.81534   0.47913   0.48739   0.00000  Uiso   1.00
C293   C     0.70121   0.47827   0.21354   0.00000  Uiso   1.00
C294   C     0.98494   0.47815   0.21367   0.00000  Uiso   1.00
C295   C     0.83351   0.42068   0.24858   0.00000  Uiso   1.00
C296   C     0.85926   0.50006   0.15012   0.00000  Uiso   1.00
C297   C     0.93606   0.49948   0.01087   0.00000  Uiso   1.00
C298   C     0.87398   0.49812   0.09348   0.00000  Uiso   1.00
C299   C     0.74528   0.47737   0.43224   0.00000  Uiso   1.00
C300   C     0.73144   0.46927   0.48519   0.00000  Uiso   1.00
C301   C     0.76539   0.47188   0.01299   0.00000  Uiso   1.00
C302   C     0.83058   0.47941   0.43237   0.00000  Uiso   1.00
C303   C     0.85091   0.48569   0.01430   0.00000  Uiso   1.00
C304   C     0.90098   0.48927   0.48589   0.00000  Uiso   1.00
C305   C     0.91571   0.48154   0.43295   0.00000  Uiso   1.00
C306   C     0.88110   0.47476   0.40702   0.00000  Uiso   1.00
C307   C     0.83826   0.49051   0.06829   0.00000  Uiso   1.00
C308   C     0.92288   0.50327   0.06453   0.00000  Uiso   1.00
Cl309  Cl    0.76077   0.37667   0.19611   0.00000  Uiso   1.00
Cu310  Cu    0.78645   0.49999   0.25000   0.00000  Uiso   1.00
Cu311  Cu    0.88022   0.50001   0.25000   0.00000  Uiso   1.00
H312   H     0.95080   0.51026   0.08325   0.00000  Uiso   1.00
H313   H     0.80073   0.48878   0.09161   0.00000  Uiso   1.00
H314   H     0.71736   0.47794   0.41232   0.00000  Uiso   1.00
H315   H     0.75160   0.46669   0.05418   0.00000  Uiso   1.00
H316   H     0.69395   0.46171   0.00544   0.00000  Uiso   1.00
H317   H     0.89526   0.46437   0.36752   0.00000  Uiso   1.00
H318   H     0.89306   0.63007   0.28360   0.00000  Uiso   1.00
H319   H     0.89242   0.37161   0.28289   0.00000  Uiso   1.00
H320   H     0.77581   0.62719   0.21247   0.00000  Uiso   1.00
H321   H     0.93911   0.53972   0.31519   0.00000  Uiso   1.00
H322   H     0.69256   0.53946   0.31537   0.00000  Uiso   1.00
H323   H     0.72768   0.46100   0.18416   0.00000  Uiso   1.00
H324   H     0.97410   0.46058   0.18459   0.00000  Uiso   1.00
H325   H     0.95417   0.48036   0.41150   0.00000  Uiso   1.00
H326   H     0.97358   0.50485   0.48857   0.00000  Uiso   1.00
N327   N     0.71598   0.49999   0.24999   0.00000  Uiso   1.00
N328   N     0.95069   0.50002   0.25000   0.00000  Uiso   1.00
O329   O     0.79375   0.56011   0.25001   0.00000  Uiso   1.00
O330   O     0.87294   0.56012   0.25001   0.00000  Uiso   1.00
O331   O     0.77441   0.49998   0.32549   0.00000  Uiso   1.00
O332   O     0.85360   0.49999   0.32549   0.00000  Uiso   1.00
O333   O     0.79373   0.43988   0.25000   0.00000  Uiso   1.00
O334   O     0.87292   0.43989   0.25000   0.00000  Uiso   1.00
O335   O     0.81306   0.50001   0.17451   0.00000  Uiso   1.00
O336   O     0.89225   0.50002   0.17451   0.00000  Uiso   1.00
C337   C     0.16682   0.91256   0.24991   0.00000  Uiso   1.00
C338   C     0.12801   0.81701   0.40516   0.00000  Uiso   1.00
C339   C     0.20065   0.97909   0.26764   0.00000  Uiso   1.00
C340   C     0.14123   0.82825   0.34943   0.00000  Uiso   1.00
C341   C     0.20029   0.68836   0.26708   0.00000  Uiso   1.00
C342   C     0.16686   0.70929   0.24719   0.00000  Uiso   1.00
C343   C     0.13413   0.68691   0.22670   0.00000  Uiso   1.00
C344   C     0.13425   0.97762   0.22828   0.00000  Uiso   1.00
C345   C     0.16723   0.95705   0.24880   0.00000  Uiso   1.00
C346   C     0.29883   0.85534   0.28621   0.00000  Uiso   1.00
C347   C     0.01505   0.85521   0.28630   0.00000  Uiso   1.00
C348   C     0.14868   0.81247   0.48739   0.00000  Uiso   1.00
C349   C     0.03455   0.81161   0.21354   0.00000  Uiso   1.00
C350   C     0.31828   0.81148   0.21367   0.00000  Uiso   1.00
C351   C     0.16684   0.75402   0.24858   0.00000  Uiso   1.00
C352   C     0.19260   0.83339   0.15012   0.00000  Uiso   1.00
C353   C     0.26940   0.83281   0.01087   0.00000  Uiso   1.00
C354   C     0.20731   0.83146   0.09348   0.00000  Uiso   1.00
C355   C     0.07862   0.81071   0.43224   0.00000  Uiso   1.00
C356   C     0.06477   0.80261   0.48519   0.00000  Uiso   1.00
C357   C     0.09872   0.80521   0.01299   0.00000  Uiso   1.00
C358   C     0.16391   0.81274   0.43237   0.00000  Uiso   1.00
C359   C     0.18425   0.81903   0.01430   0.00000  Uiso   1.00
C360   C     0.23431   0.82261   0.48589   0.00000  Uiso   1.00
C361   C     0.24904   0.81487   0.43295   0.00000  Uiso   1.00
C362   C     0.21444   0.80810   0.40702   0.00000  Uiso   1.00
C363   C     0.17160   0.82384   0.06829   0.00000  Uiso   1.00
C364   C     0.25621   0.83660   0.06453   0.00000  Uiso   1.00
Cl365  Cl    0.09410   0.71000   0.19611   0.00000  Uiso   1.00
Cu366  Cu    0.11978   0.83333   0.25000   0.00000  Uiso   1.00
Cu367  Cu    0.21355   0.83334   0.25000   0.00000  Uiso   1.00
H368   H     0.28414   0.84360   0.08325   0.00000  Uiso   1.00
H369   H     0.13406   0.82211   0.09161   0.00000  Uiso   1.00
H370   H     0.05070   0.81127   0.41232   0.00000  Uiso   1.00
H371   H     0.08493   0.80002   0.05418   0.00000  Uiso   1.00
H372   H     0.02728   0.79504   0.00544   0.00000  Uiso   1.00
H373   H     0.22859   0.79771   0.36752   0.00000  Uiso   1.00
H374   H     0.22640   0.96341   0.28360   0.00000  Uiso   1.00
H375   H     0.22576   0.70495   0.28289   0.00000  Uiso   1.00
H376   H     0.10915   0.96053   0.21247   0.00000  Uiso   1.00
H377   H     0.27244   0.87305   0.31519   0.00000  Uiso   1.00
H378   H     0.02590   0.87279   0.31537   0.00000  Uiso   1.00
H379   H     0.06101   0.79434   0.18416   0.00000  Uiso   1.00
H380   H     0.30743   0.79391   0.18459   0.00000  Uiso   1.00
H381   H     0.28751   0.81370   0.41150   0.00000  Uiso   1.00
H382   H     0.30691   0.83819   0.48857   0.00000  Uiso   1.00
N383   N     0.04931   0.83332   0.24999   0.00000  Uiso   1.00
N384   N     0.28402   0.83335   0.25000   0.00000  Uiso   1.00
O385   O     0.12708   0.89345   0.25001   0.00000  Uiso   1.00
O386   O     0.20627   0.89346   0.25001   0.00000  Uiso   1.00
O387   O     0.10775   0.83332   0.32549   0.00000  Uiso   1.00
O388   O     0.18694   0.83333   0.32549   0.00000  Uiso   1.00
O389   O     0.12706   0.77321   0.25000   0.00000  Uiso   1.00
O390   O     0.20625   0.77322   0.25000   0.00000  Uiso   1.00
O391   O     0.14640   0.83334   0.17451   0.00000  Uiso   1.00
O392   O     0.22559   0.83335   0.17451   0.00000  Uiso   1.00
C393   C     0.50016   0.91256   0.24991   0.00000  Uiso   1.00
C394   C     0.46134   0.81701   0.40516   0.00000  Uiso   1.00
C395   C     0.53399   0.97909   0.26764   0.00000  Uiso   1.00
C396   C     0.47456   0.82825   0.34943   0.00000  Uiso   1.00
C397   C     0.53362   0.68836   0.26708   0.00000  Uiso   1.00
C398   C     0.50020   0.70929   0.24719   0.00000  Uiso   1.00
C399   C     0.46746   0.68691   0.22670   0.00000  Uiso   1.00
C400   C     0.46758   0.97762   0.22828   0.00000  Uiso   1.00
C401   C     0.50056   0.95705   0.24880   0.00000  Uiso   1.00
C402   C     0.63217   0.85534   0.28621   0.00000  Uiso   1.00
C403   C     0.34838   0.85521   0.28630   0.00000  Uiso   1.00
C404   C     0.48201   0.81247   0.48739   0.00000  Uiso   1.00
C405   C     0.36788   0.81161   0.21354   0.00000  Uiso   1.00
C406   C     0.65161   0.81148   0.21367   0.00000  Uiso   1.00
C407   C     0.50018   0.75402   0.24858   0.00000  Uiso   1.00
C408   C     0.52593   0.83339   0.15012   0.00000  Uiso   1.00
C409   C     0.60273   0.83281   0.01087   0.00000  Uiso   1.00
C410   C     0.54064   0.83146   0.09348   0.00000  Uiso   1.00
C411   C     0.41195   0.81071   0.43224   0.00000  Uiso   1.00
C412   C     0.39811   0.80261   0.48519   0.00000  Uiso   1.00
C413   C     0.43205   0.80521   0.01299   0.00000  Uiso   1.00
C414   C     0.49725   0.81274   0.43237   0.00000  Uiso   1.00
C415   C     0.51758   0.81903   0.01430   0.00000  Uiso   1.00
C416   C     0.56764   0.82261   0.48589   0.00000  Uiso   1.00
C417   C     0.58237   0.81487   0.43295   0.00000  Uiso   1.00
C418   C     0.54777   0.80810   0.40702   0.00000  Uiso   1.00
C419   C     0.50493   0.82384   0.06829   0.00000  Uiso   1.00
C420   C     0.58954   0.83660   0.06453   0.00000  Uiso   1.00
Cl421  Cl    0.42744   0.71000   0.19611   0.00000  Uiso   1.00
Cu422  Cu    0.45311   0.83333   0.25000   0.00000  Uiso   1.00
Cu423  Cu    0.54689   0.83334   0.25000   0.00000  Uiso   1.00
H424   H     0.61747   0.84360   0.08325   0.00000  Uiso   1.00
H425   H     0.46740   0.82211   0.09161   0.00000  Uiso   1.00
H426   H     0.38403   0.81127   0.41232   0.00000  Uiso   1.00
H427   H     0.41826   0.80002   0.05418   0.00000  Uiso   1.00
H428   H     0.36062   0.79504   0.00544   0.00000  Uiso   1.00
H429   H     0.56192   0.79771   0.36752   0.00000  Uiso   1.00
H430   H     0.55973   0.96341   0.28360   0.00000  Uiso   1.00
H431   H     0.55909   0.70495   0.28289   0.00000  Uiso   1.00
H432   H     0.44248   0.96053   0.21247   0.00000  Uiso   1.00
H433   H     0.60577   0.87305   0.31519   0.00000  Uiso   1.00
H434   H     0.35923   0.87279   0.31537   0.00000  Uiso   1.00
H435   H     0.39435   0.79434   0.18416   0.00000  Uiso   1.00
H436   H     0.64077   0.79391   0.18459   0.00000  Uiso   1.00
H437   H     0.62084   0.81370   0.41150   0.00000  Uiso   1.00
H438   H     0.64024   0.83819   0.48857   0.00000  Uiso   1.00
N439   N     0.38265   0.83332   0.24999   0.00000  Uiso   1.00
N440   N     0.61735   0.83335   0.25000   0.00000  Uiso   1.00
O441   O     0.46042   0.89345   0.25001   0.00000  Uiso   1.00
O442   O     0.53961   0.89346   0.25001   0.00000  Uiso   1.00
O443   O     0.44108   0.83332   0.32549   0.00000  Uiso   1.00
O444   O     0.52027   0.83333   0.32549   0.00000  Uiso   1.00
O445   O     0.46039   0.77321   0.25000   0.00000  Uiso   1.00
O446   O     0.53958   0.77322   0.25000   0.00000  Uiso   1.00
O447   O     0.47973   0.83334   0.17451   0.00000  Uiso   1.00
O448   O     0.55892   0.83335   0.17451   0.00000  Uiso   1.00
C449   C     0.83349   0.91256   0.24991   0.00000  Uiso   1.00
C450   C     0.79467   0.81701   0.40516   0.00000  Uiso   1.00
C451   C     0.86732   0.97909   0.26764   0.00000  Uiso   1.00
C452   C     0.80789   0.82825   0.34943   0.00000  Uiso   1.00
C453   C     0.86696   0.68836   0.26708   0.00000  Uiso   1.00
C454   C     0.83353   0.70929   0.24719   0.00000  Uiso   1.00
C455   C     0.80080   0.68691   0.22670   0.00000  Uiso   1.00
C456   C     0.80092   0.97762   0.22828   0.00000  Uiso   1.00
C457   C     0.83390   0.95705   0.24880   0.00000  Uiso   1.00
C458   C     0.96550   0.85534   0.28621   0.00000  Uiso   1.00
C459   C     0.68172   0.85521   0.28630   0.00000  Uiso   1.00
C460   C     0.81534   0.81247   0.48739   0.00000  Uiso   1.00
C461   C     0.70121   0.81161   0.21354   0.00000  Uiso   1.00
C462   C     0.98494   0.81148   0.21367   0.00000  Uiso   1.00
C463   C     0.83351   0.75402   0.24858   0.00000  Uiso   1.00
C464   C     0.85926   0.83339   0.15012   0.00000  Uiso   1.00
C465   C     0.93606   0.83281   0.01087   0.00000  Uiso   1.00
C466   C     0.87398   0.83146   0.09348   0.00000  Uiso   1.00
C467   C     0.74528   0.81071   0.43224   0.00000  Uiso   1.00
C468   C     0.73144   0.80261   0.48519   0.00000  Uiso   1.00
C469   C     0.76539   0.80521   0.01299   0.00000  Uiso   1.00
C470   C     0.83058   0.81274   0.43237   0.00000  Uiso   1.00
C471   C     0.85091   0.81903   0.01430   0.00000  Uiso   1.00
C472   C     0.90098   0.82261   0.48589   0.00000  Uiso   1.00
C473   C     0.91571   0.81487   0.43295   0.00000  Uiso   1.00
C474   C     0.88110   0.80810   0.40702   0.00000  Uiso   1.00
C475   C     0.83826   0.82384   0.06829   0.00000  Uiso   1.00
C476   C     0.92288   0.83660   0.06453   0.00000  Uiso   1.00
Cl477  Cl    0.76077   0.71000   0.19611   0.00000  Uiso   1.00
Cu478  Cu    0.78645   0.83333   0.25000   0.00000  Uiso   1.00
Cu479  Cu    0.88022   0.83334   0.25000   0.00000  Uiso   1.00
H480   H     0.95080   0.84360   0.08325   0.00000  Uiso   1.00
H481   H     0.80073   0.82211   0.09161   0.00000  Uiso   1.00
H482   H     0.71736   0.81127   0.41232   0.00000  Uiso   1.00
H483   H     0.75160   0.80002   0.05418   0.00000  Uiso   1.00
H484   H     0.69395   0.79504   0.00544   0.00000  Uiso   1.00
H485   H     0.89526   0.79771   0.36752   0.00000  Uiso   1.00
H486   H     0.89306   0.96341   0.28360   0.00000  Uiso   1.00
H487   H     0.89242   0.70495   0.28289   0.00000  Uiso   1.00
H488   H     0.77581   0.96053   0.21247   0.00000  Uiso   1.00
H489   H     0.93911   0.87305   0.31519   0.00000  Uiso   1.00
H490   H     0.69256   0.87279   0.31537   0.00000  Uiso   1.00
H491   H     0.72768   0.79434   0.18416   0.00000  Uiso   1.00
H492   H     0.97410   0.79391   0.18459   0.00000  Uiso   1.00
H493   H     0.95417   0.81370   0.41150   0.00000  Uiso   1.00
H494   H     0.97358   0.83819   0.48857   0.00000  Uiso   1.00
N495   N     0.71598   0.83332   0.24999   0.00000  Uiso   1.00
N496   N     0.95069   0.83335   0.25000   0.00000  Uiso   1.00
O497   O     0.79375   0.89345   0.25001   0.00000  Uiso   1.00
O498   O     0.87294   0.89346   0.25001   0.00000  Uiso   1.00
O499   O     0.77441   0.83332   0.32549   0.00000  Uiso   1.00
O500   O     0.85360   0.83333   0.32549   0.00000  Uiso   1.00
O501   O     0.79373   0.77321   0.25000   0.00000  Uiso   1.00
O502   O     0.87292   0.77322   0.25000   0.00000  Uiso   1.00
O503   O     0.81306   0.83334   0.17451   0.00000  Uiso   1.00
O504   O     0.89225   0.83335   0.17451   0.00000  Uiso   1.00
C505   C     0.16682   0.24590   0.74991   0.00000  Uiso   1.00
C506   C     0.12801   0.15034   0.90516   0.00000  Uiso   1.00
C507   C     0.20065   0.31242   0.76764   0.00000  Uiso   1.00
C508   C     0.14123   0.16158   0.84943   0.00000  Uiso   1.00
C509   C     0.20029   0.02170   0.76708   0.00000  Uiso   1.00
C510   C     0.16686   0.04262   0.74719   0.00000  Uiso   1.00
C511   C     0.13413   0.02024   0.72670   0.00000  Uiso   1.00
C512   C     0.13425   0.31096   0.72828   0.00000  Uiso   1.00
C513   C     0.16723   0.29039   0.74880   0.00000  Uiso   1.00
C514   C     0.29883   0.18867   0.78621   0.00000  Uiso   1.00
C515   C     0.01505   0.18855   0.78630   0.00000  Uiso   1.00
C516   C     0.14868   0.14580   0.98739   0.00000  Uiso   1.00
C517   C     0.03455   0.14494   0.71354   0.00000  Uiso   1.00
C518   C     0.31828   0.14481   0.71367   0.00000  Uiso   1.00
C519   C     0.16684   0.08735   0.74858   0.00000  Uiso   1.00
C520   C     0.19260   0.16673   0.65012   0.00000  Uiso   1.00
C521   C     0.26940   0.16615   0.51087   0.00000  Uiso   1.00
C522   C     0.20731   0.16479   0.59348   0.00000  Uiso   1.00
C523   C     0.07862   0.14404   0.93224   0.00000  Uiso   1.00
C524   C     0.06477   0.13594   0.98519   0.00000  Uiso   1.00
C525   C     0.09872   0.13855   0.51299   0.00000  Uiso   1.00
C526   C     0.16391   0.14608   0.93237   0.00000  Uiso   1.00
C527   C     0.18425   0.15236   0.51430   0.00000  Uiso   1.00
C528   C     0.23431   0.15594   0.98589   0.00000  Uiso   1.00
C529   C     0.24904   0.14820   0.93295   0.00000  Uiso   1.00
C530   C     0.21444   0.14143   0.90702   0.00000  Uiso   1.00
C531   C     0.17160   0.15718   0.56829   0.00000  Uiso   1.00
C532   C     0.25621   0.16993   0.56453   0.00000  Uiso   1.00
Cl533  Cl    0.09410   0.04334   0.69611   0.00000  Uiso   1.00
Cu534  Cu    0.11978   0.16666   0.75000   0.00000  Uiso   1.00
Cu535  Cu    0.21355   0.16667   0.75000   0.00000  Uiso   1.00
H536   H     0.28414   0.17693   0.58325   0.00000  Uiso   1.00
H537   H     0.13406   0.15544   0.59161   0.00000  Uiso   1.00
H538   H     0.05070   0.14461   0.91232   0.00000  Uiso   1.00
H539   H     0.08493   0.13336   0.55418   0.00000  Uiso   1.00
H540   H     0.02728   0.12837   0.50544   0.00000  Uiso   1.00
H541   H     0.22859   0.13104   0.86752   0.00000  Uiso   1.00
H542   H     0.22640   0.29674   0.78360   0.00000  Uiso   1.00
H543   H     0.22576   0.03828   0.78289   0.00000  Uiso   1.00
H544   H     0.10915   0.29386   0.71247   0.00000  Uiso   1.00
H545   H     0.27244   0.20639   0.81519   0.00000  Uiso   1.00
H546   H     0.02590   0.20613   0.81537   0.00000  Uiso   1.00
H547   H     0.06101   0.12767   0.68416   0.00000  Uiso   1.00
H548   H     0.30743   0.12725   0.68459   0.00000  Uiso   1.00
H549   H     0.28751   0.14703   0.91150   0.00000  Uiso   1.00
H550   H     0.30691   0.17152   0.98857   0.00000  Uiso   1.00
N551   N     0.04931   0.16666   0.74999   0.00000  Uiso   1.00
N552   N     0.28402   0.16669   0.75000   0.00000  Uiso   1.00
O553   O     0.12708   0.22678   0.75001   0.00000  Uiso   1.00
O554   O     0.20627   0.22679   0.75001   0.00000  Uiso   1.00
O555   O     0.10775   0.16665   0.82549   0.00000  Uiso   1.00
O556   O     0.18694   0.16666   0.82549   0.00000  Uiso   1.00
O557   O     0.12706   0.10654   0.75000   0.00000  Uiso   1.00
O558   O     0.20625   0.10655   0.75000   0.00000  Uiso   1.00
O559   O     0.14640   0.16667   0.67451   0.00000  Uiso   1.00
O560   O     0.22559   0.16668   0.67451   0.00000  Uiso   1.00
C561   C     0.50016   0.24590   0.74991   0.00000  Uiso   1.00
C562   C     0.46134   0.15034   0.90516   0.00000  Uiso   1.00
C563   C     0.53399   0.31242   0.76764   0.00000  Uiso   1.00
C564   C     0.47456   0.16158   0.84943   0.00000  Uiso   1.00
C565   C     0.53362   0.02170   0.76708   0.00000  Uiso   1.00
C566   C     0.50020   0.04262   0.74719   0.00000  Uiso   1.00
C567   C     0.46746   0.02024   0.72670   0.00000  Uiso   1.00
C568   C     0.46758   0.31096   0.72828   0.00000  Uiso   1.00
C569   C     0.50056   0.29039   0.74880   0.00000  Uiso   1.00
C570   C     0.63217   0.18867   0.78621   0.00000  Uiso   1.00
C571   C     0.34838   0.18855   0.78630   0.00000  Uiso   1.00
C572   C     0.48201   0.14580   0.98739   0.00000  Uiso   1.00
C573   C     0.36788   0.14494   0.71354   0.00000  Uiso   1.00
C574   C     0.65161   0.14481   0.71367   0.00000  Uiso   1.00
C575   C     0.50018   0.08735   0.74858   0.00000  Uiso   1.00
C576   C     0.52593   0.16673   0.65012   0.00000  Uiso   1.00
C577   C     0.60273   0.16615   0.51087   0.00000  Uiso   1.00
C578   C     0.54064   0.16479   0.59348   0.00000  Uiso   1.00
C579   C     0.41195   0.14404   0.93224   0.00000  Uiso   1.00
C580   C     0.39811   0.13594   0.98519   0.00000  Uiso   1.00
C581   C     0.43205   0.13855   0.51299   0.00000  Uiso   1.00
C582   C     0.49725   0.14608   0.93237   0.00000  Uiso   1.00
C583   C     0.51758   0.15236   0.51430   0.00000  Uiso   1.00
C584   C     0.56764   0.15594   0.98589   0.00000  Uiso   1.00
C585   C     0.58237   0.14820   0.93295   0.00000  Uiso   1.00
C586   C     0.54777   0.14143   0.90702   0.00000  Uiso   1.00
C587   C     0.50493   0.15718   0.56829   0.00000  Uiso   1.00
C588   C     0.58954   0.16993   0.56453   0.00000  Uiso   1.00
Cl589  Cl    0.42744   0.04334   0.69611   0.00000  Uiso   1.00
Cu590  Cu    0.45311   0.16666   0.75000   0.00000  Uiso   1.00
Cu591  Cu    0.54689   0.16667   0.75000   0.00000  Uiso   1.00
H592   H     0.61747   0.17693   0.58325   0.00000  Uiso   1.00
H593   H     0.46740   0.15544   0.59161   0.00000  Uiso   1.00
H594   H     0.38403   0.14461   0.91232   0.00000  Uiso   1.00
H595   H     0.41826   0.13336   0.55418   0.00000  Uiso   1.00
H596   H     0.36062   0.12837   0.50544   0.00000  Uiso   1.00
H597   H     0.56192   0.13104   0.86752   0.00000  Uiso   1.00
H598   H     0.55973   0.29674   0.78360   0.00000  Uiso   1.00
H599   H     0.55909   0.03828   0.78289   0.00000  Uiso   1.00
H600   H     0.44248   0.29386   0.71247   0.00000  Uiso   1.00
H601   H     0.60577   0.20639   0.81519   0.00000  Uiso   1.00
H602   H     0.35923   0.20613   0.81537   0.00000  Uiso   1.00
H603   H     0.39435   0.12767   0.68416   0.00000  Uiso   1.00
H604   H     0.64077   0.12725   0.68459   0.00000  Uiso   1.00
H605   H     0.62084   0.14703   0.91150   0.00000  Uiso   1.00
H606   H     0.64024   0.17152   0.98857   0.00000  Uiso   1.00
N607   N     0.38265   0.16666   0.74999   0.00000  Uiso   1.00
N608   N     0.61735   0.16669   0.75000   0.00000  Uiso   1.00
O609   O     0.46042   0.22678   0.75001   0.00000  Uiso   1.00
O610   O     0.53961   0.22679   0.75001   0.00000  Uiso   1.00
O611   O     0.44108   0.16665   0.82549   0.00000  Uiso   1.00
O612   O     0.52027   0.16666   0.82549   0.00000  Uiso   1.00
O613   O     0.46039   0.10654   0.75000   0.00000  Uiso   1.00
O614   O     0.53958   0.10655   0.75000   0.00000  Uiso   1.00
O615   O     0.47973   0.16667   0.67451   0.00000  Uiso   1.00
O616   O     0.55892   0.16668   0.67451   0.00000  Uiso   1.00
C617   C     0.83349   0.24590   0.74991   0.00000  Uiso   1.00
C618   C     0.79467   0.15034   0.90516   0.00000  Uiso   1.00
C619   C     0.86732   0.31242   0.76764   0.00000  Uiso   1.00
C620   C     0.80789   0.16158   0.84943   0.00000  Uiso   1.00
C621   C     0.86696   0.02170   0.76708   0.00000  Uiso   1.00
C622   C     0.83353   0.04262   0.74719   0.00000  Uiso   1.00
C623   C     0.80080   0.02024   0.72670   0.00000  Uiso   1.00
C624   C     0.80092   0.31096   0.72828   0.00000  Uiso   1.00
C625   C     0.83390   0.29039   0.74880   0.00000  Uiso   1.00
C626   C     0.96550   0.18867   0.78621   0.00000  Uiso   1.00
C627   C     0.68172   0.18855   0.78630   0.00000  Uiso   1.00
C628   C     0.81534   0.14580   0.98739   0.00000  Uiso   1.00
C629   C     0.70121   0.14494   0.71354   0.00000  Uiso   1.00
C630   C     0.98494   0.14481   0.71367   0.00000  Uiso   1.00
C631   C     0.83351   0.08735   0.74858   0.00000  Uiso   1.00
C632   C     0.85926   0.16673   0.65012   0.00000  Uiso   1.00
C633   C     0.93606   0.16615   0.51087   0.00000  Uiso   1.00
C634   C     0.87398   0.16479   0.59348   0.00000  Uiso   1.00
C635   C     0.74528   0.14404   0.93224   0.00000  Uiso   1.00
C636   C     0.73144   0.13594   0.98519   0.00000  Uiso   1.00
C637   C     0.76539   0.13855   0.51299   0.00000  Uiso   1.00
C638   C     0.83058   0.14608   0.93237   0.00000  Uiso   1.00
C639   C     0.85091   0.15236   0.51430   0.00000  Uiso   1.00
C640   C     0.90098   0.15594   0.98589   0.00000  Uiso   1.00
C641   C     0.91571   0.14820   0.93295   0.00000  Uiso   1.00
C642   C     0.88110   0.14143   0.90702   0.00000  Uiso   1.00
C643   C     0.83826   0.15718   0.56829   0.00000  Uiso   1.00
C644   C     0.92288   0.16993   0.56453   0.00000  Uiso   1.00
Cl645  Cl    0.76077   0.04334   0.69611   0.00000  Uiso   1.00
Cu646  Cu    0.78645   0.16666   0.75000   0.00000  Uiso   1.00
Cu647  Cu    0.88022   0.16667   0.75000   0.00000  Uiso   1.00
H648   H     0.95080   0.17693   0.58325   0.00000  Uiso   1.00
H649   H     0.80073   0.15544   0.59161   0.00000  Uiso   1.00
H650   H     0.71736   0.14461   0.91232   0.00000  Uiso   1.00
H651   H     0.75160   0.13336   0.55418   0.00000  Uiso   1.00
H652   H     0.69395   0.12837   0.50544   0.00000  Uiso   1.00
H653   H     0.89526   0.13104   0.86752   0.00000  Uiso   1.00
H654   H     0.89306   0.29674   0.78360   0.00000  Uiso   1.00
H655   H     0.89242   0.03828   0.78289   0.00000  Uiso   1.00
H656   H     0.77581   0.29386   0.71247   0.00000  Uiso   1.00
H657   H     0.93911   0.20639   0.81519   0.00000  Uiso   1.00
H658   H     0.69256   0.20613   0.81537   0.00000  Uiso   1.00
H659   H     0.72768   0.12767   0.68416   0.00000  Uiso   1.00
H660   H     0.97410   0.12725   0.68459   0.00000  Uiso   1.00
H661   H     0.95417   0.14703   0.91150   0.00000  Uiso   1.00
H662   H     0.97358   0.17152   0.98857   0.00000  Uiso   1.00
N663   N     0.71598   0.16666   0.74999   0.00000  Uiso   1.00
N664   N     0.95069   0.16669   0.75000   0.00000  Uiso   1.00
O665   O     0.79375   0.22678   0.75001   0.00000  Uiso   1.00
O666   O     0.87294   0.22679   0.75001   0.00000  Uiso   1.00
O667   O     0.77441   0.16665   0.82549   0.00000  Uiso   1.00
O668   O     0.85360   0.16666   0.82549   0.00000  Uiso   1.00
O669   O     0.79373   0.10654   0.75000   0.00000  Uiso   1.00
O670   O     0.87292   0.10655   0.75000   0.00000  Uiso   1.00
O671   O     0.81306   0.16667   0.67451   0.00000  Uiso   1.00
O672   O     0.89225   0.16668   0.67451   0.00000  Uiso   1.00
C673   C     0.16682   0.57923   0.74991   0.00000  Uiso   1.00
C674   C     0.12801   0.48368   0.90516   0.00000  Uiso   1.00
C675   C     0.20065   0.64575   0.76764   0.00000  Uiso   1.00
C676   C     0.14123   0.49492   0.84943   0.00000  Uiso   1.00
C677   C     0.20029   0.35503   0.76708   0.00000  Uiso   1.00
C678   C     0.16686   0.37595   0.74719   0.00000  Uiso   1.00
C679   C     0.13413   0.35358   0.72670   0.00000  Uiso   1.00
C680   C     0.13425   0.64429   0.72828   0.00000  Uiso   1.00
C681   C     0.16723   0.62372   0.74880   0.00000  Uiso   1.00
C682   C     0.29883   0.52200   0.78621   0.00000  Uiso   1.00
C683   C     0.01505   0.52188   0.78630   0.00000  Uiso   1.00
C684   C     0.14868   0.47913   0.98739   0.00000  Uiso   1.00
C685   C     0.03455   0.47827   0.71354   0.00000  Uiso   1.00
C686   C     0.31828   0.47815   0.71367   0.00000  Uiso   1.00
C687   C     0.16684   0.42068   0.74858   0.00000  Uiso   1.00
C688   C     0.19260   0.50006   0.65012   0.00000  Uiso   1.00
C689   C     0.26940   0.49948   0.51087   0.00000  Uiso   1.00
C690   C     0.20731   0.49812   0.59348   0.00000  Uiso   1.00
C691   C     0.07862   0.47737   0.93224   0.00000  Uiso   1.00
C692   C     0.06477   0.46927   0.98519   0.00000  Uiso   1.00
C693   C     0.09872   0.47188   0.51299   0.00000  Uiso   1.00
C694   C     0.16391   0.47941   0.93237   0.00000  Uiso   1.00
C695   C     0.18425   0.48569   0.51430   0.00000  Uiso   1.00
C696   C     0.23431   0.48927   0.98589   0.00000  Uiso   1.00
C697   C     0.24904   0.48154   0.93295   0.00000  Uiso   1.00
C698   C     0.21444   0.47476   0.90702   0.00000  Uiso   1.00
C699   C     0.17160   0.49051   0.56829   0.00000  Uiso   1.00
C700   C     0.25621   0.50327   0.56453   0.00000  Uiso   1.00
Cl701  Cl    0.09410   0.37667   0.69611   0.00000  Uiso   1.00
Cu702  Cu    0.11978   0.49999   0.75000   0.00000  Uiso   1.00
Cu703  Cu    0.21355   0.50001   0.75000   0.00000  Uiso   1.00
H704   H     0.28414   0.51026   0.58325   0.00000  Uiso   1.00
H705   H     0.13406   0.48878   0.59161   0.00000  Uiso   1.00
H706   H     0.05070   0.47794   0.91232   0.00000  Uiso   1.00
H707   H     0.08493   0.46669   0.55418   0.00000  Uiso   1.00
H708   H     0.02728   0.46171   0.50544   0.00000  Uiso   1.00
H709   H     0.22859   0.46437   0.86752   0.00000  Uiso   1.00
H710   H     0.22640   0.63007   0.78360   0.00000  Uiso   1.00
H711   H     0.22576   0.37161   0.78289   0.00000  Uiso   1.00
H712   H     0.10915   0.62719   0.71247   0.00000  Uiso   1.00
H713   H     0.27244   0.53972   0.81519   0.00000  Uiso   1.00
H714   H     0.02590   0.53946   0.81537   0.00000  Uiso   1.00
H715   H     0.06101   0.46100   0.68416   0.00000  Uiso   1.00
H716   H     0.30743   0.46058   0.68459   0.00000  Uiso   1.00
H717   H     0.28751   0.48036   0.91150   0.00000  Uiso   1.00
H718   H     0.30691   0.50485   0.98857   0.00000  Uiso   1.00
N719   N     0.04931   0.49999   0.74999   0.00000  Uiso   1.00
N720   N     0.28402   0.50002   0.75000   0.00000  Uiso   1.00
O721   O     0.12708   0.56011   0.75001   0.00000  Uiso   1.00
O722   O     0.20627   0.56012   0.75001   0.00000  Uiso   1.00
O723   O     0.10775   0.49998   0.82549   0.00000  Uiso   1.00
O724   O     0.18694   0.49999   0.82549   0.00000  Uiso   1.00
O725   O     0.12706   0.43988   0.75000   0.00000  Uiso   1.00
O726   O     0.20625   0.43989   0.75000   0.00000  Uiso   1.00
O727   O     0.14640   0.50001   0.67451   0.00000  Uiso   1.00
O728   O     0.22559   0.50002   0.67451   0.00000  Uiso   1.00
C729   C     0.50016   0.57923   0.74991   0.00000  Uiso   1.00
C730   C     0.46134   0.48368   0.90516   0.00000  Uiso   1.00
C731   C     0.53399   0.64575   0.76764   0.00000  Uiso   1.00
C732   C     0.47456   0.49492   0.84943   0.00000  Uiso   1.00
C733   C     0.53362   0.35503   0.76708   0.00000  Uiso   1.00
C734   C     0.50020   0.37595   0.74719   0.00000  Uiso   1.00
C735   C     0.46746   0.35358   0.72670   0.00000  Uiso   1.00
C736   C     0.46758   0.64429   0.72828   0.00000  Uiso   1.00
C737   C     0.50056   0.62372   0.74880   0.00000  Uiso   1.00
C738   C     0.63217   0.52200   0.78621   0.00000  Uiso   1.00
C739   C     0.34838   0.52188   0.78630   0.00000  Uiso   1.00
C740   C     0.48201   0.47913   0.98739   0.00000  Uiso   1.00
C741   C     0.36788   0.47827   0.71354   0.00000  Uiso   1.00
C742   C     0.65161   0.47815   0.71367   0.00000  Uiso   1.00
C743   C     0.50018   0.42068   0.74858   0.00000  Uiso   1.00
C744   C     0.52593   0.50006   0.65012   0.00000  Uiso   1.00
C745   C     0.60273   0.49948   0.51087   0.00000  Uiso   1.00
C746   C     0.54064   0.49812   0.59348   0.00000  Uiso   1.00
C747   C     0.41195   0.47737   0.93224   0.00000  Uiso   1.00
C748   C     0.39811   0.46927   0.98519   0.00000  Uiso   1.00
C749   C     0.43205   0.47188   0.51299   0.00000  Uiso   1.00
C750   C     0.49725   0.47941   0.93237   0.00000  Uiso   1.00
C751   C     0.51758   0.48569   0.51430   0.00000  Uiso   1.00
C752   C     0.56764   0.48927   0.98589   0.00000  Uiso   1.00
C753   C     0.58237   0.48154   0.93295   0.00000  Uiso   1.00
C754   C     0.54777   0.47476   0.90702   0.00000  Uiso   1.00
C755   C     0.50493   0.49051   0.56829   0.00000  Uiso   1.00
C756   C     0.58954   0.50327   0.56453   0.00000  Uiso   1.00
Cl757  Cl    0.42744   0.37667   0.69611   0.00000  Uiso   1.00
Cu758  Cu    0.45311   0.49999   0.75000   0.00000  Uiso   1.00
Cu759  Cu    0.54689   0.50001   0.75000   0.00000  Uiso   1.00
H760   H     0.61747   0.51026   0.58325   0.00000  Uiso   1.00
H761   H     0.46740   0.48878   0.59161   0.00000  Uiso   1.00
H762   H     0.38403   0.47794   0.91232   0.00000  Uiso   1.00
H763   H     0.41826   0.46669   0.55418   0.00000  Uiso   1.00
H764   H     0.36062   0.46171   0.50544   0.00000  Uiso   1.00
H765   H     0.56192   0.46437   0.86752   0.00000  Uiso   1.00
H766   H     0.55973   0.63007   0.78360   0.00000  Uiso   1.00
H767   H     0.55909   0.37161   0.78289   0.00000  Uiso   1.00
H768   H     0.44248   0.62719   0.71247   0.00000  Uiso   1.00
H769   H     0.60577   0.53972   0.81519   0.00000  Uiso   1.00
H770   H     0.35923   0.53946   0.81537   0.00000  Uiso   1.00
H771   H     0.39435   0.46100   0.68416   0.00000  Uiso   1.00
H772   H     0.64077   0.46058   0.68459   0.00000  Uiso   1.00
H773   H     0.62084   0.48036   0.91150   0.00000  Uiso   1.00
H774   H     0.64024   0.50485   0.98857   0.00000  Uiso   1.00
N775   N     0.38265   0.49999   0.74999   0.00000  Uiso   1.00
N776   N     0.61735   0.50002   0.75000   0.00000  Uiso   1.00
O777   O     0.46042   0.56011   0.75001   0.00000  Uiso   1.00
O778   O     0.53961   0.56012   0.75001   0.00000  Uiso   1.00
O779   O     0.44108   0.49998   0.82549   0.00000  Uiso   1.00
O780   O     0.52027   0.49999   0.82549   0.00000  Uiso   1.00
O781   O     0.46039   0.43988   0.75000   0.00000  Uiso   1.00
O782   O     0.53958   0.43989   0.75000   0.00000  Uiso   1.00
O783   O     0.47973   0.50001   0.67451   0.00000  Uiso   1.00
O784   O     0.55892   0.50002   0.67451   0.00000  Uiso   1.00
C785   C     0.83349   0.57923   0.74991   0.00000  Uiso   1.00
C786   C     0.79467   0.48368   0.90516   0.00000  Uiso   1.00
C787   C     0.86732   0.64575   0.76764   0.00000  Uiso   1.00
C788   C     0.80789   0.49492   0.84943   0.00000  Uiso   1.00
C789   C     0.86696   0.35503   0.76708   0.00000  Uiso   1.00
C790   C     0.83353   0.37595   0.74719   0.00000  Uiso   1.00
C791   C     0.80080   0.35358   0.72670   0.00000  Uiso   1.00
C792   C     0.80092   0.64429   0.72828   0.00000  Uiso   1.00
C793   C     0.83390   0.62372   0.74880   0.00000  Uiso   1.00
C794   C     0.96550   0.52200   0.78621   0.00000  Uiso   1.00
C795   C     0.68172   0.52188   0.78630   0.00000  Uiso   1.00
C796   C     0.81534   0.47913   0.98739   0.00000  Uiso   1.00
C797   C     0.70121   0.47827   0.71354   0.00000  Uiso   1.00
C798   C     0.98494   0.47815   0.71367   0.00000  Uiso   1.00
C799   C     0.83351   0.42068   0.74858   0.00000  Uiso   1.00
C800   C     0.85926   0.50006   0.65012   0.00000  Uiso   1.00
C801   C     0.93606   0.49948   0.51087   0.00000  Uiso   1.00
C802   C     0.87398   0.49812   0.59348   0.00000  Uiso   1.00
C803   C     0.74528   0.47737   0.93224   0.00000  Uiso   1.00
C804   C     0.73144   0.46927   0.98519   0.00000  Uiso   1.00
C805   C     0.76539   0.47188   0.51299   0.00000  Uiso   1.00
C806   C     0.83058   0.47941   0.93237   0.00000  Uiso   1.00
C807   C     0.85091   0.48569   0.51430   0.00000  Uiso   1.00
C808   C     0.90098   0.48927   0.98589   0.00000  Uiso   1.00
C809   C     0.91571   0.48154   0.93295   0.00000  Uiso   1.00
C810   C     0.88110   0.47476   0.90702   0.00000  Uiso   1.00
C811   C     0.83826   0.49051   0.56829   0.00000  Uiso   1.00
C812   C     0.92288   0.50327   0.56453   0.00000  Uiso   1.00
Cl813  Cl    0.76077   0.37667   0.69611   0.00000  Uiso   1.00
Cu814  Cu    0.78645   0.49999   0.75000   0.00000  Uiso   1.00
Cu815  Cu    0.88022   0.50001   0.75000   0.00000  Uiso   1.00
H816   H     0.95080   0.51026   0.58325   0.00000  Uiso   1.00
H817   H     0.80073   0.48878   0.59161   0.00000  Uiso   1.00
H818   H     0.71736   0.47794   0.91232   0.00000  Uiso   1.00
H819   H     0.75160   0.46669   0.55418   0.00000  Uiso   1.00
H820   H     0.69395   0.46171   0.50544   0.00000  Uiso   1.00
H821   H     0.89526   0.46437   0.86752   0.00000  Uiso   1.00
H822   H     0.89306   0.63007   0.78360   0.00000  Uiso   1.00
H823   H     0.89242   0.37161   0.78289   0.00000  Uiso   1.00
H824   H     0.77581   0.62719   0.71247   0.00000  Uiso   1.00
H825   H     0.93911   0.53972   0.81519   0.00000  Uiso   1.00
H826   H     0.69256   0.53946   0.81537   0.00000  Uiso   1.00
H827   H     0.72768   0.46100   0.68416   0.00000  Uiso   1.00
H828   H     0.97410   0.46058   0.68459   0.00000  Uiso   1.00
H829   H     0.95417   0.48036   0.91150   0.00000  Uiso   1.00
H830   H     0.97358   0.50485   0.98857   0.00000  Uiso   1.00
N831   N     0.71598   0.49999   0.74999   0.00000  Uiso   1.00
N832   N     0.95069   0.50002   0.75000   0.00000  Uiso   1.00
O833   O     0.79375   0.56011   0.75001   0.00000  Uiso   1.00
O834   O     0.87294   0.56012   0.75001   0.00000  Uiso   1.00
O835   O     0.77441   0.49998   0.82549   0.00000  Uiso   1.00
O836   O     0.85360   0.49999   0.82549   0.00000  Uiso   1.00
O837   O     0.79373   0.43988   0.75000   0.00000  Uiso   1.00
O838   O     0.87292   0.43989   0.75000   0.00000  Uiso   1.00
O839   O     0.81306   0.50001   0.67451   0.00000  Uiso   1.00
O840   O     0.89225   0.50002   0.67451   0.00000  Uiso   1.00
C841   C     0.16682   0.91256   0.74991   0.00000  Uiso   1.00
C842   C     0.12801   0.81701   0.90516   0.00000  Uiso   1.00
C843   C     0.20065   0.97909   0.76764   0.00000  Uiso   1.00
C844   C     0.14123   0.82825   0.84943   0.00000  Uiso   1.00
C845   C     0.20029   0.68836   0.76708   0.00000  Uiso   1.00
C846   C     0.16686   0.70929   0.74719   0.00000  Uiso   1.00
C847   C     0.13413   0.68691   0.72670   0.00000  Uiso   1.00
C848   C     0.13425   0.97762   0.72828   0.00000  Uiso   1.00
C849   C     0.16723   0.95705   0.74880   0.00000  Uiso   1.00
C850   C     0.29883   0.85534   0.78621   0.00000  Uiso   1.00
C851   C     0.01505   0.85521   0.78630   0.00000  Uiso   1.00
C852   C     0.14868   0.81247   0.98739   0.00000  Uiso   1.00
C853   C     0.03455   0.81161   0.71354   0.00000  Uiso   1.00
C854   C     0.31828   0.81148   0.71367   0.00000  Uiso   1.00
C855   C     0.16684   0.75402   0.74858   0.00000  Uiso   1.00
C856   C     0.19260   0.83339   0.65012   0.00000  Uiso   1.00
C857   C     0.26940   0.83281   0.51087   0.00000  Uiso   1.00
C858   C     0.20731   0.83146   0.59348   0.00000  Uiso   1.00
C859   C     0.07862   0.81071   0.93224   0.00000  Uiso   1.00
C860   C     0.06477   0.80261   0.98519   0.00000  Uiso   1.00
C861   C     0.09872   0.80521   0.51299   0.00000  Uiso   1.00
C862   C     0.16391   0.81274   0.93237   0.00000  Uiso   1.00
C863   C     0.18425   0.81903   0.51430   0.00000  Uiso   1.00
C864   C     0.23431   0.82261   0.98589   0.00000  Uiso   1.00
C865   C     0.24904   0.81487   0.93295   0.00000  Uiso   1.00
C866   C     0.21444   0.80810   0.90702   0.00000  Uiso   1.00
C867   C     0.17160   0.82384   0.56829   0.00000  Uiso   1.00
C868   C     0.25621   0.83660   0.56453   0.00000  Uiso   1.00
Cl869  Cl    0.09410   0.71000   0.69611   0.00000  Uiso   1.00
Cu870  Cu    0.11978   0.83333   0.75000   0.00000  Uiso   1.00
Cu871  Cu    0.21355   0.83334   0.75000   0.00000  Uiso   1.00
H872   H     0.28414   0.84360   0.58325   0.00000  Uiso   1.00
H873   H     0.13406   0.82211   0.59161   0.00000  Uiso   1.00
H874   H     0.05070   0.81127   0.91232   0.00000  Uiso   1.00
H875   H     0.08493   0.80002   0.55418   0.00000  Uiso   1.00
H876   H     0.02728   0.79504   0.50544   0.00000  Uiso   1.00
H877   H     0.22859   0.79771   0.86752   0.00000  Uiso   1.00
H878   H     0.22640   0.96341   0.78360   0.00000  Uiso   1.00
H879   H     0.22576   0.70495   0.78289   0.00000  Uiso   1.00
H880   H     0.10915   0.96053   0.71247   0.00000  Uiso   1.00
H881   H     0.27244   0.87305   0.81519   0.00000  Uiso   1.00
H882   H     0.02590   0.87279   0.81537   0.00000  Uiso   1.00
H883   H     0.06101   0.79434   0.68416   0.00000  Uiso   1.00
H884   H     0.30743   0.79391   0.68459   0.00000  Uiso   1.00
H885   H     0.28751   0.81370   0.91150   0.00000  Uiso   1.00
H886   H     0.30691   0.83819   0.98857   0.00000  Uiso   1.00
N887   N     0.04931   0.83332   0.74999   0.00000  Uiso   1.00
N888   N     0.28402   0.83335   0.75000   0.00000  Uiso   1.00
O889   O     0.12708   0.89345   0.75001   0.00000  Uiso   1.00
O890   O     0.20627   0.89346   0.75001   0.00000  Uiso   1.00
O891   O     0.10775   0.83332   0.82549   0.00000  Uiso   1.00
O892   O     0.18694   0.83333   0.82549   0.00000  Uiso   1.00
O893   O     0.12706   0.77321   0.75000   0.00000  Uiso   1.00
O894   O     0.20625   0.77322   0.75000   0.00000  Uiso   1.00
O895   O     0.14640   0.83334   0.67451   0.00000  Uiso   1.00
O896   O     0.22559   0.83335   0.67451   0.00000  Uiso   1.00
C897   C     0.50016   0.91256   0.74991   0.00000  Uiso   1.00
C898   C     0.46134   0.81701   0.90516   0.00000  Uiso   1.00
C899   C     0.53399   0.97909   0.76764   0.00000  Uiso   1.00
C900   C     0.47456   0.82825   0.84943   0.00000  Uiso   1.00
C901   C     0.53362   0.68836   0.76708   0.00000  Uiso   1.00
C902   C     0.50020   0.70929   0.74719   0.00000  Uiso   1.00
C903   C     0.46746   0.68691   0.72670   0.00000  Uiso   1.00
C904   C     0.46758   0.97762   0.72828   0.00000  Uiso   1.00
C905   C     0.50056   0.95705   0.74880   0.00000  Uiso   1.00
C906   C     0.63217   0.85534   0.78621   0.00000  Uiso   1.00
C907   C     0.34838   0.85521   0.78630   0.00000  Uiso   1.00
C908   C     0.48201   0.81247   0.98739   0.00000  Uiso   1.00
C909   C     0.36788   0.81161   0.71354   0.00000  Uiso   1.00
C910   C     0.65161   0.81148   0.71367   0.00000  Uiso   1.00
C911   C     0.50018   0.75402   0.74858   0.00000  Uiso   1.00
C912   C     0.52593   0.83339   0.65012   0.00000  Uiso   1.00
C913   C     0.60273   0.83281   0.51087   0.00000  Uiso   1.00
C914   C     0.54064   0.83146   0.59348   0.00000  Uiso   1.00
C915   C     0.41195   0.81071   0.93224   0.00000  Uiso   1.00
C916   C     0.39811   0.80261   0.98519   0.00000  Uiso   1.00
C917   C     0.43205   0.80521   0.51299   0.00000  Uiso   1.00
C918   C     0.49725   0.81274   0.93237   0.00000  Uiso   1.00
C919   C     0.51758   0.81903   0.51430   0.00000  Uiso   1.00
C920   C     0.56764   0.82261   0.98589   0.00000  Uiso   1.00
C921   C     0.58237   0.81487   0.93295   0.00000  Uiso   1.00
C922   C     0.54777   0.80810   0.90702   0.00000  Uiso   1.00
C923   C     0.50493   0.82384   0.56829   0.00000  Uiso   1.00
C924   C     0.58954   0.83660   0.56453   0.00000  Uiso   1.00
Cl925  Cl    0.42744   0.71000   0.69611   0.00000  Uiso   1.00
Cu926  Cu    0.45311   0.83333   0.75000   0.00000  Uiso   1.00
Cu927  Cu    0.54689   0.83334   0.75000   0.00000  Uiso   1.00
H928   H     0.61747   0.84360   0.58325   0.00000  Uiso   1.00
H929   H     0.46740   0.82211   0.59161   0.00000  Uiso   1.00
H930   H     0.38403   0.81127   0.91232   0.00000  Uiso   1.00
H931   H     0.41826   0.80002   0.55418   0.00000  Uiso   1.00
H932   H     0.36062   0.79504   0.50544   0.00000  Uiso   1.00
H933   H     0.56192   0.79771   0.86752   0.00000  Uiso   1.00
H934   H     0.55973   0.96341   0.78360   0.00000  Uiso   1.00
H935   H     0.55909   0.70495   0.78289   0.00000  Uiso   1.00
H936   H     0.44248   0.96053   0.71247   0.00000  Uiso   1.00
H937   H     0.60577   0.87305   0.81519   0.00000  Uiso   1.00
H938   H     0.35923   0.87279   0.81537   0.00000  Uiso   1.00
H939   H     0.39435   0.79434   0.68416   0.00000  Uiso   1.00
H940   H     0.64077   0.79391   0.68459   0.00000  Uiso   1.00
H941   H     0.62084   0.81370   0.91150   0.00000  Uiso   1.00
H942   H     0.64024   0.83819   0.98857   0.00000  Uiso   1.00
N943   N     0.38265   0.83332   0.74999   0.00000  Uiso   1.00
N944   N     0.61735   0.83335   0.75000   0.00000  Uiso   1.00
O945   O     0.46042   0.89345   0.75001   0.00000  Uiso   1.00
O946   O     0.53961   0.89346   0.75001   0.00000  Uiso   1.00
O947   O     0.44108   0.83332   0.82549   0.00000  Uiso   1.00
O948   O     0.52027   0.83333   0.82549   0.00000  Uiso   1.00
O949   O     0.46039   0.77321   0.75000   0.00000  Uiso   1.00
O950   O     0.53958   0.77322   0.75000   0.00000  Uiso   1.00
O951   O     0.47973   0.83334   0.67451   0.00000  Uiso   1.00
O952   O     0.55892   0.83335   0.67451   0.00000  Uiso   1.00
C953   C     0.83349   0.91256   0.74991   0.00000  Uiso   1.00
C954   C     0.79467   0.81701   0.90516   0.00000  Uiso   1.00
C955   C     0.86732   0.97909   0.76764   0.00000  Uiso   1.00
C956   C     0.80789   0.82825   0.84943   0.00000  Uiso   1.00
C957   C     0.86696   0.68836   0.76708   0.00000  Uiso   1.00
C958   C     0.83353   0.70929   0.74719   0.00000  Uiso   1.00
C959   C     0.80080   0.68691   0.72670   0.00000  Uiso   1.00
C960   C     0.80092   0.97762   0.72828   0.00000  Uiso   1.00
C961   C     0.83390   0.95705   0.74880   0.00000  Uiso   1.00
C962   C     0.96550   0.85534   0.78621   0.00000  Uiso   1.00
C963   C     0.68172   0.85521   0.78630   0.00000  Uiso   1.00
C964   C     0.81534   0.81247   0.98739   0.00000  Uiso   1.00
C965   C     0.70121   0.81161   0.71354   0.00000  Uiso   1.00
C966   C     0.98494   0.81148   0.71367   0.00000  Uiso   1.00
C967   C     0.83351   0.75402   0.74858   0.00000  Uiso   1.00
C968   C     0.85926   0.83339   0.65012   0.00000  Uiso   1.00
C969   C     0.93606   0.83281   0.51087   0.00000  Uiso   1.00
C970   C     0.87398   0.83146   0.59348   0.00000  Uiso   1.00
C971   C     0.74528   0.81071   0.93224   0.00000  Uiso   1.00
C972   C     0.73144   0.80261   0.98519   0.00000  Uiso   1.00
C973   C     0.76539   0.80521   0.51299   0.00000  Uiso   1.00
C974   C     0.83058   0.81274   0.93237   0.00000  Uiso   1.00
C975   C     0.85091   0.81903   0.51430   0.00000  Uiso   1.00
C976   C     0.90098   0.82261   0.98589   0.00000  Uiso   1.00
C977   C     0.91571   0.81487   0.93295   0.00000  Uiso   1.00
C978   C     0.88110   0.80810   0.90702   0.00000  Uiso   1.00
C979   C     0.83826   0.82384   0.56829   0.00000  Uiso   1.00
C980   C     0.92288   0.83660   0.56453   0.00000  Uiso   1.00
Cl981  Cl    0.76077   0.71000   0.69611   0.00000  Uiso   1.00
Cu982  Cu    0.78645   0.83333   0.75000   0.00000  Uiso   1.00
Cu983  Cu    0.88022   0.83334   0.75000   0.00000  Uiso   1.00
H984   H     0.95080   0.84360   0.58325   0.00000  Uiso   1.00
H985   H     0.80073   0.82211   0.59161   0.00000  Uiso   1.00
H986   H     0.71736   0.81127   0.91232   0.00000  Uiso   1.00
H987   H     0.75160   0.80002   0.55418   0.00000  Uiso   1.00
H988   H     0.69395   0.79504   0.50544   0.00000  Uiso   1.00
H989   H     0.89526   0.79771   0.86752   0.00000  Uiso   1.00
H990   H     0.89306   0.96341   0.78360   0.00000  Uiso   1.00
H991   H     0.89242   0.70495   0.78289   0.00000  Uiso   1.00
H992   H     0.77581   0.96053   0.71247   0.00000  Uiso   1.00
H993   H     0.93911   0.87305   0.81519   0.00000  Uiso   1.00
H994   H     0.69256   0.87279   0.81537   0.00000  Uiso   1.00
H995   H     0.72768   0.79434   0.68416   0.00000  Uiso   1.00
H996   H     0.97410   0.79391   0.68459   0.00000  Uiso   1.00
H997   H     0.95417   0.81370   0.91150   0.00000  Uiso   1.00
H998   H     0.97358   0.83819   0.98857   0.00000  Uiso   1.00
N999   N     0.71598   0.83332   0.74999   0.00000  Uiso   1.00
N1000  N     0.95069   0.83335   0.75000   0.00000  Uiso   1.00
O1001  O     0.79375   0.89345   0.75001   0.00000  Uiso   1.00
O1002  O     0.87294   0.89346   0.75001   0.00000  Uiso   1.00
O1003  O     0.77441   0.83332   0.82549   0.00000  Uiso   1.00
O1004  O     0.85360   0.83333   0.82549   0.00000  Uiso   1.00
O1005  O     0.79373   0.77321   0.75000   0.00000  Uiso   1.00
O1006  O     0.87292   0.77322   0.75000   0.00000  Uiso   1.00
O1007  O     0.81306   0.83334   0.67451   0.00000  Uiso   1.00
O1008  O     0.89225   0.83335   0.67451   0.00000  Uiso   1.00
loop_
_geom_bond_atom_site_label_1
_geom_bond_atom_site_label_2
_geom_bond_distance
_geom_bond_site_symmetry_2
_ccdc_geom_bond_type
C1     O50     1.291   .     A
C1     C9      1.445   .     S
C1     O49     1.291   .     A
C2     C22     1.431   .     A
C2     C4      1.484   .     S
C2     C19     1.403   .     A
C3     C9      1.397   .     A
C3     H38     1.084   .     S
C3     C173    1.384   .     S
C4     O52     1.288   .     A
C4     O51     1.311   .     A
C5     C6      1.403   .     A
C5     H39     1.084   .     S
C5     C339    1.384   1_545 S
C6     C7      1.413   .     A
C6     C15     1.453   .     S
C7     Cl29    1.763   .     S
C7     C344    1.385   1_545 S
C8     H40     1.084   .     S
C8     C9      1.397   .     A
C8     C175    1.385   .     S
C10    H41     1.082   .     S
C10    N48     1.368   .     A
C10    C67     1.417   .     S
C11    N47     1.367   .     A
C11    H42     1.082   .     S
C11    C122    1.417   1_455 S
C12    C22     1.418   .     A
C12    C525    1.413   .     S
C12    C527    1.424   .     S
C13    H43     1.081   .     S
C13    N47     1.368   .     A
C13    C126    1.417   1_455 S
C14    H44     1.082   .     S
C14    N48     1.367   .     A
C14    C69     1.417   .     S
C15    O53     1.291   .     A
C15    O54     1.294   .     A
C16    O56     1.296   .     A
C16    O55     1.293   .     A
C16    C18     1.461   .     S
C17    C28     1.389   .     A
C17    C528    1.398   1_554 S
C17    H550    1.080   1_554 S
C18    C28     1.399   .     A
C18    C27     1.400   .     A
C19    C20     1.391   .     A
C19    H34     1.083   .     S
C20    C525    1.389   .     S
C20    H540    1.079   .     S
C21    H35     1.078   .     S
C21    C524    1.389   1_554 S
C21    C516    1.413   1_554 S
C22    C26     1.416   .     A
C23    C27     1.401   .     A
C23    C516    1.424   1_554 S
C23    C528    1.418   1_554 S
C24    C25     1.387   .     A
C24    C521    1.398   .     S
C24    C527    1.418   .     S
C25    C26     1.382   .     A
C25    H45     1.085   .     S
C26    H37     1.076   .     S
C27    H33     1.076   .     S
C28    H32     1.083   .     S
Cu30   O51     1.961   .     S
Cu30   O49     1.962   .     S
Cu30   Cu31    2.680   .     S
Cu30   O53     1.965   .     S
Cu30   N47     2.014   .     S
Cu30   O55     1.953   .     S
Cu31   O56     1.961   .     S
Cu31   O52     1.953   .     S
Cu31   N48     2.014   .     S
Cu31   O54     1.962   .     S
Cu31   O50     1.965   .     S
H36    C524    1.079   1_554 S
H46    C521    1.080   .     S
C57    O106    1.291   .     A
C57    C65     1.445   .     S
C57    O105    1.291   .     A
C58    C78     1.431   .     A
C58    C60     1.484   .     S
C58    C75     1.403   .     A
C59    C65     1.397   .     A
C59    H94     1.084   .     S
C59    C229    1.384   .     S
C60    O108    1.288   .     A
C60    O107    1.311   .     A
C61    C62     1.403   .     A
C61    H95     1.084   .     S
C61    C395    1.384   1_545 S
C62    C63     1.413   .     A
C62    C71     1.453   .     S
C63    Cl85    1.763   .     S
C63    C400    1.385   1_545 S
C64    H96     1.084   .     S
C64    C65     1.397   .     A
C64    C231    1.385   .     S
C66    H97     1.082   .     S
C66    N104    1.368   .     A
C66    C123    1.417   .     S
C67    N103    1.367   .     A
C67    H98     1.082   .     S
C68    C78     1.418   .     A
C68    C581    1.413   .     S
C68    C583    1.424   .     S
C69    H99     1.081   .     S
C69    N103    1.368   .     A
C70    H100    1.082   .     S
C70    N104    1.367   .     A
C70    C125    1.417   .     S
C71    O109    1.291   .     A
C71    O110    1.294   .     A
C72    O112    1.296   .     A
C72    O111    1.293   .     A
C72    C74     1.461   .     S
C73    C84     1.389   .     A
C73    C584    1.398   1_554 S
C73    H606    1.080   1_554 S
C74    C84     1.399   .     A
C74    C83     1.400   .     A
C75    C76     1.391   .     A
C75    H90     1.083   .     S
C76    C581    1.389   .     S
C76    H596    1.079   .     S
C77    H91     1.078   .     S
C77    C580    1.389   1_554 S
C77    C572    1.413   1_554 S
C78    C82     1.416   .     A
C79    C83     1.401   .     A
C79    C572    1.424   1_554 S
C79    C584    1.418   1_554 S
C80    C81     1.387   .     A
C80    C577    1.398   .     S
C80    C583    1.418   .     S
C81    C82     1.382   .     A
C81    H101    1.085   .     S
C82    H93     1.076   .     S
C83    H89     1.076   .     S
C84    H88     1.083   .     S
Cu86   O107    1.961   .     S
Cu86   O105    1.962   .     S
Cu86   Cu87    2.680   .     S
Cu86   O109    1.965   .     S
Cu86   N103    2.014   .     S
Cu86   O111    1.953   .     S
Cu87   O112    1.961   .     S
Cu87   O108    1.953   .     S
Cu87   N104    2.014   .     S
Cu87   O110    1.962   .     S
Cu87   O106    1.965   .     S
H92    C580    1.079   1_554 S
H102   C577    1.080   .     S
C113   O162    1.291   .     A
C113   C121    1.445   .     S
C113   O161    1.291   .     A
C114   C134    1.431   .     A
C114   C116    1.484   .     S
C114   C131    1.403   .     A
C115   C121    1.397   .     A
C115   H150    1.084   .     S
C115   C285    1.384   .     S
C116   O164    1.288   .     A
C116   O163    1.311   .     A
C117   C118    1.403   .     A
C117   H151    1.084   .     S
C117   C451    1.384   1_545 S
C118   C119    1.413   .     A
C118   C127    1.453   .     S
C119   Cl141   1.763   .     S
C119   C456    1.385   1_545 S
C120   H152    1.084   .     S
C120   C121    1.397   .     A
C120   C287    1.385   .     S
C122   H153    1.082   .     S
C122   N160    1.368   .     A
C122   C11     1.417   1_655 S
C123   N159    1.367   .     A
C123   H154    1.082   .     S
C124   C134    1.418   .     A
C124   C637    1.413   .     S
C124   C639    1.424   .     S
C125   H155    1.081   .     S
C125   N159    1.368   .     A
C126   H156    1.082   .     S
C126   N160    1.367   .     A
C126   C13     1.417   1_655 S
C127   O165    1.291   .     A
C127   O166    1.294   .     A
C128   O168    1.296   .     A
C128   O167    1.293   .     A
C128   C130    1.461   .     S
C129   C140    1.389   .     A
C129   C640    1.398   1_554 S
C129   H662    1.080   1_554 S
C130   C140    1.399   .     A
C130   C139    1.400   .     A
C131   C132    1.391   .     A
C131   H146    1.083   .     S
C132   C637    1.389   .     S
C132   H652    1.079   .     S
C133   H147    1.078   .     S
C133   C636    1.389   1_554 S
C133   C628    1.413   1_554 S
C134   C138    1.416   .     A
C135   C139    1.401   .     A
C135   C628    1.424   1_554 S
C135   C640    1.418   1_554 S
C136   C137    1.387   .     A
C136   C633    1.398   .     S
C136   C639    1.418   .     S
C137   C138    1.382   .     A
C137   H157    1.085   .     S
C138   H149    1.076   .     S
C139   H145    1.076   .     S
C140   H144    1.083   .     S
Cu142  O163    1.961   .     S
Cu142  O161    1.962   .     S
Cu142  Cu143   2.680   .     S
Cu142  O165    1.965   .     S
Cu142  N159    2.014   .     S
Cu142  O167    1.953   .     S
Cu143  O168    1.961   .     S
Cu143  O164    1.953   .     S
Cu143  N160    2.014   .     S
Cu143  O166    1.962   .     S
Cu143  O162    1.965   .     S
H148   C636    1.079   1_554 S
H158   C633    1.080   .     S
C169   O218    1.291   .     A
C169   C177    1.445   .     S
C169   O217    1.291   .     A
C170   C190    1.431   .     A
C170   C172    1.484   .     S
C170   C187    1.403   .     A
C171   C177    1.397   .     A
C171   H206    1.084   .     S
C171   C341    1.384   .     S
C172   O220    1.288   .     A
C172   O219    1.311   .     A
C173   C174    1.403   .     A
C173   H207    1.084   .     S
C174   C175    1.413   .     A
C174   C183    1.453   .     S
C175   Cl197   1.763   .     S
C176   H208    1.084   .     S
C176   C177    1.397   .     A
C176   C343    1.385   .     S
C178   H209    1.082   .     S
C178   N216    1.368   .     A
C178   C235    1.417   .     S
C179   N215    1.367   .     A
C179   H210    1.082   .     S
C179   C290    1.417   1_455 S
C180   C190    1.418   .     A
C180   C693    1.413   .     S
C180   C695    1.424   .     S
C181   H211    1.081   .     S
C181   N215    1.368   .     A
C181   C294    1.417   1_455 S
C182   H212    1.082   .     S
C182   N216    1.367   .     A
C182   C237    1.417   .     S
C183   O221    1.291   .     A
C183   O222    1.294   .     A
C184   O224    1.296   .     A
C184   O223    1.293   .     A
C184   C186    1.461   .     S
C185   C196    1.389   .     A
C185   C696    1.398   1_554 S
C185   H718    1.080   1_554 S
C186   C196    1.399   .     A
C186   C195    1.400   .     A
C187   C188    1.391   .     A
C187   H202    1.083   .     S
C188   C693    1.389   .     S
C188   H708    1.079   .     S
C189   H203    1.078   .     S
C189   C692    1.389   1_554 S
C189   C684    1.413   1_554 S
C190   C194    1.416   .     A
C191   C195    1.401   .     A
C191   C684    1.424   1_554 S
C191   C696    1.418   1_554 S
C192   C193    1.387   .     A
C192   C689    1.398   .     S
C192   C695    1.418   .     S
C193   C194    1.382   .     A
C193   H213    1.085   .     S
C194   H205    1.076   .     S
C195   H201    1.076   .     S
C196   H200    1.083   .     S
Cu198  O219    1.961   .     S
Cu198  O217    1.962   .     S
Cu198  Cu199   2.680   .     S
Cu198  O221    1.965   .     S
Cu198  N215    2.014   .     S
Cu198  O223    1.953   .     S
Cu199  O224    1.961   .     S
Cu199  O220    1.953   .     S
Cu199  N216    2.014   .     S
Cu199  O222    1.962   .     S
Cu199  O218    1.965   .     S
H204   C692    1.079   1_554 S
H214   C689    1.080   .     S
C225   O274    1.291   .     A
C225   C233    1.445   .     S
C225   O273    1.291   .     A
C226   C246    1.431   .     A
C226   C228    1.484   .     S
C226   C243    1.403   .     A
C227   C233    1.397   .     A
C227   H262    1.084   .     S
C227   C397    1.384   .     S
C228   O276    1.288   .     A
C228   O275    1.311   .     A
C229   C230    1.403   .     A
C229   H263    1.084   .     S
C230   C231    1.413   .     A
C230   C239    1.453   .     S
C231   Cl253   1.763   .     S
C232   H264    1.084   .     S
C232   C233    1.397   .     A
C232   C399    1.385   .     S
C234   H265    1.082   .     S
C234   N272    1.368   .     A
C234   C291    1.417   .     S
C235   N271    1.367   .     A
C235   H266    1.082   .     S
C236   C246    1.418   .     A
C236   C749    1.413   .     S
C236   C751    1.424   .     S
C237   H267    1.081   .     S
C237   N271    1.368   .     A
C238   H268    1.082   .     S
C238   N272    1.367   .     A
C238   C293    1.417   .     S
C239   O277    1.291   .     A
C239   O278    1.294   .     A
C240   O280    1.296   .     A
C240   O279    1.293   .     A
C240   C242    1.461   .     S
C241   C252    1.389   .     A
C241   C752    1.398   1_554 S
C241   H774    1.080   1_554 S
C242   C252    1.399   .     A
C242   C251    1.400   .     A
C243   C244    1.391   .     A
C243   H258    1.083   .     S
C244   C749    1.389   .     S
C244   H764    1.079   .     S
C245   H259    1.078   .     S
C245   C748    1.389   1_554 S
C245   C740    1.413   1_554 S
C246   C250    1.416   .     A
C247   C251    1.401   .     A
C247   C740    1.424   1_554 S
C247   C752    1.418   1_554 S
C248   C249    1.387   .     A
C248   C745    1.398   .     S
C248   C751    1.418   .     S
C249   C250    1.382   .     A
C249   H269    1.085   .     S
C250   H261    1.076   .     S
C251   H257    1.076   .     S
C252   H256    1.083   .     S
Cu254  O275    1.961   .     S
Cu254  O273    1.962   .     S
Cu254  Cu255   2.680   .     S
Cu254  O277    1.965   .     S
Cu254  N271    2.014   .     S
Cu254  O279    1.953   .     S
Cu255  O280    1.961   .     S
Cu255  O276    1.953   .     S
Cu255  N272    2.014   .     S
Cu255  O278    1.962   .     S
Cu255  O274    1.965   .     S
H260   C748    1.079   1_554 S
H270   C745    1.080   .     S
C281   O330    1.291   .     A
C281   C289    1.445   .     S
C281   O329    1.291   .     A
C282   C302    1.431   .     A
C282   C284    1.484   .     S
C282   C299    1.403   .     A
C283   C289    1.397   .     A
C283   H318    1.084   .     S
C283   C453    1.384   .     S
C284   O332    1.288   .     A
C284   O331    1.311   .     A
C285   C286    1.403   .     A
C285   H319    1.084   .     S
C286   C287    1.413   .     A
C286   C295    1.453   .     S
C287   Cl309   1.763   .     S
C288   H320    1.084   .     S
C288   C289    1.397   .     A
C288   C455    1.385   .     S
C290   H321    1.082   .     S
C290   N328    1.368   .     A
C290   C179    1.417   1_655 S
C291   N327    1.367   .     A
C291   H322    1.082   .     S
C292   C302    1.418   .     A
C292   C805    1.413   .     S
C292   C807    1.424   .     S
C293   H323    1.081   .     S
C293   N327    1.368   .     A
C294   H324    1.082   .     S
C294   N328    1.367   .     A
C294   C181    1.417   1_655 S
C295   O333    1.291   .     A
C295   O334    1.294   .     A
C296   O336    1.296   .     A
C296   O335    1.293   .     A
C296   C298    1.461   .     S
C297   C308    1.389   .     A
C297   C808    1.398   1_554 S
C297   H830    1.080   1_554 S
C298   C308    1.399   .     A
C298   C307    1.400   .     A
C299   C300    1.391   .     A
C299   H314    1.083   .     S
C300   C805    1.389   .     S
C300   H820    1.079   .     S
C301   H315    1.078   .     S
C301   C804    1.389   1_554 S
C301   C796    1.413   1_554 S
C302   C306    1.416   .     A
C303   C307    1.401   .     A
C303   C796    1.424   1_554 S
C303   C808    1.418   1_554 S
C304   C305    1.387   .     A
C304   C801    1.398   .     S
C304   C807    1.418   .     S
C305   C306    1.382   .     A
C305   H325    1.085   .     S
C306   H317    1.076   .     S
C307   H313    1.076   .     S
C308   H312    1.083   .     S
Cu310  O331    1.961   .     S
Cu310  O329    1.962   .     S
Cu310  Cu311   2.680   .     S
Cu310  O333    1.965   .     S
Cu310  N327    2.014   .     S
Cu310  O335    1.953   .     S
Cu311  O336    1.961   .     S
Cu311  O332    1.953   .     S
Cu311  N328    2.014   .     S
Cu311  O334    1.962   .     S
Cu311  O330    1.965   .     S
H316   C804    1.079   1_554 S
H326   C801    1.080   .     S
C337   O386    1.291   .     A
C337   C345    1.445   .     S
C337   O385    1.291   .     A
C338   C358    1.431   .     A
C338   C340    1.484   .     S
C338   C355    1.403   .     A
C339   C345    1.397   .     A
C339   H374    1.084   .     S
C339   C5      1.384   1_565 S
C340   O388    1.288   .     A
C340   O387    1.311   .     A
C341   C342    1.403   .     A
C341   H375    1.084   .     S
C342   C343    1.413   .     A
C342   C351    1.453   .     S
C343   Cl365   1.763   .     S
C344   H376    1.084   .     S
C344   C345    1.397   .     A
C344   C7      1.385   1_565 S
C346   H377    1.082   .     S
C346   N384    1.368   .     A
C346   C403    1.417   .     S
C347   N383    1.367   .     A
C347   H378    1.082   .     S
C347   C458    1.417   1_455 S
C348   C358    1.418   .     A
C348   C861    1.413   .     S
C348   C863    1.424   .     S
C349   H379    1.081   .     S
C349   N383    1.368   .     A
C349   C462    1.417   1_455 S
C350   H380    1.082   .     S
C350   N384    1.367   .     A
C350   C405    1.417   .     S
C351   O389    1.291   .     A
C351   O390    1.294   .     A
C352   O392    1.296   .     A
C352   O391    1.293   .     A
C352   C354    1.461   .     S
C353   C364    1.389   .     A
C353   C864    1.398   1_554 S
C353   H886    1.080   1_554 S
C354   C364    1.399   .     A
C354   C363    1.400   .     A
C355   C356    1.391   .     A
C355   H370    1.083   .     S
C356   C861    1.389   .     S
C356   H876    1.079   .     S
C357   H371    1.078   .     S
C357   C860    1.389   1_554 S
C357   C852    1.413   1_554 S
C358   C362    1.416   .     A
C359   C363    1.401   .     A
C359   C852    1.424   1_554 S
C359   C864    1.418   1_554 S
C360   C361    1.387   .     A
C360   C857    1.398   .     S
C360   C863    1.418   .     S
C361   C362    1.382   .     A
C361   H381    1.085   .     S
C362   H373    1.076   .     S
C363   H369    1.076   .     S
C364   H368    1.083   .     S
Cu366  O387    1.961   .     S
Cu366  O385    1.962   .     S
Cu366  Cu367   2.680   .     S
Cu366  O389    1.965   .     S
Cu366  N383    2.014   .     S
Cu366  O391    1.953   .     S
Cu367  O392    1.961   .     S
Cu367  O388    1.953   .     S
Cu367  N384    2.014   .     S
Cu367  O390    1.962   .     S
Cu367  O386    1.965   .     S
H372   C860    1.079   1_554 S
H382   C857    1.080   .     S
C393   O442    1.291   .     A
C393   C401    1.445   .     S
C393   O441    1.291   .     A
C394   C414    1.431   .     A
C394   C396    1.484   .     S
C394   C411    1.403   .     A
C395   C401    1.397   .     A
C395   H430    1.084   .     S
C395   C61     1.384   1_565 S
C396   O444    1.288   .     A
C396   O443    1.311   .     A
C397   C398    1.403   .     A
C397   H431    1.084   .     S
C398   C399    1.413   .     A
C398   C407    1.453   .     S
C399   Cl421   1.763   .     S
C400   H432    1.084   .     S
C400   C401    1.397   .     A
C400   C63     1.385   1_565 S
C402   H433    1.082   .     S
C402   N440    1.368   .     A
C402   C459    1.417   .     S
C403   N439    1.367   .     A
C403   H434    1.082   .     S
C404   C414    1.418   .     A
C404   C917    1.413   .     S
C404   C919    1.424   .     S
C405   H435    1.081   .     S
C405   N439    1.368   .     A
C406   H436    1.082   .     S
C406   N440    1.367   .     A
C406   C461    1.417   .     S
C407   O445    1.291   .     A
C407   O446    1.294   .     A
C408   O448    1.296   .     A
C408   O447    1.293   .     A
C408   C410    1.461   .     S
C409   C420    1.389   .     A
C409   C920    1.398   1_554 S
C409   H942    1.080   1_554 S
C410   C420    1.399   .     A
C410   C419    1.400   .     A
C411   C412    1.391   .     A
C411   H426    1.083   .     S
C412   C917    1.389   .     S
C412   H932    1.079   .     S
C413   H427    1.078   .     S
C413   C916    1.389   1_554 S
C413   C908    1.413   1_554 S
C414   C418    1.416   .     A
C415   C419    1.401   .     A
C415   C908    1.424   1_554 S
C415   C920    1.418   1_554 S
C416   C417    1.387   .     A
C416   C913    1.398   .     S
C416   C919    1.418   .     S
C417   C418    1.382   .     A
C417   H437    1.085   .     S
C418   H429    1.076   .     S
C419   H425    1.076   .     S
C420   H424    1.083   .     S
Cu422  O443    1.961   .     S
Cu422  O441    1.962   .     S
Cu422  Cu423   2.680   .     S
Cu422  O445    1.965   .     S
Cu422  N439    2.014   .     S
Cu422  O447    1.953   .     S
Cu423  O448    1.961   .     S
Cu423  O444    1.953   .     S
Cu423  N440    2.014   .     S
Cu423  O446    1.962   .     S
Cu423  O442    1.965   .     S
H428   C916    1.079   1_554 S
H438   C913    1.080   .     S
C449   O498    1.291   .     A
C449   C457    1.445   .     S
C449   O497    1.291   .     A
C450   C470    1.431   .     A
C450   C452    1.484   .     S
C450   C467    1.403   .     A
C451   C457    1.397   .     A
C451   H486    1.084   .     S
C451   C117    1.384   1_565 S
C452   O500    1.288   .     A
C452   O499    1.311   .     A
C453   C454    1.403   .     A
C453   H487    1.084   .     S
C454   C455    1.413   .     A
C454   C463    1.453   .     S
C455   Cl477   1.763   .     S
C456   H488    1.084   .     S
C456   C457    1.397   .     A
C456   C119    1.385   1_565 S
C458   H489    1.082   .     S
C458   N496    1.368   .     A
C458   C347    1.417   1_655 S
C459   N495    1.367   .     A
C459   H490    1.082   .     S
C460   C470    1.418   .     A
C460   C973    1.413   .     S
C460   C975    1.424   .     S
C461   H491    1.081   .     S
C461   N495    1.368   .     A
C462   H492    1.082   .     S
C462   N496    1.367   .     A
C462   C349    1.417   1_655 S
C463   O501    1.291   .     A
C463   O502    1.294   .     A
C464   O504    1.296   .     A
C464   O503    1.293   .     A
C464   C466    1.461   .     S
C465   C476    1.389   .     A
C465   C976    1.398   1_554 S
C465   H998    1.080   1_554 S
C466   C476    1.399   .     A
C466   C475    1.400   .     A
C467   C468    1.391   .     A
C467   H482    1.083   .     S
C468   C973    1.389   .     S
C468   H988    1.079   .     S
C469   H483    1.078   .     S
C469   C972    1.389   1_554 S
C469   C964    1.413   1_554 S
C470   C474    1.416   .     A
C471   C475    1.401   .     A
C471   C964    1.424   1_554 S
C471   C976    1.418   1_554 S
C472   C473    1.387   .     A
C472   C969    1.398   .     S
C472   C975    1.418   .     S
C473   C474    1.382   .     A
C473   H493    1.085   .     S
C474   H485    1.076   .     S
C475   H481    1.076   .     S
C476   H480    1.083   .     S
Cu478  O499    1.961   .     S
Cu478  O497    1.962   .     S
Cu478  Cu479   2.680   .     S
Cu478  O501    1.965   .     S
Cu478  N495    2.014   .     S
Cu478  O503    1.953   .     S
Cu479  O504    1.961   .     S
Cu479  O500    1.953   .     S
Cu479  N496    2.014   .     S
Cu479  O502    1.962   .     S
Cu479  O498    1.965   .     S
H484   C972    1.079   1_554 S
H494   C969    1.080   .     S
C505   O554    1.291   .     A
C505   C513    1.445   .     S
C505   O553    1.291   .     A
C506   C526    1.431   .     A
C506   C508    1.484   .     S
C506   C523    1.403   .     A
C507   C513    1.397   .     A
C507   H542    1.084   .     S
C507   C677    1.384   .     S
C508   O556    1.288   .     A
C508   O555    1.311   .     A
C509   C510    1.403   .     A
C509   H543    1.084   .     S
C509   C843    1.384   1_545 S
C510   C511    1.413   .     A
C510   C519    1.453   .     S
C511   Cl533   1.763   .     S
C511   C848    1.385   1_545 S
C512   H544    1.084   .     S
C512   C513    1.397   .     A
C512   C679    1.385   .     S
C514   H545    1.082   .     S
C514   N552    1.368   .     A
C514   C571    1.417   .     S
C515   N551    1.367   .     A
C515   H546    1.082   .     S
C515   C626    1.417   1_455 S
C516   C526    1.418   .     A
C516   C21     1.413   1_556 S
C516   C23     1.424   1_556 S
C517   H547    1.081   .     S
C517   N551    1.368   .     A
C517   C630    1.417   1_455 S
C518   H548    1.082   .     S
C518   N552    1.367   .     A
C518   C573    1.417   .     S
C519   O557    1.291   .     A
C519   O558    1.294   .     A
C520   O560    1.296   .     A
C520   O559    1.293   .     A
C520   C522    1.461   .     S
C521   C532    1.389   .     A
C522   C532    1.399   .     A
C522   C531    1.400   .     A
C523   C524    1.391   .     A
C523   H538    1.083   .     S
C524   C21     1.389   1_556 S
C524   H36     1.079   1_556 S
C525   H539    1.078   .     S
C526   C530    1.416   .     A
C527   C531    1.401   .     A
C528   C529    1.387   .     A
C528   C17     1.398   1_556 S
C528   C23     1.418   1_556 S
C529   C530    1.382   .     A
C529   H549    1.085   .     S
C530   H541    1.076   .     S
C531   H537    1.076   .     S
C532   H536    1.083   .     S
Cu534  O555    1.961   .     S
Cu534  O553    1.962   .     S
Cu534  Cu535   2.680   .     S
Cu534  O557    1.965   .     S
Cu534  N551    2.014   .     S
Cu534  O559    1.953   .     S
Cu535  O560    1.961   .     S
Cu535  O556    1.953   .     S
Cu535  N552    2.014   .     S
Cu535  O558    1.962   .     S
Cu535  O554    1.965   .     S
H550   C17     1.080   1_556 S
C561   O610    1.291   .     A
C561   C569    1.445   .     S
C561   O609    1.291   .     A
C562   C582    1.431   .     A
C562   C564    1.484   .     S
C562   C579    1.403   .     A
C563   C569    1.397   .     A
C563   H598    1.084   .     S
C563   C733    1.384   .     S
C564   O612    1.288   .     A
C564   O611    1.311   .     A
C565   C566    1.403   .     A
C565   H599    1.084   .     S
C565   C899    1.384   1_545 S
C566   C567    1.413   .     A
C566   C575    1.453   .     S
C567   Cl589   1.763   .     S
C567   C904    1.385   1_545 S
C568   H600    1.084   .     S
C568   C569    1.397   .     A
C568   C735    1.385   .     S
C570   H601    1.082   .     S
C570   N608    1.368   .     A
C570   C627    1.417   .     S
C571   N607    1.367   .     A
C571   H602    1.082   .     S
C572   C582    1.418   .     A
C572   C77     1.413   1_556 S
C572   C79     1.424   1_556 S
C573   H603    1.081   .     S
C573   N607    1.368   .     A
C574   H604    1.082   .     S
C574   N608    1.367   .     A
C574   C629    1.417   .     S
C575   O613    1.291   .     A
C575   O614    1.294   .     A
C576   O616    1.296   .     A
C576   O615    1.293   .     A
C576   C578    1.461   .     S
C577   C588    1.389   .     A
C578   C588    1.399   .     A
C578   C587    1.400   .     A
C579   C580    1.391   .     A
C579   H594    1.083   .     S
C580   C77     1.389   1_556 S
C580   H92     1.079   1_556 S
C581   H595    1.078   .     S
C582   C586    1.416   .     A
C583   C587    1.401   .     A
C584   C585    1.387   .     A
C584   C73     1.398   1_556 S
C584   C79     1.418   1_556 S
C585   C586    1.382   .     A
C585   H605    1.085   .     S
C586   H597    1.076   .     S
C587   H593    1.076   .     S
C588   H592    1.083   .     S
Cu590  O611    1.961   .     S
Cu590  O609    1.962   .     S
Cu590  Cu591   2.680   .     S
Cu590  O613    1.965   .     S
Cu590  N607    2.014   .     S
Cu590  O615    1.953   .     S
Cu591  O616    1.961   .     S
Cu591  O612    1.953   .     S
Cu591  N608    2.014   .     S
Cu591  O614    1.962   .     S
Cu591  O610    1.965   .     S
H606   C73     1.080   1_556 S
C617   O666    1.291   .     A
C617   C625    1.445   .     S
C617   O665    1.291   .     A
C618   C638    1.431   .     A
C618   C620    1.484   .     S
C618   C635    1.403   .     A
C619   C625    1.397   .     A
C619   H654    1.084   .     S
C619   C789    1.384   .     S
C620   O668    1.288   .     A
C620   O667    1.311   .     A
C621   C622    1.403   .     A
C621   H655    1.084   .     S
C621   C955    1.384   1_545 S
C622   C623    1.413   .     A
C622   C631    1.453   .     S
C623   Cl645   1.763   .     S
C623   C960    1.385   1_545 S
C624   H656    1.084   .     S
C624   C625    1.397   .     A
C624   C791    1.385   .     S
C626   H657    1.082   .     S
C626   N664    1.368   .     A
C626   C515    1.417   1_655 S
C627   N663    1.367   .     A
C627   H658    1.082   .     S
C628   C638    1.418   .     A
C628   C133    1.413   1_556 S
C628   C135    1.424   1_556 S
C629   H659    1.081   .     S
C629   N663    1.368   .     A
C630   H660    1.082   .     S
C630   N664    1.367   .     A
C630   C517    1.417   1_655 S
C631   O669    1.291   .     A
C631   O670    1.294   .     A
C632   O672    1.296   .     A
C632   O671    1.293   .     A
C632   C634    1.461   .     S
C633   C644    1.389   .     A
C634   C644    1.399   .     A
C634   C643    1.400   .     A
C635   C636    1.391   .     A
C635   H650    1.083   .     S
C636   C133    1.389   1_556 S
C636   H148    1.079   1_556 S
C637   H651    1.078   .     S
C638   C642    1.416   .     A
C639   C643    1.401   .     A
C640   C641    1.387   .     A
C640   C129    1.398   1_556 S
C640   C135    1.418   1_556 S
C641   C642    1.382   .     A
C641   H661    1.085   .     S
C642   H653    1.076   .     S
C643   H649    1.076   .     S
C644   H648    1.083   .     S
Cu646  O667    1.961   .     S
Cu646  O665    1.962   .     S
Cu646  Cu647   2.680   .     S
Cu646  O669    1.965   .     S
Cu646  N663    2.014   .     S
Cu646  O671    1.953   .     S
Cu647  O672    1.961   .     S
Cu647  O668    1.953   .     S
Cu647  N664    2.014   .     S
Cu647  O670    1.962   .     S
Cu647  O666    1.965   .     S
H662   C129    1.080   1_556 S
C673   O722    1.291   .     A
C673   C681    1.445   .     S
C673   O721    1.291   .     A
C674   C694    1.431   .     A
C674   C676    1.484   .     S
C674   C691    1.403   .     A
C675   C681    1.397   .     A
C675   H710    1.084   .     S
C675   C845    1.384   .     S
C676   O724    1.288   .     A
C676   O723    1.311   .     A
C677   C678    1.403   .     A
C677   H711    1.084   .     S
C678   C679    1.413   .     A
C678   C687    1.453   .     S
C679   Cl701   1.763   .     S
C680   H712    1.084   .     S
C680   C681    1.397   .     A
C680   C847    1.385   .     S
C682   H713    1.082   .     S
C682   N720    1.368   .     A
C682   C739    1.417   .     S
C683   N719    1.367   .     A
C683   H714    1.082   .     S
C683   C794    1.417   1_455 S
C684   C694    1.418   .     A
C684   C189    1.413   1_556 S
C684   C191    1.424   1_556 S
C685   H715    1.081   .     S
C685   N719    1.368   .     A
C685   C798    1.417   1_455 S
C686   H716    1.082   .     S
C686   N720    1.367   .     A
C686   C741    1.417   .     S
C687   O725    1.291   .     A
C687   O726    1.294   .     A
C688   O728    1.296   .     A
C688   O727    1.293   .     A
C688   C690    1.461   .     S
C689   C700    1.389   .     A
C690   C700    1.399   .     A
C690   C699    1.400   .     A
C691   C692    1.391   .     A
C691   H706    1.083   .     S
C692   C189    1.389   1_556 S
C692   H204    1.079   1_556 S
C693   H707    1.078   .     S
C694   C698    1.416   .     A
C695   C699    1.401   .     A
C696   C697    1.387   .     A
C696   C185    1.398   1_556 S
C696   C191    1.418   1_556 S
C697   C698    1.382   .     A
C697   H717    1.085   .     S
C698   H709    1.076   .     S
C699   H705    1.076   .     S
C700   H704    1.083   .     S
Cu702  O723    1.961   .     S
Cu702  O721    1.962   .     S
Cu702  Cu703   2.680   .     S
Cu702  O725    1.965   .     S
Cu702  N719    2.014   .     S
Cu702  O727    1.953   .     S
Cu703  O728    1.961   .     S
Cu703  O724    1.953   .     S
Cu703  N720    2.014   .     S
Cu703  O726    1.962   .     S
Cu703  O722    1.965   .     S
H718   C185    1.080   1_556 S
C729   O778    1.291   .     A
C729   C737    1.445   .     S
C729   O777    1.291   .     A
C730   C750    1.431   .     A
C730   C732    1.484   .     S
C730   C747    1.403   .     A
C731   C737    1.397   .     A
C731   H766    1.084   .     S
C731   C901    1.384   .     S
C732   O780    1.288   .     A
C732   O779    1.311   .     A
C733   C734    1.403   .     A
C733   H767    1.084   .     S
C734   C735    1.413   .     A
C734   C743    1.453   .     S
C735   Cl757   1.763   .     S
C736   H768    1.084   .     S
C736   C737    1.397   .     A
C736   C903    1.385   .     S
C738   H769    1.082   .     S
C738   N776    1.368   .     A
C738   C795    1.417   .     S
C739   N775    1.367   .     A
C739   H770    1.082   .     S
C740   C750    1.418   .     A
C740   C245    1.413   1_556 S
C740   C247    1.424   1_556 S
C741   H771    1.081   .     S
C741   N775    1.368   .     A
C742   H772    1.082   .     S
C742   N776    1.367   .     A
C742   C797    1.417   .     S
C743   O781    1.291   .     A
C743   O782    1.294   .     A
C744   O784    1.296   .     A
C744   O783    1.293   .     A
C744   C746    1.461   .     S
C745   C756    1.389   .     A
C746   C756    1.399   .     A
C746   C755    1.400   .     A
C747   C748    1.391   .     A
C747   H762    1.083   .     S
C748   C245    1.389   1_556 S
C748   H260    1.079   1_556 S
C749   H763    1.078   .     S
C750   C754    1.416   .     A
C751   C755    1.401   .     A
C752   C753    1.387   .     A
C752   C241    1.398   1_556 S
C752   C247    1.418   1_556 S
C753   C754    1.382   .     A
C753   H773    1.085   .     S
C754   H765    1.076   .     S
C755   H761    1.076   .     S
C756   H760    1.083   .     S
Cu758  O779    1.961   .     S
Cu758  O777    1.962   .     S
Cu758  Cu759   2.680   .     S
Cu758  O781    1.965   .     S
Cu758  N775    2.014   .     S
Cu758  O783    1.953   .     S
Cu759  O784    1.961   .     S
Cu759  O780    1.953   .     S
Cu759  N776    2.014   .     S
Cu759  O782    1.962   .     S
Cu759  O778    1.965   .     S
H774   C241    1.080   1_556 S
C785   O834    1.291   .     A
C785   C793    1.445   .     S
C785   O833    1.291   .     A
C786   C806    1.431   .     A
C786   C788    1.484   .     S
C786   C803    1.403   .     A
C787   C793    1.397   .     A
C787   H822    1.084   .     S
C787   C957    1.384   .     S
C788   O836    1.288   .     A
C788   O835    1.311   .     A
C789   C790    1.403   .     A
C789   H823    1.084   .     S
C790   C791    1.413   .     A
C790   C799    1.453   .     S
C791   Cl813   1.763   .     S
C792   H824    1.084   .     S
C792   C793    1.397   .     A
C792   C959    1.385   .     S
C794   H825    1.082   .     S
C794   N832    1.368   .     A
C794   C683    1.417   1_655 S
C795   N831    1.367   .     A
C795   H826    1.082   .     S
C796   C806    1.418   .     A
C796   C301    1.413   1_556 S
C796   C303    1.424   1_556 S
C797   H827    1.081   .     S
C797   N831    1.368   .     A
C798   H828    1.082   .     S
C798   N832    1.367   .     A
C798   C685    1.417   1_655 S
C799   O837    1.291   .     A
C799   O838    1.294   .     A
C800   O840    1.296   .     A
C800   O839    1.293   .     A
C800   C802    1.461   .     S
C801   C812    1.389   .     A
C802   C812    1.399   .     A
C802   C811    1.400   .     A
C803   C804    1.391   .     A
C803   H818    1.083   .     S
C804   C301    1.389   1_556 S
C804   H316    1.079   1_556 S
C805   H819    1.078   .     S
C806   C810    1.416   .     A
C807   C811    1.401   .     A
C808   C809    1.387   .     A
C808   C297    1.398   1_556 S
C808   C303    1.418   1_556 S
C809   C810    1.382   .     A
C809   H829    1.085   .     S
C810   H821    1.076   .     S
C811   H817    1.076   .     S
C812   H816    1.083   .     S
Cu814  O835    1.961   .     S
Cu814  O833    1.962   .     S
Cu814  Cu815   2.680   .     S
Cu814  O837    1.965   .     S
Cu814  N831    2.014   .     S
Cu814  O839    1.953   .     S
Cu815  O840    1.961   .     S
Cu815  O836    1.953   .     S
Cu815  N832    2.014   .     S
Cu815  O838    1.962   .     S
Cu815  O834    1.965   .     S
H830   C297    1.080   1_556 S
C841   O890    1.291   .     A
C841   C849    1.445   .     S
C841   O889    1.291   .     A
C842   C862    1.431   .     A
C842   C844    1.484   .     S
C842   C859    1.403   .     A
C843   C849    1.397   .     A
C843   H878    1.084   .     S
C843   C509    1.384   1_565 S
C844   O892    1.288   .     A
C844   O891    1.311   .     A
C845   C846    1.403   .     A
C845   H879    1.084   .     S
C846   C847    1.413   .     A
C846   C855    1.453   .     S
C847   Cl869   1.763   .     S
C848   H880    1.084   .     S
C848   C849    1.397   .     A
C848   C511    1.385   1_565 S
C850   H881    1.082   .     S
C850   N888    1.368   .     A
C850   C907    1.417   .     S
C851   N887    1.367   .     A
C851   H882    1.082   .     S
C851   C962    1.417   1_455 S
C852   C862    1.418   .     A
C852   C357    1.413   1_556 S
C852   C359    1.424   1_556 S
C853   H883    1.081   .     S
C853   N887    1.368   .     A
C853   C966    1.417   1_455 S
C854   H884    1.082   .     S
C854   N888    1.367   .     A
C854   C909    1.417   .     S
C855   O893    1.291   .     A
C855   O894    1.294   .     A
C856   O896    1.296   .     A
C856   O895    1.293   .     A
C856   C858    1.461   .     S
C857   C868    1.389   .     A
C858   C868    1.399   .     A
C858   C867    1.400   .     A
C859   C860    1.391   .     A
C859   H874    1.083   .     S
C860   C357    1.389   1_556 S
C860   H372    1.079   1_556 S
C861   H875    1.078   .     S
C862   C866    1.416   .     A
C863   C867    1.401   .     A
C864   C865    1.387   .     A
C864   C353    1.398   1_556 S
C864   C359    1.418   1_556 S
C865   C866    1.382   .     A
C865   H885    1.085   .     S
C866   H877    1.076   .     S
C867   H873    1.076   .     S
C868   H872    1.083   .     S
Cu870  O891    1.961   .     S
Cu870  O889    1.962   .     S
Cu870  Cu871   2.680   .     S
Cu870  O893    1.965   .     S
Cu870  N887    2.014   .     S
Cu870  O895    1.953   .     S
Cu871  O896    1.961   .     S
Cu871  O892    1.953   .     S
Cu871  N888    2.014   .     S
Cu871  O894    1.962   .     S
Cu871  O890    1.965   .     S
H886   C353    1.080   1_556 S
C897   O946    1.291   .     A
C897   C905    1.445   .     S
C897   O945    1.291   .     A
C898   C918    1.431   .     A
C898   C900    1.484   .     S
C898   C915    1.403   .     A
C899   C905    1.397   .     A
C899   H934    1.084   .     S
C899   C565    1.384   1_565 S
C900   O948    1.288   .     A
C900   O947    1.311   .     A
C901   C902    1.403   .     A
C901   H935    1.084   .     S
C902   C903    1.413   .     A
C902   C911    1.453   .     S
C903   Cl925   1.763   .     S
C904   H936    1.084   .     S
C904   C905    1.397   .     A
C904   C567    1.385   1_565 S
C906   H937    1.082   .     S
C906   N944    1.368   .     A
C906   C963    1.417   .     S
C907   N943    1.367   .     A
C907   H938    1.082   .     S
C908   C918    1.418   .     A
C908   C413    1.413   1_556 S
C908   C415    1.424   1_556 S
C909   H939    1.081   .     S
C909   N943    1.368   .     A
C910   H940    1.082   .     S
C910   N944    1.367   .     A
C910   C965    1.417   .     S
C911   O949    1.291   .     A
C911   O950    1.294   .     A
C912   O952    1.296   .     A
C912   O951    1.293   .     A
C912   C914    1.461   .     S
C913   C924    1.389   .     A
C914   C924    1.399   .     A
C914   C923    1.400   .     A
C915   C916    1.391   .     A
C915   H930    1.083   .     S
C916   C413    1.389   1_556 S
C916   H428    1.079   1_556 S
C917   H931    1.078   .     S
C918   C922    1.416   .     A
C919   C923    1.401   .     A
C920   C921    1.387   .     A
C920   C409    1.398   1_556 S
C920   C415    1.418   1_556 S
C921   C922    1.382   .     A
C921   H941    1.085   .     S
C922   H933    1.076   .     S
C923   H929    1.076   .     S
C924   H928    1.083   .     S
Cu926  O947    1.961   .     S
Cu926  O945    1.962   .     S
Cu926  Cu927   2.680   .     S
Cu926  O949    1.965   .     S
Cu926  N943    2.014   .     S
Cu926  O951    1.953   .     S
Cu927  O952    1.961   .     S
Cu927  O948    1.953   .     S
Cu927  N944    2.014   .     S
Cu927  O950    1.962   .     S
Cu927  O946    1.965   .     S
H942   C409    1.080   1_556 S
C953   O1002   1.291   .     A
C953   C961    1.445   .     S
C953   O1001   1.291   .     A
C954   C974    1.431   .     A
C954   C956    1.484   .     S
C954   C971    1.403   .     A
C955   C961    1.397   .     A
C955   H990    1.084   .     S
C955   C621    1.384   1_565 S
C956   O1004   1.288   .     A
C956   O1003   1.311   .     A
C957   C958    1.403   .     A
C957   H991    1.084   .     S
C958   C959    1.413   .     A
C958   C967    1.453   .     S
C959   Cl981   1.763   .     S
C960   H992    1.084   .     S
C960   C961    1.397   .     A
C960   C623    1.385   1_565 S
C962   H993    1.082   .     S
C962   N1000   1.368   .     A
C962   C851    1.417   1_655 S
C963   N999    1.367   .     A
C963   H994    1.082   .     S
C964   C974    1.418   .     A
C964   C469    1.413   1_556 S
C964   C471    1.424   1_556 S
C965   H995    1.081   .     S
C965   N999    1.368   .     A
C966   H996    1.082   .     S
C966   N1000   1.367   .     A
C966   C853    1.417   1_655 S
C967   O1005   1.291   .     A
C967   O1006   1.294   .     A
C968   O1008   1.296   .     A
C968   O1007   1.293   .     A
C968   C970    1.461   .     S
C969   C980    1.389   .     A
C970   C980    1.399   .     A
C970   C979    1.400   .     A
C971   C972    1.391   .     A
C971   H986    1.083   .     S
C972   C469    1.389   1_556 S
C972   H484    1.079   1_556 S
C973   H987    1.078   .     S
C974   C978    1.416   .     A
C975   C979    1.401   .     A
C976   C977    1.387   .     A
C976   C465    1.398   1_556 S
C976   C471    1.418   1_556 S
C977   C978    1.382   .     A
C977   H997    1.085   .     S
C978   H989    1.076   .     S
C979   H985    1.076   .     S
C980   H984    1.083   .     S
Cu982  O1003   1.961   .     S
Cu982  O1001   1.962   .     S
Cu982  Cu983   2.680   .     S
Cu982  O1005   1.965   .     S
Cu982  N999    2.014   .     S
Cu982  O1007   1.953   .     S
Cu983  O1008   1.961   .     S
Cu983  O1004   1.953   .     S
Cu983  N1000   2.014   .     S
Cu983  O1006   1.962   .     S
Cu983  O1002   1.965   .     S
H998   C465    1.080   1_556 S
