data_str_m2_o1_o16_pcu_sym.212
_audit_creation_date              2020-01-03
_audit_creation_method            'Materials Studio'
_symmetry_space_group_name_H-M    'P1'
_symmetry_Int_Tables_number       1
_symmetry_cell_setting            triclinic
loop_
_symmetry_equiv_pos_as_xyz
  x,y,z
_cell_length_a                    28.6487
_cell_length_b                    32.4009
_cell_length_c                    26.9309
_cell_angle_alpha                 90.4492
_cell_angle_beta                  73.3530
_cell_angle_gamma                 89.8678
loop_
_atom_site_label
_atom_site_type_symbol
_atom_site_fract_x
_atom_site_fract_y
_atom_site_fract_z
_atom_site_U_iso_or_equiv
_atom_site_adp_type
_atom_site_occupancy
C1     C     0.16626   0.24589   0.25120   0.00000  Uiso   1.00
C2     C     0.14913   0.14645   0.48713   0.00000  Uiso   1.00
C3     C     0.16430   0.14647   0.43219   0.00000  Uiso   1.00
C4     C     0.18450   0.15311   0.01415   0.00000  Uiso   1.00
C5     C     0.23442   0.15611   0.48603   0.00000  Uiso   1.00
C6     C     0.24916   0.14824   0.43310   0.00000  Uiso   1.00
C7     C     0.21471   0.14169   0.40697   0.00000  Uiso   1.00
C8     C     0.17172   0.15854   0.06803   0.00000  Uiso   1.00
C9     C     0.25612   0.16966   0.06494   0.00000  Uiso   1.00
C10    C     0.12841   0.15056   0.40494   0.00000  Uiso   1.00
C11    C     0.20685   0.31087   0.22039   0.00000  Uiso   1.00
C12    C     0.14136   0.16168   0.34934   0.00000  Uiso   1.00
C13    C     0.20771   0.02027   0.21837   0.00000  Uiso   1.00
C14    C     0.16732   0.04284   0.24842   0.00000  Uiso   1.00
C15    C     0.12647   0.02250   0.27950   0.00000  Uiso   1.00
C16    C     0.12560   0.31310   0.28149   0.00000  Uiso   1.00
C17    C     0.16601   0.29052   0.25149   0.00000  Uiso   1.00
C18    C     0.29956   0.19151   0.28338   0.00000  Uiso   1.00
C19    C     0.01576   0.19148   0.28337   0.00000  Uiso   1.00
C20    C     0.03317   0.14135   0.21698   0.00000  Uiso   1.00
C21    C     0.31718   0.14178   0.21689   0.00000  Uiso   1.00
C22    C     0.16708   0.08745   0.24877   0.00000  Uiso   1.00
C23    C     0.19253   0.16690   0.15018   0.00000  Uiso   1.00
C24    C     0.26936   0.16588   0.01129   0.00000  Uiso   1.00
C25    C     0.20727   0.16526   0.09357   0.00000  Uiso   1.00
C26    C     0.07928   0.14418   0.43187   0.00000  Uiso   1.00
C27    C     0.06565   0.13618   0.48472   0.00000  Uiso   1.00
C28    C     0.09949   0.13905   0.01259   0.00000  Uiso   1.00
Cu29   Cu    0.11978   0.16666   0.25000   0.00000  Uiso   1.00
Cu30   Cu    0.21355   0.16667   0.25000   0.00000  Uiso   1.00
H31    H     0.27372   0.21141   0.31022   0.00000  Uiso   1.00
H32    H     0.28751   0.14676   0.41182   0.00000  Uiso   1.00
H33    H     0.05141   0.14457   0.41189   0.00000  Uiso   1.00
H34    H     0.08595   0.13381   0.05369   0.00000  Uiso   1.00
H35    H     0.02844   0.12844   0.00483   0.00000  Uiso   1.00
H36    H     0.22893   0.13122   0.36746   0.00000  Uiso   1.00
N37    N     0.04931   0.16666   0.24998   0.00000  Uiso   1.00
N38    N     0.28402   0.16669   0.24999   0.00000  Uiso   1.00
O39    O     0.12708   0.22678   0.25000   0.00000  Uiso   1.00
O40    O     0.20627   0.22679   0.25000   0.00000  Uiso   1.00
O41    O     0.10775   0.16665   0.32549   0.00000  Uiso   1.00
O42    O     0.18694   0.16666   0.32549   0.00000  Uiso   1.00
O43    O     0.12706   0.10654   0.24999   0.00000  Uiso   1.00
O44    O     0.20625   0.10655   0.24999   0.00000  Uiso   1.00
O45    O     0.14640   0.16667   0.17451   0.00000  Uiso   1.00
O46    O     0.22559   0.16668   0.17451   0.00000  Uiso   1.00
H47    H     0.28397   0.17608   0.08390   0.00000  Uiso   1.00
Cl48   Cl    0.25867   0.04388   0.17542   0.00000  Uiso   1.00
H49    H     0.09563   0.03994   0.30317   0.00000  Uiso   1.00
Cl50   Cl    0.07456   0.28951   0.32435   0.00000  Uiso   1.00
H51    H     0.02704   0.21121   0.31031   0.00000  Uiso   1.00
Cl52   Cl    0.07205   0.10642   0.17434   0.00000  Uiso   1.00
H53    H     0.30541   0.12196   0.19036   0.00000  Uiso   1.00
H54    H     0.30679   0.17080   0.48923   0.00000  Uiso   1.00
H55    H     0.13421   0.15808   0.09092   0.00000  Uiso   1.00
H56    H     0.23769   0.29343   0.19671   0.00000  Uiso   1.00
C57    C     0.49959   0.24589   0.25120   0.00000  Uiso   1.00
C58    C     0.48247   0.14645   0.48713   0.00000  Uiso   1.00
C59    C     0.49764   0.14647   0.43219   0.00000  Uiso   1.00
C60    C     0.51783   0.15311   0.01415   0.00000  Uiso   1.00
C61    C     0.56776   0.15611   0.48603   0.00000  Uiso   1.00
C62    C     0.58249   0.14824   0.43310   0.00000  Uiso   1.00
C63    C     0.54805   0.14169   0.40697   0.00000  Uiso   1.00
C64    C     0.50506   0.15854   0.06803   0.00000  Uiso   1.00
C65    C     0.58945   0.16966   0.06494   0.00000  Uiso   1.00
C66    C     0.46174   0.15056   0.40494   0.00000  Uiso   1.00
C67    C     0.54018   0.31087   0.22039   0.00000  Uiso   1.00
C68    C     0.47470   0.16168   0.34934   0.00000  Uiso   1.00
C69    C     0.54104   0.02027   0.21837   0.00000  Uiso   1.00
C70    C     0.50065   0.04284   0.24842   0.00000  Uiso   1.00
C71    C     0.45980   0.02250   0.27950   0.00000  Uiso   1.00
C72    C     0.45893   0.31310   0.28149   0.00000  Uiso   1.00
C73    C     0.49934   0.29052   0.25149   0.00000  Uiso   1.00
C74    C     0.63289   0.19151   0.28338   0.00000  Uiso   1.00
C75    C     0.34909   0.19148   0.28337   0.00000  Uiso   1.00
C76    C     0.36650   0.14135   0.21698   0.00000  Uiso   1.00
C77    C     0.65051   0.14178   0.21689   0.00000  Uiso   1.00
C78    C     0.50041   0.08745   0.24877   0.00000  Uiso   1.00
C79    C     0.52587   0.16690   0.15018   0.00000  Uiso   1.00
C80    C     0.60269   0.16588   0.01129   0.00000  Uiso   1.00
C81    C     0.54060   0.16526   0.09357   0.00000  Uiso   1.00
C82    C     0.41261   0.14418   0.43187   0.00000  Uiso   1.00
C83    C     0.39898   0.13618   0.48472   0.00000  Uiso   1.00
C84    C     0.43282   0.13905   0.01259   0.00000  Uiso   1.00
Cu85   Cu    0.45311   0.16666   0.25000   0.00000  Uiso   1.00
Cu86   Cu    0.54689   0.16667   0.25000   0.00000  Uiso   1.00
H87    H     0.60706   0.21141   0.31022   0.00000  Uiso   1.00
H88    H     0.62084   0.14676   0.41182   0.00000  Uiso   1.00
H89    H     0.38474   0.14457   0.41189   0.00000  Uiso   1.00
H90    H     0.41928   0.13381   0.05369   0.00000  Uiso   1.00
H91    H     0.36178   0.12844   0.00483   0.00000  Uiso   1.00
H92    H     0.56226   0.13122   0.36746   0.00000  Uiso   1.00
N93    N     0.38265   0.16666   0.24998   0.00000  Uiso   1.00
N94    N     0.61735   0.16669   0.24999   0.00000  Uiso   1.00
O95    O     0.46042   0.22678   0.25000   0.00000  Uiso   1.00
O96    O     0.53961   0.22679   0.25000   0.00000  Uiso   1.00
O97    O     0.44108   0.16665   0.32549   0.00000  Uiso   1.00
O98    O     0.52027   0.16666   0.32549   0.00000  Uiso   1.00
O99    O     0.46039   0.10654   0.24999   0.00000  Uiso   1.00
O100   O     0.53958   0.10655   0.24999   0.00000  Uiso   1.00
O101   O     0.47973   0.16667   0.17451   0.00000  Uiso   1.00
O102   O     0.55892   0.16668   0.17451   0.00000  Uiso   1.00
H103   H     0.61731   0.17608   0.08390   0.00000  Uiso   1.00
Cl104  Cl    0.59200   0.04388   0.17542   0.00000  Uiso   1.00
H105   H     0.42896   0.03994   0.30317   0.00000  Uiso   1.00
Cl106  Cl    0.40790   0.28951   0.32435   0.00000  Uiso   1.00
H107   H     0.36037   0.21121   0.31031   0.00000  Uiso   1.00
Cl108  Cl    0.40539   0.10642   0.17434   0.00000  Uiso   1.00
H109   H     0.63874   0.12196   0.19036   0.00000  Uiso   1.00
H110   H     0.64013   0.17080   0.48923   0.00000  Uiso   1.00
H111   H     0.46754   0.15808   0.09092   0.00000  Uiso   1.00
H112   H     0.57102   0.29343   0.19671   0.00000  Uiso   1.00
C113   C     0.83293   0.24589   0.25120   0.00000  Uiso   1.00
C114   C     0.81580   0.14645   0.48713   0.00000  Uiso   1.00
C115   C     0.83097   0.14647   0.43219   0.00000  Uiso   1.00
C116   C     0.85117   0.15311   0.01415   0.00000  Uiso   1.00
C117   C     0.90109   0.15611   0.48603   0.00000  Uiso   1.00
C118   C     0.91582   0.14824   0.43310   0.00000  Uiso   1.00
C119   C     0.88138   0.14169   0.40697   0.00000  Uiso   1.00
C120   C     0.83839   0.15854   0.06803   0.00000  Uiso   1.00
C121   C     0.92279   0.16966   0.06494   0.00000  Uiso   1.00
C122   C     0.79508   0.15056   0.40494   0.00000  Uiso   1.00
C123   C     0.87351   0.31087   0.22039   0.00000  Uiso   1.00
C124   C     0.80803   0.16168   0.34934   0.00000  Uiso   1.00
C125   C     0.87437   0.02027   0.21837   0.00000  Uiso   1.00
C126   C     0.83398   0.04284   0.24842   0.00000  Uiso   1.00
C127   C     0.79314   0.02250   0.27950   0.00000  Uiso   1.00
C128   C     0.79226   0.31310   0.28149   0.00000  Uiso   1.00
C129   C     0.83268   0.29052   0.25149   0.00000  Uiso   1.00
C130   C     0.96623   0.19151   0.28338   0.00000  Uiso   1.00
C131   C     0.68243   0.19148   0.28337   0.00000  Uiso   1.00
C132   C     0.69984   0.14135   0.21698   0.00000  Uiso   1.00
C133   C     0.98385   0.14178   0.21689   0.00000  Uiso   1.00
C134   C     0.83375   0.08745   0.24877   0.00000  Uiso   1.00
C135   C     0.85920   0.16690   0.15018   0.00000  Uiso   1.00
C136   C     0.93602   0.16588   0.01129   0.00000  Uiso   1.00
C137   C     0.87394   0.16526   0.09357   0.00000  Uiso   1.00
C138   C     0.74595   0.14418   0.43187   0.00000  Uiso   1.00
C139   C     0.73232   0.13618   0.48472   0.00000  Uiso   1.00
C140   C     0.76615   0.13905   0.01259   0.00000  Uiso   1.00
Cu141  Cu    0.78645   0.16666   0.25000   0.00000  Uiso   1.00
Cu142  Cu    0.88022   0.16667   0.25000   0.00000  Uiso   1.00
H143   H     0.94039   0.21141   0.31022   0.00000  Uiso   1.00
H144   H     0.95417   0.14676   0.41182   0.00000  Uiso   1.00
H145   H     0.71808   0.14457   0.41189   0.00000  Uiso   1.00
H146   H     0.75261   0.13381   0.05369   0.00000  Uiso   1.00
H147   H     0.69511   0.12844   0.00483   0.00000  Uiso   1.00
H148   H     0.89559   0.13122   0.36746   0.00000  Uiso   1.00
N149   N     0.71598   0.16666   0.24998   0.00000  Uiso   1.00
N150   N     0.95069   0.16669   0.24999   0.00000  Uiso   1.00
O151   O     0.79375   0.22678   0.25000   0.00000  Uiso   1.00
O152   O     0.87294   0.22679   0.25000   0.00000  Uiso   1.00
O153   O     0.77441   0.16665   0.32549   0.00000  Uiso   1.00
O154   O     0.85360   0.16666   0.32549   0.00000  Uiso   1.00
O155   O     0.79373   0.10654   0.24999   0.00000  Uiso   1.00
O156   O     0.87292   0.10655   0.24999   0.00000  Uiso   1.00
O157   O     0.81306   0.16667   0.17451   0.00000  Uiso   1.00
O158   O     0.89225   0.16668   0.17451   0.00000  Uiso   1.00
H159   H     0.95064   0.17608   0.08390   0.00000  Uiso   1.00
Cl160  Cl    0.92534   0.04388   0.17542   0.00000  Uiso   1.00
H161   H     0.76229   0.03994   0.30317   0.00000  Uiso   1.00
Cl162  Cl    0.74123   0.28951   0.32435   0.00000  Uiso   1.00
H163   H     0.69370   0.21121   0.31031   0.00000  Uiso   1.00
Cl164  Cl    0.73872   0.10642   0.17434   0.00000  Uiso   1.00
H165   H     0.97208   0.12196   0.19036   0.00000  Uiso   1.00
H166   H     0.97346   0.17080   0.48923   0.00000  Uiso   1.00
H167   H     0.80087   0.15808   0.09092   0.00000  Uiso   1.00
H168   H     0.90435   0.29343   0.19671   0.00000  Uiso   1.00
C169   C     0.16626   0.57922   0.25120   0.00000  Uiso   1.00
C170   C     0.14913   0.47978   0.48713   0.00000  Uiso   1.00
C171   C     0.16430   0.47981   0.43219   0.00000  Uiso   1.00
C172   C     0.18450   0.48645   0.01415   0.00000  Uiso   1.00
C173   C     0.23442   0.48945   0.48603   0.00000  Uiso   1.00
C174   C     0.24916   0.48157   0.43310   0.00000  Uiso   1.00
C175   C     0.21471   0.47502   0.40697   0.00000  Uiso   1.00
C176   C     0.17172   0.49188   0.06803   0.00000  Uiso   1.00
C177   C     0.25612   0.50299   0.06494   0.00000  Uiso   1.00
C178   C     0.12841   0.48389   0.40494   0.00000  Uiso   1.00
C179   C     0.20685   0.64420   0.22039   0.00000  Uiso   1.00
C180   C     0.14136   0.49501   0.34934   0.00000  Uiso   1.00
C181   C     0.20771   0.35360   0.21837   0.00000  Uiso   1.00
C182   C     0.16732   0.37617   0.24842   0.00000  Uiso   1.00
C183   C     0.12647   0.35583   0.27950   0.00000  Uiso   1.00
C184   C     0.12560   0.64643   0.28149   0.00000  Uiso   1.00
C185   C     0.16601   0.62385   0.25149   0.00000  Uiso   1.00
C186   C     0.29956   0.52484   0.28338   0.00000  Uiso   1.00
C187   C     0.01576   0.52481   0.28337   0.00000  Uiso   1.00
C188   C     0.03317   0.47468   0.21698   0.00000  Uiso   1.00
C189   C     0.31718   0.47511   0.21689   0.00000  Uiso   1.00
C190   C     0.16708   0.42078   0.24877   0.00000  Uiso   1.00
C191   C     0.19253   0.50024   0.15018   0.00000  Uiso   1.00
C192   C     0.26936   0.49921   0.01129   0.00000  Uiso   1.00
C193   C     0.20727   0.49860   0.09357   0.00000  Uiso   1.00
C194   C     0.07928   0.47751   0.43187   0.00000  Uiso   1.00
C195   C     0.06565   0.46952   0.48472   0.00000  Uiso   1.00
C196   C     0.09949   0.47238   0.01259   0.00000  Uiso   1.00
Cu197  Cu    0.11978   0.49999   0.25000   0.00000  Uiso   1.00
Cu198  Cu    0.21355   0.50001   0.25000   0.00000  Uiso   1.00
H199   H     0.27372   0.54474   0.31022   0.00000  Uiso   1.00
H200   H     0.28751   0.48010   0.41182   0.00000  Uiso   1.00
H201   H     0.05141   0.47791   0.41189   0.00000  Uiso   1.00
H202   H     0.08595   0.46714   0.05369   0.00000  Uiso   1.00
H203   H     0.02844   0.46177   0.00483   0.00000  Uiso   1.00
H204   H     0.22893   0.46456   0.36746   0.00000  Uiso   1.00
N205   N     0.04931   0.49999   0.24998   0.00000  Uiso   1.00
N206   N     0.28402   0.50002   0.24999   0.00000  Uiso   1.00
O207   O     0.12708   0.56011   0.25000   0.00000  Uiso   1.00
O208   O     0.20627   0.56012   0.25000   0.00000  Uiso   1.00
O209   O     0.10775   0.49998   0.32549   0.00000  Uiso   1.00
O210   O     0.18694   0.49999   0.32549   0.00000  Uiso   1.00
O211   O     0.12706   0.43988   0.24999   0.00000  Uiso   1.00
O212   O     0.20625   0.43989   0.24999   0.00000  Uiso   1.00
O213   O     0.14640   0.50001   0.17451   0.00000  Uiso   1.00
O214   O     0.22559   0.50002   0.17451   0.00000  Uiso   1.00
H215   H     0.28397   0.50941   0.08390   0.00000  Uiso   1.00
Cl216  Cl    0.25867   0.37722   0.17542   0.00000  Uiso   1.00
H217   H     0.09563   0.37327   0.30317   0.00000  Uiso   1.00
Cl218  Cl    0.07456   0.62284   0.32435   0.00000  Uiso   1.00
H219   H     0.02704   0.54454   0.31031   0.00000  Uiso   1.00
Cl220  Cl    0.07205   0.43975   0.17434   0.00000  Uiso   1.00
H221   H     0.30541   0.45529   0.19036   0.00000  Uiso   1.00
H222   H     0.30679   0.50413   0.48923   0.00000  Uiso   1.00
H223   H     0.13421   0.49141   0.09092   0.00000  Uiso   1.00
H224   H     0.23769   0.62677   0.19671   0.00000  Uiso   1.00
C225   C     0.49959   0.57922   0.25120   0.00000  Uiso   1.00
C226   C     0.48247   0.47978   0.48713   0.00000  Uiso   1.00
C227   C     0.49764   0.47981   0.43219   0.00000  Uiso   1.00
C228   C     0.51783   0.48645   0.01415   0.00000  Uiso   1.00
C229   C     0.56776   0.48945   0.48603   0.00000  Uiso   1.00
C230   C     0.58249   0.48157   0.43310   0.00000  Uiso   1.00
C231   C     0.54805   0.47502   0.40697   0.00000  Uiso   1.00
C232   C     0.50506   0.49188   0.06803   0.00000  Uiso   1.00
C233   C     0.58945   0.50299   0.06494   0.00000  Uiso   1.00
C234   C     0.46174   0.48389   0.40494   0.00000  Uiso   1.00
C235   C     0.54018   0.64420   0.22039   0.00000  Uiso   1.00
C236   C     0.47470   0.49501   0.34934   0.00000  Uiso   1.00
C237   C     0.54104   0.35360   0.21837   0.00000  Uiso   1.00
C238   C     0.50065   0.37617   0.24842   0.00000  Uiso   1.00
C239   C     0.45980   0.35583   0.27950   0.00000  Uiso   1.00
C240   C     0.45893   0.64643   0.28149   0.00000  Uiso   1.00
C241   C     0.49934   0.62385   0.25149   0.00000  Uiso   1.00
C242   C     0.63289   0.52484   0.28338   0.00000  Uiso   1.00
C243   C     0.34909   0.52481   0.28337   0.00000  Uiso   1.00
C244   C     0.36650   0.47468   0.21698   0.00000  Uiso   1.00
C245   C     0.65051   0.47511   0.21689   0.00000  Uiso   1.00
C246   C     0.50041   0.42078   0.24877   0.00000  Uiso   1.00
C247   C     0.52587   0.50024   0.15018   0.00000  Uiso   1.00
C248   C     0.60269   0.49921   0.01129   0.00000  Uiso   1.00
C249   C     0.54060   0.49860   0.09357   0.00000  Uiso   1.00
C250   C     0.41261   0.47751   0.43187   0.00000  Uiso   1.00
C251   C     0.39898   0.46952   0.48472   0.00000  Uiso   1.00
C252   C     0.43282   0.47238   0.01259   0.00000  Uiso   1.00
Cu253  Cu    0.45311   0.49999   0.25000   0.00000  Uiso   1.00
Cu254  Cu    0.54689   0.50001   0.25000   0.00000  Uiso   1.00
H255   H     0.60706   0.54474   0.31022   0.00000  Uiso   1.00
H256   H     0.62084   0.48010   0.41182   0.00000  Uiso   1.00
H257   H     0.38474   0.47791   0.41189   0.00000  Uiso   1.00
H258   H     0.41928   0.46714   0.05369   0.00000  Uiso   1.00
H259   H     0.36178   0.46177   0.00483   0.00000  Uiso   1.00
H260   H     0.56226   0.46456   0.36746   0.00000  Uiso   1.00
N261   N     0.38265   0.49999   0.24998   0.00000  Uiso   1.00
N262   N     0.61735   0.50002   0.24999   0.00000  Uiso   1.00
O263   O     0.46042   0.56011   0.25000   0.00000  Uiso   1.00
O264   O     0.53961   0.56012   0.25000   0.00000  Uiso   1.00
O265   O     0.44108   0.49998   0.32549   0.00000  Uiso   1.00
O266   O     0.52027   0.49999   0.32549   0.00000  Uiso   1.00
O267   O     0.46039   0.43988   0.24999   0.00000  Uiso   1.00
O268   O     0.53958   0.43989   0.24999   0.00000  Uiso   1.00
O269   O     0.47973   0.50001   0.17451   0.00000  Uiso   1.00
O270   O     0.55892   0.50002   0.17451   0.00000  Uiso   1.00
H271   H     0.61731   0.50941   0.08390   0.00000  Uiso   1.00
Cl272  Cl    0.59200   0.37722   0.17542   0.00000  Uiso   1.00
H273   H     0.42896   0.37327   0.30317   0.00000  Uiso   1.00
Cl274  Cl    0.40790   0.62284   0.32435   0.00000  Uiso   1.00
H275   H     0.36037   0.54454   0.31031   0.00000  Uiso   1.00
Cl276  Cl    0.40539   0.43975   0.17434   0.00000  Uiso   1.00
H277   H     0.63874   0.45529   0.19036   0.00000  Uiso   1.00
H278   H     0.64013   0.50413   0.48923   0.00000  Uiso   1.00
H279   H     0.46754   0.49141   0.09092   0.00000  Uiso   1.00
H280   H     0.57102   0.62677   0.19671   0.00000  Uiso   1.00
C281   C     0.83293   0.57922   0.25120   0.00000  Uiso   1.00
C282   C     0.81580   0.47978   0.48713   0.00000  Uiso   1.00
C283   C     0.83097   0.47981   0.43219   0.00000  Uiso   1.00
C284   C     0.85117   0.48645   0.01415   0.00000  Uiso   1.00
C285   C     0.90109   0.48945   0.48603   0.00000  Uiso   1.00
C286   C     0.91582   0.48157   0.43310   0.00000  Uiso   1.00
C287   C     0.88138   0.47502   0.40697   0.00000  Uiso   1.00
C288   C     0.83839   0.49188   0.06803   0.00000  Uiso   1.00
C289   C     0.92279   0.50299   0.06494   0.00000  Uiso   1.00
C290   C     0.79508   0.48389   0.40494   0.00000  Uiso   1.00
C291   C     0.87351   0.64420   0.22039   0.00000  Uiso   1.00
C292   C     0.80803   0.49501   0.34934   0.00000  Uiso   1.00
C293   C     0.87437   0.35360   0.21837   0.00000  Uiso   1.00
C294   C     0.83398   0.37617   0.24842   0.00000  Uiso   1.00
C295   C     0.79314   0.35583   0.27950   0.00000  Uiso   1.00
C296   C     0.79226   0.64643   0.28149   0.00000  Uiso   1.00
C297   C     0.83268   0.62385   0.25149   0.00000  Uiso   1.00
C298   C     0.96623   0.52484   0.28338   0.00000  Uiso   1.00
C299   C     0.68243   0.52481   0.28337   0.00000  Uiso   1.00
C300   C     0.69984   0.47468   0.21698   0.00000  Uiso   1.00
C301   C     0.98385   0.47511   0.21689   0.00000  Uiso   1.00
C302   C     0.83375   0.42078   0.24877   0.00000  Uiso   1.00
C303   C     0.85920   0.50024   0.15018   0.00000  Uiso   1.00
C304   C     0.93602   0.49921   0.01129   0.00000  Uiso   1.00
C305   C     0.87394   0.49860   0.09357   0.00000  Uiso   1.00
C306   C     0.74595   0.47751   0.43187   0.00000  Uiso   1.00
C307   C     0.73232   0.46952   0.48472   0.00000  Uiso   1.00
C308   C     0.76615   0.47238   0.01259   0.00000  Uiso   1.00
Cu309  Cu    0.78645   0.49999   0.25000   0.00000  Uiso   1.00
Cu310  Cu    0.88022   0.50001   0.25000   0.00000  Uiso   1.00
H311   H     0.94039   0.54474   0.31022   0.00000  Uiso   1.00
H312   H     0.95417   0.48010   0.41182   0.00000  Uiso   1.00
H313   H     0.71808   0.47791   0.41189   0.00000  Uiso   1.00
H314   H     0.75261   0.46714   0.05369   0.00000  Uiso   1.00
H315   H     0.69511   0.46177   0.00483   0.00000  Uiso   1.00
H316   H     0.89559   0.46456   0.36746   0.00000  Uiso   1.00
N317   N     0.71598   0.49999   0.24998   0.00000  Uiso   1.00
N318   N     0.95069   0.50002   0.24999   0.00000  Uiso   1.00
O319   O     0.79375   0.56011   0.25000   0.00000  Uiso   1.00
O320   O     0.87294   0.56012   0.25000   0.00000  Uiso   1.00
O321   O     0.77441   0.49998   0.32549   0.00000  Uiso   1.00
O322   O     0.85360   0.49999   0.32549   0.00000  Uiso   1.00
O323   O     0.79373   0.43988   0.24999   0.00000  Uiso   1.00
O324   O     0.87292   0.43989   0.24999   0.00000  Uiso   1.00
O325   O     0.81306   0.50001   0.17451   0.00000  Uiso   1.00
O326   O     0.89225   0.50002   0.17451   0.00000  Uiso   1.00
H327   H     0.95064   0.50941   0.08390   0.00000  Uiso   1.00
Cl328  Cl    0.92534   0.37722   0.17542   0.00000  Uiso   1.00
H329   H     0.76229   0.37327   0.30317   0.00000  Uiso   1.00
Cl330  Cl    0.74123   0.62284   0.32435   0.00000  Uiso   1.00
H331   H     0.69370   0.54454   0.31031   0.00000  Uiso   1.00
Cl332  Cl    0.73872   0.43975   0.17434   0.00000  Uiso   1.00
H333   H     0.97208   0.45529   0.19036   0.00000  Uiso   1.00
H334   H     0.97346   0.50413   0.48923   0.00000  Uiso   1.00
H335   H     0.80087   0.49141   0.09092   0.00000  Uiso   1.00
H336   H     0.90435   0.62677   0.19671   0.00000  Uiso   1.00
C337   C     0.16626   0.91256   0.25120   0.00000  Uiso   1.00
C338   C     0.14913   0.81311   0.48713   0.00000  Uiso   1.00
C339   C     0.16430   0.81314   0.43219   0.00000  Uiso   1.00
C340   C     0.18450   0.81978   0.01415   0.00000  Uiso   1.00
C341   C     0.23442   0.82278   0.48603   0.00000  Uiso   1.00
C342   C     0.24916   0.81490   0.43310   0.00000  Uiso   1.00
C343   C     0.21471   0.80836   0.40697   0.00000  Uiso   1.00
C344   C     0.17172   0.82521   0.06803   0.00000  Uiso   1.00
C345   C     0.25612   0.83632   0.06494   0.00000  Uiso   1.00
C346   C     0.12841   0.81722   0.40494   0.00000  Uiso   1.00
C347   C     0.20685   0.97753   0.22039   0.00000  Uiso   1.00
C348   C     0.14136   0.82835   0.34934   0.00000  Uiso   1.00
C349   C     0.20771   0.68694   0.21837   0.00000  Uiso   1.00
C350   C     0.16732   0.70950   0.24842   0.00000  Uiso   1.00
C351   C     0.12647   0.68916   0.27950   0.00000  Uiso   1.00
C352   C     0.12560   0.97977   0.28149   0.00000  Uiso   1.00
C353   C     0.16601   0.95719   0.25149   0.00000  Uiso   1.00
C354   C     0.29956   0.85817   0.28338   0.00000  Uiso   1.00
C355   C     0.01576   0.85815   0.28337   0.00000  Uiso   1.00
C356   C     0.03317   0.80801   0.21698   0.00000  Uiso   1.00
C357   C     0.31718   0.80844   0.21689   0.00000  Uiso   1.00
C358   C     0.16708   0.75412   0.24877   0.00000  Uiso   1.00
C359   C     0.19253   0.83357   0.15018   0.00000  Uiso   1.00
C360   C     0.26936   0.83254   0.01129   0.00000  Uiso   1.00
C361   C     0.20727   0.83193   0.09357   0.00000  Uiso   1.00
C362   C     0.07928   0.81085   0.43187   0.00000  Uiso   1.00
C363   C     0.06565   0.80285   0.48472   0.00000  Uiso   1.00
C364   C     0.09949   0.80572   0.01259   0.00000  Uiso   1.00
Cu365  Cu    0.11978   0.83333   0.25000   0.00000  Uiso   1.00
Cu366  Cu    0.21355   0.83334   0.25000   0.00000  Uiso   1.00
H367   H     0.27372   0.87807   0.31022   0.00000  Uiso   1.00
H368   H     0.28751   0.81343   0.41182   0.00000  Uiso   1.00
H369   H     0.05141   0.81124   0.41189   0.00000  Uiso   1.00
H370   H     0.08595   0.80048   0.05369   0.00000  Uiso   1.00
H371   H     0.02844   0.79510   0.00483   0.00000  Uiso   1.00
H372   H     0.22893   0.79789   0.36746   0.00000  Uiso   1.00
N373   N     0.04931   0.83332   0.24998   0.00000  Uiso   1.00
N374   N     0.28402   0.83335   0.24999   0.00000  Uiso   1.00
O375   O     0.12708   0.89345   0.25000   0.00000  Uiso   1.00
O376   O     0.20627   0.89346   0.25000   0.00000  Uiso   1.00
O377   O     0.10775   0.83332   0.32549   0.00000  Uiso   1.00
O378   O     0.18694   0.83333   0.32549   0.00000  Uiso   1.00
O379   O     0.12706   0.77321   0.24999   0.00000  Uiso   1.00
O380   O     0.20625   0.77322   0.24999   0.00000  Uiso   1.00
O381   O     0.14640   0.83334   0.17451   0.00000  Uiso   1.00
O382   O     0.22559   0.83335   0.17451   0.00000  Uiso   1.00
H383   H     0.28397   0.84274   0.08390   0.00000  Uiso   1.00
Cl384  Cl    0.25867   0.71055   0.17542   0.00000  Uiso   1.00
H385   H     0.09563   0.70660   0.30317   0.00000  Uiso   1.00
Cl386  Cl    0.07456   0.95618   0.32435   0.00000  Uiso   1.00
H387   H     0.02704   0.87788   0.31031   0.00000  Uiso   1.00
Cl388  Cl    0.07205   0.77309   0.17434   0.00000  Uiso   1.00
H389   H     0.30541   0.78862   0.19036   0.00000  Uiso   1.00
H390   H     0.30679   0.83746   0.48923   0.00000  Uiso   1.00
H391   H     0.13421   0.82474   0.09092   0.00000  Uiso   1.00
H392   H     0.23769   0.96010   0.19671   0.00000  Uiso   1.00
C393   C     0.49959   0.91256   0.25120   0.00000  Uiso   1.00
C394   C     0.48247   0.81311   0.48713   0.00000  Uiso   1.00
C395   C     0.49764   0.81314   0.43219   0.00000  Uiso   1.00
C396   C     0.51783   0.81978   0.01415   0.00000  Uiso   1.00
C397   C     0.56776   0.82278   0.48603   0.00000  Uiso   1.00
C398   C     0.58249   0.81490   0.43310   0.00000  Uiso   1.00
C399   C     0.54805   0.80836   0.40697   0.00000  Uiso   1.00
C400   C     0.50506   0.82521   0.06803   0.00000  Uiso   1.00
C401   C     0.58945   0.83632   0.06494   0.00000  Uiso   1.00
C402   C     0.46174   0.81722   0.40494   0.00000  Uiso   1.00
C403   C     0.54018   0.97753   0.22039   0.00000  Uiso   1.00
C404   C     0.47470   0.82835   0.34934   0.00000  Uiso   1.00
C405   C     0.54104   0.68694   0.21837   0.00000  Uiso   1.00
C406   C     0.50065   0.70950   0.24842   0.00000  Uiso   1.00
C407   C     0.45980   0.68916   0.27950   0.00000  Uiso   1.00
C408   C     0.45893   0.97977   0.28149   0.00000  Uiso   1.00
C409   C     0.49934   0.95719   0.25149   0.00000  Uiso   1.00
C410   C     0.63289   0.85817   0.28338   0.00000  Uiso   1.00
C411   C     0.34909   0.85815   0.28337   0.00000  Uiso   1.00
C412   C     0.36650   0.80801   0.21698   0.00000  Uiso   1.00
C413   C     0.65051   0.80844   0.21689   0.00000  Uiso   1.00
C414   C     0.50041   0.75412   0.24877   0.00000  Uiso   1.00
C415   C     0.52587   0.83357   0.15018   0.00000  Uiso   1.00
C416   C     0.60269   0.83254   0.01129   0.00000  Uiso   1.00
C417   C     0.54060   0.83193   0.09357   0.00000  Uiso   1.00
C418   C     0.41261   0.81085   0.43187   0.00000  Uiso   1.00
C419   C     0.39898   0.80285   0.48472   0.00000  Uiso   1.00
C420   C     0.43282   0.80572   0.01259   0.00000  Uiso   1.00
Cu421  Cu    0.45311   0.83333   0.25000   0.00000  Uiso   1.00
Cu422  Cu    0.54689   0.83334   0.25000   0.00000  Uiso   1.00
H423   H     0.60706   0.87807   0.31022   0.00000  Uiso   1.00
H424   H     0.62084   0.81343   0.41182   0.00000  Uiso   1.00
H425   H     0.38474   0.81124   0.41189   0.00000  Uiso   1.00
H426   H     0.41928   0.80048   0.05369   0.00000  Uiso   1.00
H427   H     0.36178   0.79510   0.00483   0.00000  Uiso   1.00
H428   H     0.56226   0.79789   0.36746   0.00000  Uiso   1.00
N429   N     0.38265   0.83332   0.24998   0.00000  Uiso   1.00
N430   N     0.61735   0.83335   0.24999   0.00000  Uiso   1.00
O431   O     0.46042   0.89345   0.25000   0.00000  Uiso   1.00
O432   O     0.53961   0.89346   0.25000   0.00000  Uiso   1.00
O433   O     0.44108   0.83332   0.32549   0.00000  Uiso   1.00
O434   O     0.52027   0.83333   0.32549   0.00000  Uiso   1.00
O435   O     0.46039   0.77321   0.24999   0.00000  Uiso   1.00
O436   O     0.53958   0.77322   0.24999   0.00000  Uiso   1.00
O437   O     0.47973   0.83334   0.17451   0.00000  Uiso   1.00
O438   O     0.55892   0.83335   0.17451   0.00000  Uiso   1.00
H439   H     0.61731   0.84274   0.08390   0.00000  Uiso   1.00
Cl440  Cl    0.59200   0.71055   0.17542   0.00000  Uiso   1.00
H441   H     0.42896   0.70660   0.30317   0.00000  Uiso   1.00
Cl442  Cl    0.40790   0.95618   0.32435   0.00000  Uiso   1.00
H443   H     0.36037   0.87788   0.31031   0.00000  Uiso   1.00
Cl444  Cl    0.40539   0.77309   0.17434   0.00000  Uiso   1.00
H445   H     0.63874   0.78862   0.19036   0.00000  Uiso   1.00
H446   H     0.64013   0.83746   0.48923   0.00000  Uiso   1.00
H447   H     0.46754   0.82474   0.09092   0.00000  Uiso   1.00
H448   H     0.57102   0.96010   0.19671   0.00000  Uiso   1.00
C449   C     0.83293   0.91256   0.25120   0.00000  Uiso   1.00
C450   C     0.81580   0.81311   0.48713   0.00000  Uiso   1.00
C451   C     0.83097   0.81314   0.43219   0.00000  Uiso   1.00
C452   C     0.85117   0.81978   0.01415   0.00000  Uiso   1.00
C453   C     0.90109   0.82278   0.48603   0.00000  Uiso   1.00
C454   C     0.91582   0.81490   0.43310   0.00000  Uiso   1.00
C455   C     0.88138   0.80836   0.40697   0.00000  Uiso   1.00
C456   C     0.83839   0.82521   0.06803   0.00000  Uiso   1.00
C457   C     0.92279   0.83632   0.06494   0.00000  Uiso   1.00
C458   C     0.79508   0.81722   0.40494   0.00000  Uiso   1.00
C459   C     0.87351   0.97753   0.22039   0.00000  Uiso   1.00
C460   C     0.80803   0.82835   0.34934   0.00000  Uiso   1.00
C461   C     0.87437   0.68694   0.21837   0.00000  Uiso   1.00
C462   C     0.83398   0.70950   0.24842   0.00000  Uiso   1.00
C463   C     0.79314   0.68916   0.27950   0.00000  Uiso   1.00
C464   C     0.79226   0.97977   0.28149   0.00000  Uiso   1.00
C465   C     0.83268   0.95719   0.25149   0.00000  Uiso   1.00
C466   C     0.96623   0.85817   0.28338   0.00000  Uiso   1.00
C467   C     0.68243   0.85815   0.28337   0.00000  Uiso   1.00
C468   C     0.69984   0.80801   0.21698   0.00000  Uiso   1.00
C469   C     0.98385   0.80844   0.21689   0.00000  Uiso   1.00
C470   C     0.83375   0.75412   0.24877   0.00000  Uiso   1.00
C471   C     0.85920   0.83357   0.15018   0.00000  Uiso   1.00
C472   C     0.93602   0.83254   0.01129   0.00000  Uiso   1.00
C473   C     0.87394   0.83193   0.09357   0.00000  Uiso   1.00
C474   C     0.74595   0.81085   0.43187   0.00000  Uiso   1.00
C475   C     0.73232   0.80285   0.48472   0.00000  Uiso   1.00
C476   C     0.76615   0.80572   0.01259   0.00000  Uiso   1.00
Cu477  Cu    0.78645   0.83333   0.25000   0.00000  Uiso   1.00
Cu478  Cu    0.88022   0.83334   0.25000   0.00000  Uiso   1.00
H479   H     0.94039   0.87807   0.31022   0.00000  Uiso   1.00
H480   H     0.95417   0.81343   0.41182   0.00000  Uiso   1.00
H481   H     0.71808   0.81124   0.41189   0.00000  Uiso   1.00
H482   H     0.75261   0.80048   0.05369   0.00000  Uiso   1.00
H483   H     0.69511   0.79510   0.00483   0.00000  Uiso   1.00
H484   H     0.89559   0.79789   0.36746   0.00000  Uiso   1.00
N485   N     0.71598   0.83332   0.24998   0.00000  Uiso   1.00
N486   N     0.95069   0.83335   0.24999   0.00000  Uiso   1.00
O487   O     0.79375   0.89345   0.25000   0.00000  Uiso   1.00
O488   O     0.87294   0.89346   0.25000   0.00000  Uiso   1.00
O489   O     0.77441   0.83332   0.32549   0.00000  Uiso   1.00
O490   O     0.85360   0.83333   0.32549   0.00000  Uiso   1.00
O491   O     0.79373   0.77321   0.24999   0.00000  Uiso   1.00
O492   O     0.87292   0.77322   0.24999   0.00000  Uiso   1.00
O493   O     0.81306   0.83334   0.17451   0.00000  Uiso   1.00
O494   O     0.89225   0.83335   0.17451   0.00000  Uiso   1.00
H495   H     0.95064   0.84274   0.08390   0.00000  Uiso   1.00
Cl496  Cl    0.92534   0.71055   0.17542   0.00000  Uiso   1.00
H497   H     0.76229   0.70660   0.30317   0.00000  Uiso   1.00
Cl498  Cl    0.74123   0.95618   0.32435   0.00000  Uiso   1.00
H499   H     0.69370   0.87788   0.31031   0.00000  Uiso   1.00
Cl500  Cl    0.73872   0.77309   0.17434   0.00000  Uiso   1.00
H501   H     0.97208   0.78862   0.19036   0.00000  Uiso   1.00
H502   H     0.97346   0.83746   0.48923   0.00000  Uiso   1.00
H503   H     0.80087   0.82474   0.09092   0.00000  Uiso   1.00
H504   H     0.90435   0.96010   0.19671   0.00000  Uiso   1.00
C505   C     0.16626   0.24589   0.75120   0.00000  Uiso   1.00
C506   C     0.14913   0.14645   0.98713   0.00000  Uiso   1.00
C507   C     0.16430   0.14647   0.93219   0.00000  Uiso   1.00
C508   C     0.18450   0.15311   0.51415   0.00000  Uiso   1.00
C509   C     0.23442   0.15611   0.98603   0.00000  Uiso   1.00
C510   C     0.24916   0.14824   0.93310   0.00000  Uiso   1.00
C511   C     0.21471   0.14169   0.90697   0.00000  Uiso   1.00
C512   C     0.17172   0.15854   0.56803   0.00000  Uiso   1.00
C513   C     0.25612   0.16966   0.56494   0.00000  Uiso   1.00
C514   C     0.12841   0.15056   0.90494   0.00000  Uiso   1.00
C515   C     0.20685   0.31087   0.72039   0.00000  Uiso   1.00
C516   C     0.14136   0.16168   0.84934   0.00000  Uiso   1.00
C517   C     0.20771   0.02027   0.71837   0.00000  Uiso   1.00
C518   C     0.16732   0.04284   0.74842   0.00000  Uiso   1.00
C519   C     0.12647   0.02250   0.77950   0.00000  Uiso   1.00
C520   C     0.12560   0.31310   0.78149   0.00000  Uiso   1.00
C521   C     0.16601   0.29052   0.75149   0.00000  Uiso   1.00
C522   C     0.29956   0.19151   0.78338   0.00000  Uiso   1.00
C523   C     0.01576   0.19148   0.78337   0.00000  Uiso   1.00
C524   C     0.03317   0.14135   0.71698   0.00000  Uiso   1.00
C525   C     0.31718   0.14178   0.71689   0.00000  Uiso   1.00
C526   C     0.16708   0.08745   0.74877   0.00000  Uiso   1.00
C527   C     0.19253   0.16690   0.65018   0.00000  Uiso   1.00
C528   C     0.26936   0.16588   0.51129   0.00000  Uiso   1.00
C529   C     0.20727   0.16526   0.59357   0.00000  Uiso   1.00
C530   C     0.07928   0.14418   0.93187   0.00000  Uiso   1.00
C531   C     0.06565   0.13618   0.98472   0.00000  Uiso   1.00
C532   C     0.09949   0.13905   0.51259   0.00000  Uiso   1.00
Cu533  Cu    0.11978   0.16666   0.75000   0.00000  Uiso   1.00
Cu534  Cu    0.21355   0.16667   0.75000   0.00000  Uiso   1.00
H535   H     0.27372   0.21141   0.81022   0.00000  Uiso   1.00
H536   H     0.28751   0.14676   0.91182   0.00000  Uiso   1.00
H537   H     0.05141   0.14457   0.91189   0.00000  Uiso   1.00
H538   H     0.08595   0.13381   0.55369   0.00000  Uiso   1.00
H539   H     0.02844   0.12844   0.50483   0.00000  Uiso   1.00
H540   H     0.22893   0.13122   0.86746   0.00000  Uiso   1.00
N541   N     0.04931   0.16666   0.74998   0.00000  Uiso   1.00
N542   N     0.28402   0.16669   0.74999   0.00000  Uiso   1.00
O543   O     0.12708   0.22678   0.75000   0.00000  Uiso   1.00
O544   O     0.20627   0.22679   0.75000   0.00000  Uiso   1.00
O545   O     0.10775   0.16665   0.82549   0.00000  Uiso   1.00
O546   O     0.18694   0.16666   0.82549   0.00000  Uiso   1.00
O547   O     0.12706   0.10654   0.74999   0.00000  Uiso   1.00
O548   O     0.20625   0.10655   0.74999   0.00000  Uiso   1.00
O549   O     0.14640   0.16667   0.67451   0.00000  Uiso   1.00
O550   O     0.22559   0.16668   0.67451   0.00000  Uiso   1.00
H551   H     0.28397   0.17608   0.58390   0.00000  Uiso   1.00
Cl552  Cl    0.25867   0.04388   0.67542   0.00000  Uiso   1.00
H553   H     0.09563   0.03994   0.80317   0.00000  Uiso   1.00
Cl554  Cl    0.07456   0.28951   0.82435   0.00000  Uiso   1.00
H555   H     0.02704   0.21121   0.81031   0.00000  Uiso   1.00
Cl556  Cl    0.07205   0.10642   0.67434   0.00000  Uiso   1.00
H557   H     0.30541   0.12196   0.69036   0.00000  Uiso   1.00
H558   H     0.30679   0.17080   0.98923   0.00000  Uiso   1.00
H559   H     0.13421   0.15808   0.59092   0.00000  Uiso   1.00
H560   H     0.23769   0.29343   0.69671   0.00000  Uiso   1.00
C561   C     0.49959   0.24589   0.75120   0.00000  Uiso   1.00
C562   C     0.48247   0.14645   0.98713   0.00000  Uiso   1.00
C563   C     0.49764   0.14647   0.93219   0.00000  Uiso   1.00
C564   C     0.51783   0.15311   0.51415   0.00000  Uiso   1.00
C565   C     0.56776   0.15611   0.98603   0.00000  Uiso   1.00
C566   C     0.58249   0.14824   0.93310   0.00000  Uiso   1.00
C567   C     0.54805   0.14169   0.90697   0.00000  Uiso   1.00
C568   C     0.50506   0.15854   0.56803   0.00000  Uiso   1.00
C569   C     0.58945   0.16966   0.56494   0.00000  Uiso   1.00
C570   C     0.46174   0.15056   0.90494   0.00000  Uiso   1.00
C571   C     0.54018   0.31087   0.72039   0.00000  Uiso   1.00
C572   C     0.47470   0.16168   0.84934   0.00000  Uiso   1.00
C573   C     0.54104   0.02027   0.71837   0.00000  Uiso   1.00
C574   C     0.50065   0.04284   0.74842   0.00000  Uiso   1.00
C575   C     0.45980   0.02250   0.77950   0.00000  Uiso   1.00
C576   C     0.45893   0.31310   0.78149   0.00000  Uiso   1.00
C577   C     0.49934   0.29052   0.75149   0.00000  Uiso   1.00
C578   C     0.63289   0.19151   0.78338   0.00000  Uiso   1.00
C579   C     0.34909   0.19148   0.78337   0.00000  Uiso   1.00
C580   C     0.36650   0.14135   0.71698   0.00000  Uiso   1.00
C581   C     0.65051   0.14178   0.71689   0.00000  Uiso   1.00
C582   C     0.50041   0.08745   0.74877   0.00000  Uiso   1.00
C583   C     0.52587   0.16690   0.65018   0.00000  Uiso   1.00
C584   C     0.60269   0.16588   0.51129   0.00000  Uiso   1.00
C585   C     0.54060   0.16526   0.59357   0.00000  Uiso   1.00
C586   C     0.41261   0.14418   0.93187   0.00000  Uiso   1.00
C587   C     0.39898   0.13618   0.98472   0.00000  Uiso   1.00
C588   C     0.43282   0.13905   0.51259   0.00000  Uiso   1.00
Cu589  Cu    0.45311   0.16666   0.75000   0.00000  Uiso   1.00
Cu590  Cu    0.54689   0.16667   0.75000   0.00000  Uiso   1.00
H591   H     0.60706   0.21141   0.81022   0.00000  Uiso   1.00
H592   H     0.62084   0.14676   0.91182   0.00000  Uiso   1.00
H593   H     0.38474   0.14457   0.91189   0.00000  Uiso   1.00
H594   H     0.41928   0.13381   0.55369   0.00000  Uiso   1.00
H595   H     0.36178   0.12844   0.50483   0.00000  Uiso   1.00
H596   H     0.56226   0.13122   0.86746   0.00000  Uiso   1.00
N597   N     0.38265   0.16666   0.74998   0.00000  Uiso   1.00
N598   N     0.61735   0.16669   0.74999   0.00000  Uiso   1.00
O599   O     0.46042   0.22678   0.75000   0.00000  Uiso   1.00
O600   O     0.53961   0.22679   0.75000   0.00000  Uiso   1.00
O601   O     0.44108   0.16665   0.82549   0.00000  Uiso   1.00
O602   O     0.52027   0.16666   0.82549   0.00000  Uiso   1.00
O603   O     0.46039   0.10654   0.74999   0.00000  Uiso   1.00
O604   O     0.53958   0.10655   0.74999   0.00000  Uiso   1.00
O605   O     0.47973   0.16667   0.67451   0.00000  Uiso   1.00
O606   O     0.55892   0.16668   0.67451   0.00000  Uiso   1.00
H607   H     0.61731   0.17608   0.58390   0.00000  Uiso   1.00
Cl608  Cl    0.59200   0.04388   0.67542   0.00000  Uiso   1.00
H609   H     0.42896   0.03994   0.80317   0.00000  Uiso   1.00
Cl610  Cl    0.40790   0.28951   0.82435   0.00000  Uiso   1.00
H611   H     0.36037   0.21121   0.81031   0.00000  Uiso   1.00
Cl612  Cl    0.40539   0.10642   0.67434   0.00000  Uiso   1.00
H613   H     0.63874   0.12196   0.69036   0.00000  Uiso   1.00
H614   H     0.64013   0.17080   0.98923   0.00000  Uiso   1.00
H615   H     0.46754   0.15808   0.59092   0.00000  Uiso   1.00
H616   H     0.57102   0.29343   0.69671   0.00000  Uiso   1.00
C617   C     0.83293   0.24589   0.75120   0.00000  Uiso   1.00
C618   C     0.81580   0.14645   0.98713   0.00000  Uiso   1.00
C619   C     0.83097   0.14647   0.93219   0.00000  Uiso   1.00
C620   C     0.85117   0.15311   0.51415   0.00000  Uiso   1.00
C621   C     0.90109   0.15611   0.98603   0.00000  Uiso   1.00
C622   C     0.91582   0.14824   0.93310   0.00000  Uiso   1.00
C623   C     0.88138   0.14169   0.90697   0.00000  Uiso   1.00
C624   C     0.83839   0.15854   0.56803   0.00000  Uiso   1.00
C625   C     0.92279   0.16966   0.56494   0.00000  Uiso   1.00
C626   C     0.79508   0.15056   0.90494   0.00000  Uiso   1.00
C627   C     0.87351   0.31087   0.72039   0.00000  Uiso   1.00
C628   C     0.80803   0.16168   0.84934   0.00000  Uiso   1.00
C629   C     0.87437   0.02027   0.71837   0.00000  Uiso   1.00
C630   C     0.83398   0.04284   0.74842   0.00000  Uiso   1.00
C631   C     0.79314   0.02250   0.77950   0.00000  Uiso   1.00
C632   C     0.79226   0.31310   0.78149   0.00000  Uiso   1.00
C633   C     0.83268   0.29052   0.75149   0.00000  Uiso   1.00
C634   C     0.96623   0.19151   0.78338   0.00000  Uiso   1.00
C635   C     0.68243   0.19148   0.78337   0.00000  Uiso   1.00
C636   C     0.69984   0.14135   0.71698   0.00000  Uiso   1.00
C637   C     0.98385   0.14178   0.71689   0.00000  Uiso   1.00
C638   C     0.83375   0.08745   0.74877   0.00000  Uiso   1.00
C639   C     0.85920   0.16690   0.65018   0.00000  Uiso   1.00
C640   C     0.93602   0.16588   0.51129   0.00000  Uiso   1.00
C641   C     0.87394   0.16526   0.59357   0.00000  Uiso   1.00
C642   C     0.74595   0.14418   0.93187   0.00000  Uiso   1.00
C643   C     0.73232   0.13618   0.98472   0.00000  Uiso   1.00
C644   C     0.76615   0.13905   0.51259   0.00000  Uiso   1.00
Cu645  Cu    0.78645   0.16666   0.75000   0.00000  Uiso   1.00
Cu646  Cu    0.88022   0.16667   0.75000   0.00000  Uiso   1.00
H647   H     0.94039   0.21141   0.81022   0.00000  Uiso   1.00
H648   H     0.95417   0.14676   0.91182   0.00000  Uiso   1.00
H649   H     0.71808   0.14457   0.91189   0.00000  Uiso   1.00
H650   H     0.75261   0.13381   0.55369   0.00000  Uiso   1.00
H651   H     0.69511   0.12844   0.50483   0.00000  Uiso   1.00
H652   H     0.89559   0.13122   0.86746   0.00000  Uiso   1.00
N653   N     0.71598   0.16666   0.74998   0.00000  Uiso   1.00
N654   N     0.95069   0.16669   0.74999   0.00000  Uiso   1.00
O655   O     0.79375   0.22678   0.75000   0.00000  Uiso   1.00
O656   O     0.87294   0.22679   0.75000   0.00000  Uiso   1.00
O657   O     0.77441   0.16665   0.82549   0.00000  Uiso   1.00
O658   O     0.85360   0.16666   0.82549   0.00000  Uiso   1.00
O659   O     0.79373   0.10654   0.74999   0.00000  Uiso   1.00
O660   O     0.87292   0.10655   0.74999   0.00000  Uiso   1.00
O661   O     0.81306   0.16667   0.67451   0.00000  Uiso   1.00
O662   O     0.89225   0.16668   0.67451   0.00000  Uiso   1.00
H663   H     0.95064   0.17608   0.58390   0.00000  Uiso   1.00
Cl664  Cl    0.92534   0.04388   0.67542   0.00000  Uiso   1.00
H665   H     0.76229   0.03994   0.80317   0.00000  Uiso   1.00
Cl666  Cl    0.74123   0.28951   0.82435   0.00000  Uiso   1.00
H667   H     0.69370   0.21121   0.81031   0.00000  Uiso   1.00
Cl668  Cl    0.73872   0.10642   0.67434   0.00000  Uiso   1.00
H669   H     0.97208   0.12196   0.69036   0.00000  Uiso   1.00
H670   H     0.97346   0.17080   0.98923   0.00000  Uiso   1.00
H671   H     0.80087   0.15808   0.59092   0.00000  Uiso   1.00
H672   H     0.90435   0.29343   0.69671   0.00000  Uiso   1.00
C673   C     0.16626   0.57922   0.75120   0.00000  Uiso   1.00
C674   C     0.14913   0.47978   0.98713   0.00000  Uiso   1.00
C675   C     0.16430   0.47981   0.93219   0.00000  Uiso   1.00
C676   C     0.18450   0.48645   0.51415   0.00000  Uiso   1.00
C677   C     0.23442   0.48945   0.98603   0.00000  Uiso   1.00
C678   C     0.24916   0.48157   0.93310   0.00000  Uiso   1.00
C679   C     0.21471   0.47502   0.90697   0.00000  Uiso   1.00
C680   C     0.17172   0.49188   0.56803   0.00000  Uiso   1.00
C681   C     0.25612   0.50299   0.56494   0.00000  Uiso   1.00
C682   C     0.12841   0.48389   0.90494   0.00000  Uiso   1.00
C683   C     0.20685   0.64420   0.72039   0.00000  Uiso   1.00
C684   C     0.14136   0.49501   0.84934   0.00000  Uiso   1.00
C685   C     0.20771   0.35360   0.71837   0.00000  Uiso   1.00
C686   C     0.16732   0.37617   0.74842   0.00000  Uiso   1.00
C687   C     0.12647   0.35583   0.77950   0.00000  Uiso   1.00
C688   C     0.12560   0.64643   0.78149   0.00000  Uiso   1.00
C689   C     0.16601   0.62385   0.75149   0.00000  Uiso   1.00
C690   C     0.29956   0.52484   0.78338   0.00000  Uiso   1.00
C691   C     0.01576   0.52481   0.78337   0.00000  Uiso   1.00
C692   C     0.03317   0.47468   0.71698   0.00000  Uiso   1.00
C693   C     0.31718   0.47511   0.71689   0.00000  Uiso   1.00
C694   C     0.16708   0.42078   0.74877   0.00000  Uiso   1.00
C695   C     0.19253   0.50024   0.65018   0.00000  Uiso   1.00
C696   C     0.26936   0.49921   0.51129   0.00000  Uiso   1.00
C697   C     0.20727   0.49860   0.59357   0.00000  Uiso   1.00
C698   C     0.07928   0.47751   0.93187   0.00000  Uiso   1.00
C699   C     0.06565   0.46952   0.98472   0.00000  Uiso   1.00
C700   C     0.09949   0.47238   0.51259   0.00000  Uiso   1.00
Cu701  Cu    0.11978   0.49999   0.75000   0.00000  Uiso   1.00
Cu702  Cu    0.21355   0.50001   0.75000   0.00000  Uiso   1.00
H703   H     0.27372   0.54474   0.81022   0.00000  Uiso   1.00
H704   H     0.28751   0.48010   0.91182   0.00000  Uiso   1.00
H705   H     0.05141   0.47791   0.91189   0.00000  Uiso   1.00
H706   H     0.08595   0.46714   0.55369   0.00000  Uiso   1.00
H707   H     0.02844   0.46177   0.50483   0.00000  Uiso   1.00
H708   H     0.22893   0.46456   0.86746   0.00000  Uiso   1.00
N709   N     0.04931   0.49999   0.74998   0.00000  Uiso   1.00
N710   N     0.28402   0.50002   0.74999   0.00000  Uiso   1.00
O711   O     0.12708   0.56011   0.75000   0.00000  Uiso   1.00
O712   O     0.20627   0.56012   0.75000   0.00000  Uiso   1.00
O713   O     0.10775   0.49998   0.82549   0.00000  Uiso   1.00
O714   O     0.18694   0.49999   0.82549   0.00000  Uiso   1.00
O715   O     0.12706   0.43988   0.74999   0.00000  Uiso   1.00
O716   O     0.20625   0.43989   0.74999   0.00000  Uiso   1.00
O717   O     0.14640   0.50001   0.67451   0.00000  Uiso   1.00
O718   O     0.22559   0.50002   0.67451   0.00000  Uiso   1.00
H719   H     0.28397   0.50941   0.58390   0.00000  Uiso   1.00
Cl720  Cl    0.25867   0.37722   0.67542   0.00000  Uiso   1.00
H721   H     0.09563   0.37327   0.80317   0.00000  Uiso   1.00
Cl722  Cl    0.07456   0.62284   0.82435   0.00000  Uiso   1.00
H723   H     0.02704   0.54454   0.81031   0.00000  Uiso   1.00
Cl724  Cl    0.07205   0.43975   0.67434   0.00000  Uiso   1.00
H725   H     0.30541   0.45529   0.69036   0.00000  Uiso   1.00
H726   H     0.30679   0.50413   0.98923   0.00000  Uiso   1.00
H727   H     0.13421   0.49141   0.59092   0.00000  Uiso   1.00
H728   H     0.23769   0.62677   0.69671   0.00000  Uiso   1.00
C729   C     0.49959   0.57922   0.75120   0.00000  Uiso   1.00
C730   C     0.48247   0.47978   0.98713   0.00000  Uiso   1.00
C731   C     0.49764   0.47981   0.93219   0.00000  Uiso   1.00
C732   C     0.51783   0.48645   0.51415   0.00000  Uiso   1.00
C733   C     0.56776   0.48945   0.98603   0.00000  Uiso   1.00
C734   C     0.58249   0.48157   0.93310   0.00000  Uiso   1.00
C735   C     0.54805   0.47502   0.90697   0.00000  Uiso   1.00
C736   C     0.50506   0.49188   0.56803   0.00000  Uiso   1.00
C737   C     0.58945   0.50299   0.56494   0.00000  Uiso   1.00
C738   C     0.46174   0.48389   0.90494   0.00000  Uiso   1.00
C739   C     0.54018   0.64420   0.72039   0.00000  Uiso   1.00
C740   C     0.47470   0.49501   0.84934   0.00000  Uiso   1.00
C741   C     0.54104   0.35360   0.71837   0.00000  Uiso   1.00
C742   C     0.50065   0.37617   0.74842   0.00000  Uiso   1.00
C743   C     0.45980   0.35583   0.77950   0.00000  Uiso   1.00
C744   C     0.45893   0.64643   0.78149   0.00000  Uiso   1.00
C745   C     0.49934   0.62385   0.75149   0.00000  Uiso   1.00
C746   C     0.63289   0.52484   0.78338   0.00000  Uiso   1.00
C747   C     0.34909   0.52481   0.78337   0.00000  Uiso   1.00
C748   C     0.36650   0.47468   0.71698   0.00000  Uiso   1.00
C749   C     0.65051   0.47511   0.71689   0.00000  Uiso   1.00
C750   C     0.50041   0.42078   0.74877   0.00000  Uiso   1.00
C751   C     0.52587   0.50024   0.65018   0.00000  Uiso   1.00
C752   C     0.60269   0.49921   0.51129   0.00000  Uiso   1.00
C753   C     0.54060   0.49860   0.59357   0.00000  Uiso   1.00
C754   C     0.41261   0.47751   0.93187   0.00000  Uiso   1.00
C755   C     0.39898   0.46952   0.98472   0.00000  Uiso   1.00
C756   C     0.43282   0.47238   0.51259   0.00000  Uiso   1.00
Cu757  Cu    0.45311   0.49999   0.75000   0.00000  Uiso   1.00
Cu758  Cu    0.54689   0.50001   0.75000   0.00000  Uiso   1.00
H759   H     0.60706   0.54474   0.81022   0.00000  Uiso   1.00
H760   H     0.62084   0.48010   0.91182   0.00000  Uiso   1.00
H761   H     0.38474   0.47791   0.91189   0.00000  Uiso   1.00
H762   H     0.41928   0.46714   0.55369   0.00000  Uiso   1.00
H763   H     0.36178   0.46177   0.50483   0.00000  Uiso   1.00
H764   H     0.56226   0.46456   0.86746   0.00000  Uiso   1.00
N765   N     0.38265   0.49999   0.74998   0.00000  Uiso   1.00
N766   N     0.61735   0.50002   0.74999   0.00000  Uiso   1.00
O767   O     0.46042   0.56011   0.75000   0.00000  Uiso   1.00
O768   O     0.53961   0.56012   0.75000   0.00000  Uiso   1.00
O769   O     0.44108   0.49998   0.82549   0.00000  Uiso   1.00
O770   O     0.52027   0.49999   0.82549   0.00000  Uiso   1.00
O771   O     0.46039   0.43988   0.74999   0.00000  Uiso   1.00
O772   O     0.53958   0.43989   0.74999   0.00000  Uiso   1.00
O773   O     0.47973   0.50001   0.67451   0.00000  Uiso   1.00
O774   O     0.55892   0.50002   0.67451   0.00000  Uiso   1.00
H775   H     0.61731   0.50941   0.58390   0.00000  Uiso   1.00
Cl776  Cl    0.59200   0.37722   0.67542   0.00000  Uiso   1.00
H777   H     0.42896   0.37327   0.80317   0.00000  Uiso   1.00
Cl778  Cl    0.40790   0.62284   0.82435   0.00000  Uiso   1.00
H779   H     0.36037   0.54454   0.81031   0.00000  Uiso   1.00
Cl780  Cl    0.40539   0.43975   0.67434   0.00000  Uiso   1.00
H781   H     0.63874   0.45529   0.69036   0.00000  Uiso   1.00
H782   H     0.64013   0.50413   0.98923   0.00000  Uiso   1.00
H783   H     0.46754   0.49141   0.59092   0.00000  Uiso   1.00
H784   H     0.57102   0.62677   0.69671   0.00000  Uiso   1.00
C785   C     0.83293   0.57922   0.75120   0.00000  Uiso   1.00
C786   C     0.81580   0.47978   0.98713   0.00000  Uiso   1.00
C787   C     0.83097   0.47981   0.93219   0.00000  Uiso   1.00
C788   C     0.85117   0.48645   0.51415   0.00000  Uiso   1.00
C789   C     0.90109   0.48945   0.98603   0.00000  Uiso   1.00
C790   C     0.91582   0.48157   0.93310   0.00000  Uiso   1.00
C791   C     0.88138   0.47502   0.90697   0.00000  Uiso   1.00
C792   C     0.83839   0.49188   0.56803   0.00000  Uiso   1.00
C793   C     0.92279   0.50299   0.56494   0.00000  Uiso   1.00
C794   C     0.79508   0.48389   0.90494   0.00000  Uiso   1.00
C795   C     0.87351   0.64420   0.72039   0.00000  Uiso   1.00
C796   C     0.80803   0.49501   0.84934   0.00000  Uiso   1.00
C797   C     0.87437   0.35360   0.71837   0.00000  Uiso   1.00
C798   C     0.83398   0.37617   0.74842   0.00000  Uiso   1.00
C799   C     0.79314   0.35583   0.77950   0.00000  Uiso   1.00
C800   C     0.79226   0.64643   0.78149   0.00000  Uiso   1.00
C801   C     0.83268   0.62385   0.75149   0.00000  Uiso   1.00
C802   C     0.96623   0.52484   0.78338   0.00000  Uiso   1.00
C803   C     0.68243   0.52481   0.78337   0.00000  Uiso   1.00
C804   C     0.69984   0.47468   0.71698   0.00000  Uiso   1.00
C805   C     0.98385   0.47511   0.71689   0.00000  Uiso   1.00
C806   C     0.83375   0.42078   0.74877   0.00000  Uiso   1.00
C807   C     0.85920   0.50024   0.65018   0.00000  Uiso   1.00
C808   C     0.93602   0.49921   0.51129   0.00000  Uiso   1.00
C809   C     0.87394   0.49860   0.59357   0.00000  Uiso   1.00
C810   C     0.74595   0.47751   0.93187   0.00000  Uiso   1.00
C811   C     0.73232   0.46952   0.98472   0.00000  Uiso   1.00
C812   C     0.76615   0.47238   0.51259   0.00000  Uiso   1.00
Cu813  Cu    0.78645   0.49999   0.75000   0.00000  Uiso   1.00
Cu814  Cu    0.88022   0.50001   0.75000   0.00000  Uiso   1.00
H815   H     0.94039   0.54474   0.81022   0.00000  Uiso   1.00
H816   H     0.95417   0.48010   0.91182   0.00000  Uiso   1.00
H817   H     0.71808   0.47791   0.91189   0.00000  Uiso   1.00
H818   H     0.75261   0.46714   0.55369   0.00000  Uiso   1.00
H819   H     0.69511   0.46177   0.50483   0.00000  Uiso   1.00
H820   H     0.89559   0.46456   0.86746   0.00000  Uiso   1.00
N821   N     0.71598   0.49999   0.74998   0.00000  Uiso   1.00
N822   N     0.95069   0.50002   0.74999   0.00000  Uiso   1.00
O823   O     0.79375   0.56011   0.75000   0.00000  Uiso   1.00
O824   O     0.87294   0.56012   0.75000   0.00000  Uiso   1.00
O825   O     0.77441   0.49998   0.82549   0.00000  Uiso   1.00
O826   O     0.85360   0.49999   0.82549   0.00000  Uiso   1.00
O827   O     0.79373   0.43988   0.74999   0.00000  Uiso   1.00
O828   O     0.87292   0.43989   0.74999   0.00000  Uiso   1.00
O829   O     0.81306   0.50001   0.67451   0.00000  Uiso   1.00
O830   O     0.89225   0.50002   0.67451   0.00000  Uiso   1.00
H831   H     0.95064   0.50941   0.58390   0.00000  Uiso   1.00
Cl832  Cl    0.92534   0.37722   0.67542   0.00000  Uiso   1.00
H833   H     0.76229   0.37327   0.80317   0.00000  Uiso   1.00
Cl834  Cl    0.74123   0.62284   0.82435   0.00000  Uiso   1.00
H835   H     0.69370   0.54454   0.81031   0.00000  Uiso   1.00
Cl836  Cl    0.73872   0.43975   0.67434   0.00000  Uiso   1.00
H837   H     0.97208   0.45529   0.69036   0.00000  Uiso   1.00
H838   H     0.97346   0.50413   0.98923   0.00000  Uiso   1.00
H839   H     0.80087   0.49141   0.59092   0.00000  Uiso   1.00
H840   H     0.90435   0.62677   0.69671   0.00000  Uiso   1.00
C841   C     0.16626   0.91256   0.75120   0.00000  Uiso   1.00
C842   C     0.14913   0.81311   0.98713   0.00000  Uiso   1.00
C843   C     0.16430   0.81314   0.93219   0.00000  Uiso   1.00
C844   C     0.18450   0.81978   0.51415   0.00000  Uiso   1.00
C845   C     0.23442   0.82278   0.98603   0.00000  Uiso   1.00
C846   C     0.24916   0.81490   0.93310   0.00000  Uiso   1.00
C847   C     0.21471   0.80836   0.90697   0.00000  Uiso   1.00
C848   C     0.17172   0.82521   0.56803   0.00000  Uiso   1.00
C849   C     0.25612   0.83632   0.56494   0.00000  Uiso   1.00
C850   C     0.12841   0.81722   0.90494   0.00000  Uiso   1.00
C851   C     0.20685   0.97753   0.72039   0.00000  Uiso   1.00
C852   C     0.14136   0.82835   0.84934   0.00000  Uiso   1.00
C853   C     0.20771   0.68694   0.71837   0.00000  Uiso   1.00
C854   C     0.16732   0.70950   0.74842   0.00000  Uiso   1.00
C855   C     0.12647   0.68916   0.77950   0.00000  Uiso   1.00
C856   C     0.12560   0.97977   0.78149   0.00000  Uiso   1.00
C857   C     0.16601   0.95719   0.75149   0.00000  Uiso   1.00
C858   C     0.29956   0.85817   0.78338   0.00000  Uiso   1.00
C859   C     0.01576   0.85815   0.78337   0.00000  Uiso   1.00
C860   C     0.03317   0.80801   0.71698   0.00000  Uiso   1.00
C861   C     0.31718   0.80844   0.71689   0.00000  Uiso   1.00
C862   C     0.16708   0.75412   0.74877   0.00000  Uiso   1.00
C863   C     0.19253   0.83357   0.65018   0.00000  Uiso   1.00
C864   C     0.26936   0.83254   0.51129   0.00000  Uiso   1.00
C865   C     0.20727   0.83193   0.59357   0.00000  Uiso   1.00
C866   C     0.07928   0.81085   0.93187   0.00000  Uiso   1.00
C867   C     0.06565   0.80285   0.98472   0.00000  Uiso   1.00
C868   C     0.09949   0.80572   0.51259   0.00000  Uiso   1.00
Cu869  Cu    0.11978   0.83333   0.75000   0.00000  Uiso   1.00
Cu870  Cu    0.21355   0.83334   0.75000   0.00000  Uiso   1.00
H871   H     0.27372   0.87807   0.81022   0.00000  Uiso   1.00
H872   H     0.28751   0.81343   0.91182   0.00000  Uiso   1.00
H873   H     0.05141   0.81124   0.91189   0.00000  Uiso   1.00
H874   H     0.08595   0.80048   0.55369   0.00000  Uiso   1.00
H875   H     0.02844   0.79510   0.50483   0.00000  Uiso   1.00
H876   H     0.22893   0.79789   0.86746   0.00000  Uiso   1.00
N877   N     0.04931   0.83332   0.74998   0.00000  Uiso   1.00
N878   N     0.28402   0.83335   0.74999   0.00000  Uiso   1.00
O879   O     0.12708   0.89345   0.75000   0.00000  Uiso   1.00
O880   O     0.20627   0.89346   0.75000   0.00000  Uiso   1.00
O881   O     0.10775   0.83332   0.82549   0.00000  Uiso   1.00
O882   O     0.18694   0.83333   0.82549   0.00000  Uiso   1.00
O883   O     0.12706   0.77321   0.74999   0.00000  Uiso   1.00
O884   O     0.20625   0.77322   0.74999   0.00000  Uiso   1.00
O885   O     0.14640   0.83334   0.67451   0.00000  Uiso   1.00
O886   O     0.22559   0.83335   0.67451   0.00000  Uiso   1.00
H887   H     0.28397   0.84274   0.58390   0.00000  Uiso   1.00
Cl888  Cl    0.25867   0.71055   0.67542   0.00000  Uiso   1.00
H889   H     0.09563   0.70660   0.80317   0.00000  Uiso   1.00
Cl890  Cl    0.07456   0.95618   0.82435   0.00000  Uiso   1.00
H891   H     0.02704   0.87788   0.81031   0.00000  Uiso   1.00
Cl892  Cl    0.07205   0.77309   0.67434   0.00000  Uiso   1.00
H893   H     0.30541   0.78862   0.69036   0.00000  Uiso   1.00
H894   H     0.30679   0.83746   0.98923   0.00000  Uiso   1.00
H895   H     0.13421   0.82474   0.59092   0.00000  Uiso   1.00
H896   H     0.23769   0.96010   0.69671   0.00000  Uiso   1.00
C897   C     0.49959   0.91256   0.75120   0.00000  Uiso   1.00
C898   C     0.48247   0.81311   0.98713   0.00000  Uiso   1.00
C899   C     0.49764   0.81314   0.93219   0.00000  Uiso   1.00
C900   C     0.51783   0.81978   0.51415   0.00000  Uiso   1.00
C901   C     0.56776   0.82278   0.98603   0.00000  Uiso   1.00
C902   C     0.58249   0.81490   0.93310   0.00000  Uiso   1.00
C903   C     0.54805   0.80836   0.90697   0.00000  Uiso   1.00
C904   C     0.50506   0.82521   0.56803   0.00000  Uiso   1.00
C905   C     0.58945   0.83632   0.56494   0.00000  Uiso   1.00
C906   C     0.46174   0.81722   0.90494   0.00000  Uiso   1.00
C907   C     0.54018   0.97753   0.72039   0.00000  Uiso   1.00
C908   C     0.47470   0.82835   0.84934   0.00000  Uiso   1.00
C909   C     0.54104   0.68694   0.71837   0.00000  Uiso   1.00
C910   C     0.50065   0.70950   0.74842   0.00000  Uiso   1.00
C911   C     0.45980   0.68916   0.77950   0.00000  Uiso   1.00
C912   C     0.45893   0.97977   0.78149   0.00000  Uiso   1.00
C913   C     0.49934   0.95719   0.75149   0.00000  Uiso   1.00
C914   C     0.63289   0.85817   0.78338   0.00000  Uiso   1.00
C915   C     0.34909   0.85815   0.78337   0.00000  Uiso   1.00
C916   C     0.36650   0.80801   0.71698   0.00000  Uiso   1.00
C917   C     0.65051   0.80844   0.71689   0.00000  Uiso   1.00
C918   C     0.50041   0.75412   0.74877   0.00000  Uiso   1.00
C919   C     0.52587   0.83357   0.65018   0.00000  Uiso   1.00
C920   C     0.60269   0.83254   0.51129   0.00000  Uiso   1.00
C921   C     0.54060   0.83193   0.59357   0.00000  Uiso   1.00
C922   C     0.41261   0.81085   0.93187   0.00000  Uiso   1.00
C923   C     0.39898   0.80285   0.98472   0.00000  Uiso   1.00
C924   C     0.43282   0.80572   0.51259   0.00000  Uiso   1.00
Cu925  Cu    0.45311   0.83333   0.75000   0.00000  Uiso   1.00
Cu926  Cu    0.54689   0.83334   0.75000   0.00000  Uiso   1.00
H927   H     0.60706   0.87807   0.81022   0.00000  Uiso   1.00
H928   H     0.62084   0.81343   0.91182   0.00000  Uiso   1.00
H929   H     0.38474   0.81124   0.91189   0.00000  Uiso   1.00
H930   H     0.41928   0.80048   0.55369   0.00000  Uiso   1.00
H931   H     0.36178   0.79510   0.50483   0.00000  Uiso   1.00
H932   H     0.56226   0.79789   0.86746   0.00000  Uiso   1.00
N933   N     0.38265   0.83332   0.74998   0.00000  Uiso   1.00
N934   N     0.61735   0.83335   0.74999   0.00000  Uiso   1.00
O935   O     0.46042   0.89345   0.75000   0.00000  Uiso   1.00
O936   O     0.53961   0.89346   0.75000   0.00000  Uiso   1.00
O937   O     0.44108   0.83332   0.82549   0.00000  Uiso   1.00
O938   O     0.52027   0.83333   0.82549   0.00000  Uiso   1.00
O939   O     0.46039   0.77321   0.74999   0.00000  Uiso   1.00
O940   O     0.53958   0.77322   0.74999   0.00000  Uiso   1.00
O941   O     0.47973   0.83334   0.67451   0.00000  Uiso   1.00
O942   O     0.55892   0.83335   0.67451   0.00000  Uiso   1.00
H943   H     0.61731   0.84274   0.58390   0.00000  Uiso   1.00
Cl944  Cl    0.59200   0.71055   0.67542   0.00000  Uiso   1.00
H945   H     0.42896   0.70660   0.80317   0.00000  Uiso   1.00
Cl946  Cl    0.40790   0.95618   0.82435   0.00000  Uiso   1.00
H947   H     0.36037   0.87788   0.81031   0.00000  Uiso   1.00
Cl948  Cl    0.40539   0.77309   0.67434   0.00000  Uiso   1.00
H949   H     0.63874   0.78862   0.69036   0.00000  Uiso   1.00
H950   H     0.64013   0.83746   0.98923   0.00000  Uiso   1.00
H951   H     0.46754   0.82474   0.59092   0.00000  Uiso   1.00
H952   H     0.57102   0.96010   0.69671   0.00000  Uiso   1.00
C953   C     0.83293   0.91256   0.75120   0.00000  Uiso   1.00
C954   C     0.81580   0.81311   0.98713   0.00000  Uiso   1.00
C955   C     0.83097   0.81314   0.93219   0.00000  Uiso   1.00
C956   C     0.85117   0.81978   0.51415   0.00000  Uiso   1.00
C957   C     0.90109   0.82278   0.98603   0.00000  Uiso   1.00
C958   C     0.91582   0.81490   0.93310   0.00000  Uiso   1.00
C959   C     0.88138   0.80836   0.90697   0.00000  Uiso   1.00
C960   C     0.83839   0.82521   0.56803   0.00000  Uiso   1.00
C961   C     0.92279   0.83632   0.56494   0.00000  Uiso   1.00
C962   C     0.79508   0.81722   0.90494   0.00000  Uiso   1.00
C963   C     0.87351   0.97753   0.72039   0.00000  Uiso   1.00
C964   C     0.80803   0.82835   0.84934   0.00000  Uiso   1.00
C965   C     0.87437   0.68694   0.71837   0.00000  Uiso   1.00
C966   C     0.83398   0.70950   0.74842   0.00000  Uiso   1.00
C967   C     0.79314   0.68916   0.77950   0.00000  Uiso   1.00
C968   C     0.79226   0.97977   0.78149   0.00000  Uiso   1.00
C969   C     0.83268   0.95719   0.75149   0.00000  Uiso   1.00
C970   C     0.96623   0.85817   0.78338   0.00000  Uiso   1.00
C971   C     0.68243   0.85815   0.78337   0.00000  Uiso   1.00
C972   C     0.69984   0.80801   0.71698   0.00000  Uiso   1.00
C973   C     0.98385   0.80844   0.71689   0.00000  Uiso   1.00
C974   C     0.83375   0.75412   0.74877   0.00000  Uiso   1.00
C975   C     0.85920   0.83357   0.65018   0.00000  Uiso   1.00
C976   C     0.93602   0.83254   0.51129   0.00000  Uiso   1.00
C977   C     0.87394   0.83193   0.59357   0.00000  Uiso   1.00
C978   C     0.74595   0.81085   0.93187   0.00000  Uiso   1.00
C979   C     0.73232   0.80285   0.98472   0.00000  Uiso   1.00
C980   C     0.76615   0.80572   0.51259   0.00000  Uiso   1.00
Cu981  Cu    0.78645   0.83333   0.75000   0.00000  Uiso   1.00
Cu982  Cu    0.88022   0.83334   0.75000   0.00000  Uiso   1.00
H983   H     0.94039   0.87807   0.81022   0.00000  Uiso   1.00
H984   H     0.95417   0.81343   0.91182   0.00000  Uiso   1.00
H985   H     0.71808   0.81124   0.91189   0.00000  Uiso   1.00
H986   H     0.75261   0.80048   0.55369   0.00000  Uiso   1.00
H987   H     0.69511   0.79510   0.50483   0.00000  Uiso   1.00
H988   H     0.89559   0.79789   0.86746   0.00000  Uiso   1.00
N989   N     0.71598   0.83332   0.74998   0.00000  Uiso   1.00
N990   N     0.95069   0.83335   0.74999   0.00000  Uiso   1.00
O991   O     0.79375   0.89345   0.75000   0.00000  Uiso   1.00
O992   O     0.87294   0.89346   0.75000   0.00000  Uiso   1.00
O993   O     0.77441   0.83332   0.82549   0.00000  Uiso   1.00
O994   O     0.85360   0.83333   0.82549   0.00000  Uiso   1.00
O995   O     0.79373   0.77321   0.74999   0.00000  Uiso   1.00
O996   O     0.87292   0.77322   0.74999   0.00000  Uiso   1.00
O997   O     0.81306   0.83334   0.67451   0.00000  Uiso   1.00
O998   O     0.89225   0.83335   0.67451   0.00000  Uiso   1.00
H999   H     0.95064   0.84274   0.58390   0.00000  Uiso   1.00
Cl1000 Cl    0.92534   0.71055   0.67542   0.00000  Uiso   1.00
H1001  H     0.76229   0.70660   0.80317   0.00000  Uiso   1.00
Cl1002 Cl    0.74123   0.95618   0.82435   0.00000  Uiso   1.00
H1003  H     0.69370   0.87788   0.81031   0.00000  Uiso   1.00
Cl1004 Cl    0.73872   0.77309   0.67434   0.00000  Uiso   1.00
H1005  H     0.97208   0.78862   0.69036   0.00000  Uiso   1.00
H1006  H     0.97346   0.83746   0.98923   0.00000  Uiso   1.00
H1007  H     0.80087   0.82474   0.59092   0.00000  Uiso   1.00
H1008  H     0.90435   0.96010   0.69671   0.00000  Uiso   1.00
loop_
_geom_bond_atom_site_label_1
_geom_bond_atom_site_label_2
_geom_bond_distance
_geom_bond_site_symmetry_2
_ccdc_geom_bond_type
C1     C17     1.446   .     S
C1     O39     1.291   .     A
C1     O40     1.294   .     A
C2     C3      1.418   .     A
C2     C508    1.423   .     S
C2     C532    1.413   .     S
C3     C7      1.416   .     A
C3     C10     1.431   .     A
C4     C8      1.401   .     A
C4     C506    1.423   1_554 S
C4     C509    1.418   1_554 S
C5     C6      1.387   .     A
C5     C508    1.418   .     S
C5     C528    1.397   .     S
C6     C7      1.382   .     A
C6     H32     1.085   .     S
C7     H36     1.076   .     S
C8     C25     1.399   .     A
C8     H55     1.075   .     S
C9     C24     1.389   .     A
C9     C25     1.399   .     A
C9     H47     1.083   .     S
C10    C12     1.483   .     S
C10    C26     1.403   .     A
C11    H56     1.084   .     S
C11    C17     1.398   .     A
C11    C181    1.386   .     S
C12    O42     1.291   .     A
C12    O41     1.312   .     A
C13    Cl48    1.763   .     S
C13    C14     1.407   .     A
C13    C347    1.386   1_545 S
C14    C22     1.445   .     S
C14    C15     1.398   .     A
C15    H49     1.084   .     S
C15    C352    1.386   1_545 S
C16    Cl50    1.762   .     S
C16    C17     1.407   .     A
C16    C183    1.386   .     S
C18    N38     1.368   .     A
C18    H31     1.082   .     S
C18    C75     1.419   .     S
C19    H51     1.080   .     S
C19    N37     1.367   .     A
C19    C130    1.419   1_455 S
C20    Cl52    1.755   .     S
C20    N37     1.379   .     A
C20    C133    1.414   1_455 S
C21    H53     1.081   .     S
C21    N38     1.360   .     A
C21    C76     1.414   .     S
C22    O43     1.293   .     A
C22    O44     1.291   .     A
C23    O46     1.297   .     A
C23    O45     1.296   .     A
C23    C25     1.461   .     S
C24    C509    1.397   1_554 S
C24    H558    1.080   1_554 S
C26    H33     1.083   .     S
C26    C27     1.391   .     A
C27    C532    1.388   .     S
C27    H539    1.079   .     S
C28    H34     1.078   .     S
C28    C531    1.388   1_554 S
C28    C506    1.413   1_554 S
Cu29   Cu30    2.686   .     S
Cu29   O39     1.960   .     S
Cu29   O43     1.958   .     S
Cu29   N37     2.019   .     S
Cu29   O41     1.962   .     S
Cu29   O45     1.956   .     S
Cu30   O44     1.960   .     S
Cu30   O40     1.958   .     S
Cu30   N38     2.019   .     S
Cu30   O42     1.956   .     S
Cu30   O46     1.962   .     S
H35    C531    1.079   1_554 S
H54    C528    1.080   .     S
C57    C73     1.446   .     S
C57    O95     1.291   .     A
C57    O96     1.294   .     A
C58    C59     1.418   .     A
C58    C564    1.423   .     S
C58    C588    1.413   .     S
C59    C63     1.416   .     A
C59    C66     1.431   .     A
C60    C64     1.401   .     A
C60    C562    1.423   1_554 S
C60    C565    1.418   1_554 S
C61    C62     1.387   .     A
C61    C564    1.418   .     S
C61    C584    1.397   .     S
C62    C63     1.382   .     A
C62    H88     1.085   .     S
C63    H92     1.076   .     S
C64    C81     1.399   .     A
C64    H111    1.075   .     S
C65    C80     1.389   .     A
C65    C81     1.399   .     A
C65    H103    1.083   .     S
C66    C68     1.483   .     S
C66    C82     1.403   .     A
C67    H112    1.084   .     S
C67    C73     1.398   .     A
C67    C237    1.386   .     S
C68    O98     1.291   .     A
C68    O97     1.312   .     A
C69    Cl104   1.763   .     S
C69    C70     1.407   .     A
C69    C403    1.386   1_545 S
C70    C78     1.445   .     S
C70    C71     1.398   .     A
C71    H105    1.084   .     S
C71    C408    1.386   1_545 S
C72    Cl106   1.762   .     S
C72    C73     1.407   .     A
C72    C239    1.386   .     S
C74    N94     1.368   .     A
C74    H87     1.082   .     S
C74    C131    1.419   .     S
C75    H107    1.080   .     S
C75    N93     1.367   .     A
C76    Cl108   1.755   .     S
C76    N93     1.379   .     A
C77    H109    1.081   .     S
C77    N94     1.360   .     A
C77    C132    1.414   .     S
C78    O99     1.293   .     A
C78    O100    1.291   .     A
C79    O102    1.297   .     A
C79    O101    1.296   .     A
C79    C81     1.461   .     S
C80    C565    1.397   1_554 S
C80    H614    1.080   1_554 S
C82    H89     1.083   .     S
C82    C83     1.391   .     A
C83    C588    1.388   .     S
C83    H595    1.079   .     S
C84    H90     1.078   .     S
C84    C587    1.388   1_554 S
C84    C562    1.413   1_554 S
Cu85   Cu86    2.686   .     S
Cu85   O95     1.960   .     S
Cu85   O99     1.958   .     S
Cu85   N93     2.019   .     S
Cu85   O97     1.962   .     S
Cu85   O101    1.956   .     S
Cu86   O100    1.960   .     S
Cu86   O96     1.958   .     S
Cu86   N94     2.019   .     S
Cu86   O98     1.956   .     S
Cu86   O102    1.962   .     S
H91    C587    1.079   1_554 S
H110   C584    1.080   .     S
C113   C129    1.446   .     S
C113   O151    1.291   .     A
C113   O152    1.294   .     A
C114   C115    1.418   .     A
C114   C620    1.423   .     S
C114   C644    1.413   .     S
C115   C119    1.416   .     A
C115   C122    1.431   .     A
C116   C120    1.401   .     A
C116   C618    1.423   1_554 S
C116   C621    1.418   1_554 S
C117   C118    1.387   .     A
C117   C620    1.418   .     S
C117   C640    1.397   .     S
C118   C119    1.382   .     A
C118   H144    1.085   .     S
C119   H148    1.076   .     S
C120   C137    1.399   .     A
C120   H167    1.075   .     S
C121   C136    1.389   .     A
C121   C137    1.399   .     A
C121   H159    1.083   .     S
C122   C124    1.483   .     S
C122   C138    1.403   .     A
C123   H168    1.084   .     S
C123   C129    1.398   .     A
C123   C293    1.386   .     S
C124   O154    1.291   .     A
C124   O153    1.312   .     A
C125   Cl160   1.763   .     S
C125   C126    1.407   .     A
C125   C459    1.386   1_545 S
C126   C134    1.445   .     S
C126   C127    1.398   .     A
C127   H161    1.084   .     S
C127   C464    1.386   1_545 S
C128   Cl162   1.762   .     S
C128   C129    1.407   .     A
C128   C295    1.386   .     S
C130   N150    1.368   .     A
C130   H143    1.082   .     S
C130   C19     1.419   1_655 S
C131   H163    1.080   .     S
C131   N149    1.367   .     A
C132   Cl164   1.755   .     S
C132   N149    1.379   .     A
C133   H165    1.081   .     S
C133   N150    1.360   .     A
C133   C20     1.414   1_655 S
C134   O155    1.293   .     A
C134   O156    1.291   .     A
C135   O158    1.297   .     A
C135   O157    1.296   .     A
C135   C137    1.461   .     S
C136   C621    1.397   1_554 S
C136   H670    1.080   1_554 S
C138   H145    1.083   .     S
C138   C139    1.391   .     A
C139   C644    1.388   .     S
C139   H651    1.079   .     S
C140   H146    1.078   .     S
C140   C643    1.388   1_554 S
C140   C618    1.413   1_554 S
Cu141  Cu142   2.686   .     S
Cu141  O151    1.960   .     S
Cu141  O155    1.958   .     S
Cu141  N149    2.019   .     S
Cu141  O153    1.962   .     S
Cu141  O157    1.956   .     S
Cu142  O156    1.960   .     S
Cu142  O152    1.958   .     S
Cu142  N150    2.019   .     S
Cu142  O154    1.956   .     S
Cu142  O158    1.962   .     S
H147   C643    1.079   1_554 S
H166   C640    1.080   .     S
C169   C185    1.446   .     S
C169   O207    1.291   .     A
C169   O208    1.294   .     A
C170   C171    1.418   .     A
C170   C676    1.423   .     S
C170   C700    1.413   .     S
C171   C175    1.416   .     A
C171   C178    1.431   .     A
C172   C176    1.401   .     A
C172   C674    1.423   1_554 S
C172   C677    1.418   1_554 S
C173   C174    1.387   .     A
C173   C676    1.418   .     S
C173   C696    1.397   .     S
C174   C175    1.382   .     A
C174   H200    1.085   .     S
C175   H204    1.076   .     S
C176   C193    1.399   .     A
C176   H223    1.075   .     S
C177   C192    1.389   .     A
C177   C193    1.399   .     A
C177   H215    1.083   .     S
C178   C180    1.483   .     S
C178   C194    1.403   .     A
C179   H224    1.084   .     S
C179   C185    1.398   .     A
C179   C349    1.386   .     S
C180   O210    1.291   .     A
C180   O209    1.312   .     A
C181   Cl216   1.763   .     S
C181   C182    1.407   .     A
C182   C190    1.445   .     S
C182   C183    1.398   .     A
C183   H217    1.084   .     S
C184   Cl218   1.762   .     S
C184   C185    1.407   .     A
C184   C351    1.386   .     S
C186   N206    1.368   .     A
C186   H199    1.082   .     S
C186   C243    1.419   .     S
C187   H219    1.080   .     S
C187   N205    1.367   .     A
C187   C298    1.419   1_455 S
C188   Cl220   1.755   .     S
C188   N205    1.379   .     A
C188   C301    1.414   1_455 S
C189   H221    1.081   .     S
C189   N206    1.360   .     A
C189   C244    1.414   .     S
C190   O211    1.293   .     A
C190   O212    1.291   .     A
C191   O214    1.297   .     A
C191   O213    1.296   .     A
C191   C193    1.461   .     S
C192   C677    1.397   1_554 S
C192   H726    1.080   1_554 S
C194   H201    1.083   .     S
C194   C195    1.391   .     A
C195   C700    1.388   .     S
C195   H707    1.079   .     S
C196   H202    1.078   .     S
C196   C699    1.388   1_554 S
C196   C674    1.413   1_554 S
Cu197  Cu198   2.686   .     S
Cu197  O207    1.960   .     S
Cu197  O211    1.958   .     S
Cu197  N205    2.019   .     S
Cu197  O209    1.962   .     S
Cu197  O213    1.956   .     S
Cu198  O212    1.960   .     S
Cu198  O208    1.958   .     S
Cu198  N206    2.019   .     S
Cu198  O210    1.956   .     S
Cu198  O214    1.962   .     S
H203   C699    1.079   1_554 S
H222   C696    1.080   .     S
C225   C241    1.446   .     S
C225   O263    1.291   .     A
C225   O264    1.294   .     A
C226   C227    1.418   .     A
C226   C732    1.423   .     S
C226   C756    1.413   .     S
C227   C231    1.416   .     A
C227   C234    1.431   .     A
C228   C232    1.401   .     A
C228   C730    1.423   1_554 S
C228   C733    1.418   1_554 S
C229   C230    1.387   .     A
C229   C732    1.418   .     S
C229   C752    1.397   .     S
C230   C231    1.382   .     A
C230   H256    1.085   .     S
C231   H260    1.076   .     S
C232   C249    1.399   .     A
C232   H279    1.075   .     S
C233   C248    1.389   .     A
C233   C249    1.399   .     A
C233   H271    1.083   .     S
C234   C236    1.483   .     S
C234   C250    1.403   .     A
C235   H280    1.084   .     S
C235   C241    1.398   .     A
C235   C405    1.386   .     S
C236   O266    1.291   .     A
C236   O265    1.312   .     A
C237   Cl272   1.763   .     S
C237   C238    1.407   .     A
C238   C246    1.445   .     S
C238   C239    1.398   .     A
C239   H273    1.084   .     S
C240   Cl274   1.762   .     S
C240   C241    1.407   .     A
C240   C407    1.386   .     S
C242   N262    1.368   .     A
C242   H255    1.082   .     S
C242   C299    1.419   .     S
C243   H275    1.080   .     S
C243   N261    1.367   .     A
C244   Cl276   1.755   .     S
C244   N261    1.379   .     A
C245   H277    1.081   .     S
C245   N262    1.360   .     A
C245   C300    1.414   .     S
C246   O267    1.293   .     A
C246   O268    1.291   .     A
C247   O270    1.297   .     A
C247   O269    1.296   .     A
C247   C249    1.461   .     S
C248   C733    1.397   1_554 S
C248   H782    1.080   1_554 S
C250   H257    1.083   .     S
C250   C251    1.391   .     A
C251   C756    1.388   .     S
C251   H763    1.079   .     S
C252   H258    1.078   .     S
C252   C755    1.388   1_554 S
C252   C730    1.413   1_554 S
Cu253  Cu254   2.686   .     S
Cu253  O263    1.960   .     S
Cu253  O267    1.958   .     S
Cu253  N261    2.019   .     S
Cu253  O265    1.962   .     S
Cu253  O269    1.956   .     S
Cu254  O268    1.960   .     S
Cu254  O264    1.958   .     S
Cu254  N262    2.019   .     S
Cu254  O266    1.956   .     S
Cu254  O270    1.962   .     S
H259   C755    1.079   1_554 S
H278   C752    1.080   .     S
C281   C297    1.446   .     S
C281   O319    1.291   .     A
C281   O320    1.294   .     A
C282   C283    1.418   .     A
C282   C788    1.423   .     S
C282   C812    1.413   .     S
C283   C287    1.416   .     A
C283   C290    1.431   .     A
C284   C288    1.401   .     A
C284   C786    1.423   1_554 S
C284   C789    1.418   1_554 S
C285   C286    1.387   .     A
C285   C788    1.418   .     S
C285   C808    1.397   .     S
C286   C287    1.382   .     A
C286   H312    1.085   .     S
C287   H316    1.076   .     S
C288   C305    1.399   .     A
C288   H335    1.075   .     S
C289   C304    1.389   .     A
C289   C305    1.399   .     A
C289   H327    1.083   .     S
C290   C292    1.483   .     S
C290   C306    1.403   .     A
C291   H336    1.084   .     S
C291   C297    1.398   .     A
C291   C461    1.386   .     S
C292   O322    1.291   .     A
C292   O321    1.312   .     A
C293   Cl328   1.763   .     S
C293   C294    1.407   .     A
C294   C302    1.445   .     S
C294   C295    1.398   .     A
C295   H329    1.084   .     S
C296   Cl330   1.762   .     S
C296   C297    1.407   .     A
C296   C463    1.386   .     S
C298   N318    1.368   .     A
C298   H311    1.082   .     S
C298   C187    1.419   1_655 S
C299   H331    1.080   .     S
C299   N317    1.367   .     A
C300   Cl332   1.755   .     S
C300   N317    1.379   .     A
C301   H333    1.081   .     S
C301   N318    1.360   .     A
C301   C188    1.414   1_655 S
C302   O323    1.293   .     A
C302   O324    1.291   .     A
C303   O326    1.297   .     A
C303   O325    1.296   .     A
C303   C305    1.461   .     S
C304   C789    1.397   1_554 S
C304   H838    1.080   1_554 S
C306   H313    1.083   .     S
C306   C307    1.391   .     A
C307   C812    1.388   .     S
C307   H819    1.079   .     S
C308   H314    1.078   .     S
C308   C811    1.388   1_554 S
C308   C786    1.413   1_554 S
Cu309  Cu310   2.686   .     S
Cu309  O319    1.960   .     S
Cu309  O323    1.958   .     S
Cu309  N317    2.019   .     S
Cu309  O321    1.962   .     S
Cu309  O325    1.956   .     S
Cu310  O324    1.960   .     S
Cu310  O320    1.958   .     S
Cu310  N318    2.019   .     S
Cu310  O322    1.956   .     S
Cu310  O326    1.962   .     S
H315   C811    1.079   1_554 S
H334   C808    1.080   .     S
C337   C353    1.446   .     S
C337   O375    1.291   .     A
C337   O376    1.294   .     A
C338   C339    1.418   .     A
C338   C844    1.423   .     S
C338   C868    1.413   .     S
C339   C343    1.416   .     A
C339   C346    1.431   .     A
C340   C344    1.401   .     A
C340   C842    1.423   1_554 S
C340   C845    1.418   1_554 S
C341   C342    1.387   .     A
C341   C844    1.418   .     S
C341   C864    1.397   .     S
C342   C343    1.382   .     A
C342   H368    1.085   .     S
C343   H372    1.076   .     S
C344   C361    1.399   .     A
C344   H391    1.075   .     S
C345   C360    1.389   .     A
C345   C361    1.399   .     A
C345   H383    1.083   .     S
C346   C348    1.483   .     S
C346   C362    1.403   .     A
C347   H392    1.084   .     S
C347   C353    1.398   .     A
C347   C13     1.386   1_565 S
C348   O378    1.291   .     A
C348   O377    1.312   .     A
C349   Cl384   1.763   .     S
C349   C350    1.407   .     A
C350   C358    1.445   .     S
C350   C351    1.398   .     A
C351   H385    1.084   .     S
C352   Cl386   1.762   .     S
C352   C353    1.407   .     A
C352   C15     1.386   1_565 S
C354   N374    1.368   .     A
C354   H367    1.082   .     S
C354   C411    1.419   .     S
C355   H387    1.080   .     S
C355   N373    1.367   .     A
C355   C466    1.419   1_455 S
C356   Cl388   1.755   .     S
C356   N373    1.379   .     A
C356   C469    1.414   1_455 S
C357   H389    1.081   .     S
C357   N374    1.360   .     A
C357   C412    1.414   .     S
C358   O379    1.293   .     A
C358   O380    1.291   .     A
C359   O382    1.297   .     A
C359   O381    1.296   .     A
C359   C361    1.461   .     S
C360   C845    1.397   1_554 S
C360   H894    1.080   1_554 S
C362   H369    1.083   .     S
C362   C363    1.391   .     A
C363   C868    1.388   .     S
C363   H875    1.079   .     S
C364   H370    1.078   .     S
C364   C867    1.388   1_554 S
C364   C842    1.413   1_554 S
Cu365  Cu366   2.686   .     S
Cu365  O375    1.960   .     S
Cu365  O379    1.958   .     S
Cu365  N373    2.019   .     S
Cu365  O377    1.962   .     S
Cu365  O381    1.956   .     S
Cu366  O380    1.960   .     S
Cu366  O376    1.958   .     S
Cu366  N374    2.019   .     S
Cu366  O378    1.956   .     S
Cu366  O382    1.962   .     S
H371   C867    1.079   1_554 S
H390   C864    1.080   .     S
C393   C409    1.446   .     S
C393   O431    1.291   .     A
C393   O432    1.294   .     A
C394   C395    1.418   .     A
C394   C900    1.423   .     S
C394   C924    1.413   .     S
C395   C399    1.416   .     A
C395   C402    1.431   .     A
C396   C400    1.401   .     A
C396   C898    1.423   1_554 S
C396   C901    1.418   1_554 S
C397   C398    1.387   .     A
C397   C900    1.418   .     S
C397   C920    1.397   .     S
C398   C399    1.382   .     A
C398   H424    1.085   .     S
C399   H428    1.076   .     S
C400   C417    1.399   .     A
C400   H447    1.075   .     S
C401   C416    1.389   .     A
C401   C417    1.399   .     A
C401   H439    1.083   .     S
C402   C404    1.483   .     S
C402   C418    1.403   .     A
C403   H448    1.084   .     S
C403   C409    1.398   .     A
C403   C69     1.386   1_565 S
C404   O434    1.291   .     A
C404   O433    1.312   .     A
C405   Cl440   1.763   .     S
C405   C406    1.407   .     A
C406   C414    1.445   .     S
C406   C407    1.398   .     A
C407   H441    1.084   .     S
C408   Cl442   1.762   .     S
C408   C409    1.407   .     A
C408   C71     1.386   1_565 S
C410   N430    1.368   .     A
C410   H423    1.082   .     S
C410   C467    1.419   .     S
C411   H443    1.080   .     S
C411   N429    1.367   .     A
C412   Cl444   1.755   .     S
C412   N429    1.379   .     A
C413   H445    1.081   .     S
C413   N430    1.360   .     A
C413   C468    1.414   .     S
C414   O435    1.293   .     A
C414   O436    1.291   .     A
C415   O438    1.297   .     A
C415   O437    1.296   .     A
C415   C417    1.461   .     S
C416   C901    1.397   1_554 S
C416   H950    1.080   1_554 S
C418   H425    1.083   .     S
C418   C419    1.391   .     A
C419   C924    1.388   .     S
C419   H931    1.079   .     S
C420   H426    1.078   .     S
C420   C923    1.388   1_554 S
C420   C898    1.413   1_554 S
Cu421  Cu422   2.686   .     S
Cu421  O431    1.960   .     S
Cu421  O435    1.958   .     S
Cu421  N429    2.019   .     S
Cu421  O433    1.962   .     S
Cu421  O437    1.956   .     S
Cu422  O436    1.960   .     S
Cu422  O432    1.958   .     S
Cu422  N430    2.019   .     S
Cu422  O434    1.956   .     S
Cu422  O438    1.962   .     S
H427   C923    1.079   1_554 S
H446   C920    1.080   .     S
C449   C465    1.446   .     S
C449   O487    1.291   .     A
C449   O488    1.294   .     A
C450   C451    1.418   .     A
C450   C956    1.423   .     S
C450   C980    1.413   .     S
C451   C455    1.416   .     A
C451   C458    1.431   .     A
C452   C456    1.401   .     A
C452   C954    1.423   1_554 S
C452   C957    1.418   1_554 S
C453   C454    1.387   .     A
C453   C956    1.418   .     S
C453   C976    1.397   .     S
C454   C455    1.382   .     A
C454   H480    1.085   .     S
C455   H484    1.076   .     S
C456   C473    1.399   .     A
C456   H503    1.075   .     S
C457   C472    1.389   .     A
C457   C473    1.399   .     A
C457   H495    1.083   .     S
C458   C460    1.483   .     S
C458   C474    1.403   .     A
C459   H504    1.084   .     S
C459   C465    1.398   .     A
C459   C125    1.386   1_565 S
C460   O490    1.291   .     A
C460   O489    1.312   .     A
C461   Cl496   1.763   .     S
C461   C462    1.407   .     A
C462   C470    1.445   .     S
C462   C463    1.398   .     A
C463   H497    1.084   .     S
C464   Cl498   1.762   .     S
C464   C465    1.407   .     A
C464   C127    1.386   1_565 S
C466   N486    1.368   .     A
C466   H479    1.082   .     S
C466   C355    1.419   1_655 S
C467   H499    1.080   .     S
C467   N485    1.367   .     A
C468   Cl500   1.755   .     S
C468   N485    1.379   .     A
C469   H501    1.081   .     S
C469   N486    1.360   .     A
C469   C356    1.414   1_655 S
C470   O491    1.293   .     A
C470   O492    1.291   .     A
C471   O494    1.297   .     A
C471   O493    1.296   .     A
C471   C473    1.461   .     S
C472   C957    1.397   1_554 S
C472   H1006   1.080   1_554 S
C474   H481    1.083   .     S
C474   C475    1.391   .     A
C475   C980    1.388   .     S
C475   H987    1.079   .     S
C476   H482    1.078   .     S
C476   C979    1.388   1_554 S
C476   C954    1.413   1_554 S
Cu477  Cu478   2.686   .     S
Cu477  O487    1.960   .     S
Cu477  O491    1.958   .     S
Cu477  N485    2.019   .     S
Cu477  O489    1.962   .     S
Cu477  O493    1.956   .     S
Cu478  O492    1.960   .     S
Cu478  O488    1.958   .     S
Cu478  N486    2.019   .     S
Cu478  O490    1.956   .     S
Cu478  O494    1.962   .     S
H483   C979    1.079   1_554 S
H502   C976    1.080   .     S
C505   C521    1.446   .     S
C505   O543    1.291   .     A
C505   O544    1.294   .     A
C506   C507    1.418   .     A
C506   C4      1.423   1_556 S
C506   C28     1.413   1_556 S
C507   C511    1.416   .     A
C507   C514    1.431   .     A
C508   C512    1.401   .     A
C509   C510    1.387   .     A
C509   C4      1.418   1_556 S
C509   C24     1.397   1_556 S
C510   C511    1.382   .     A
C510   H536    1.085   .     S
C511   H540    1.076   .     S
C512   C529    1.399   .     A
C512   H559    1.075   .     S
C513   C528    1.389   .     A
C513   C529    1.399   .     A
C513   H551    1.083   .     S
C514   C516    1.483   .     S
C514   C530    1.403   .     A
C515   H560    1.084   .     S
C515   C521    1.398   .     A
C515   C685    1.386   .     S
C516   O546    1.291   .     A
C516   O545    1.312   .     A
C517   Cl552   1.763   .     S
C517   C518    1.407   .     A
C517   C851    1.386   1_545 S
C518   C526    1.445   .     S
C518   C519    1.398   .     A
C519   H553    1.084   .     S
C519   C856    1.386   1_545 S
C520   Cl554   1.762   .     S
C520   C521    1.407   .     A
C520   C687    1.386   .     S
C522   N542    1.368   .     A
C522   H535    1.082   .     S
C522   C579    1.419   .     S
C523   H555    1.080   .     S
C523   N541    1.367   .     A
C523   C634    1.419   1_455 S
C524   Cl556   1.755   .     S
C524   N541    1.379   .     A
C524   C637    1.414   1_455 S
C525   H557    1.081   .     S
C525   N542    1.360   .     A
C525   C580    1.414   .     S
C526   O547    1.293   .     A
C526   O548    1.291   .     A
C527   O550    1.297   .     A
C527   O549    1.296   .     A
C527   C529    1.461   .     S
C530   H537    1.083   .     S
C530   C531    1.391   .     A
C531   C28     1.388   1_556 S
C531   H35     1.079   1_556 S
C532   H538    1.078   .     S
Cu533  Cu534   2.686   .     S
Cu533  O543    1.960   .     S
Cu533  O547    1.958   .     S
Cu533  N541    2.019   .     S
Cu533  O545    1.962   .     S
Cu533  O549    1.956   .     S
Cu534  O548    1.960   .     S
Cu534  O544    1.958   .     S
Cu534  N542    2.019   .     S
Cu534  O546    1.956   .     S
Cu534  O550    1.962   .     S
H558   C24     1.080   1_556 S
C561   C577    1.446   .     S
C561   O599    1.291   .     A
C561   O600    1.294   .     A
C562   C563    1.418   .     A
C562   C60     1.423   1_556 S
C562   C84     1.413   1_556 S
C563   C567    1.416   .     A
C563   C570    1.431   .     A
C564   C568    1.401   .     A
C565   C566    1.387   .     A
C565   C60     1.418   1_556 S
C565   C80     1.397   1_556 S
C566   C567    1.382   .     A
C566   H592    1.085   .     S
C567   H596    1.076   .     S
C568   C585    1.399   .     A
C568   H615    1.075   .     S
C569   C584    1.389   .     A
C569   C585    1.399   .     A
C569   H607    1.083   .     S
C570   C572    1.483   .     S
C570   C586    1.403   .     A
C571   H616    1.084   .     S
C571   C577    1.398   .     A
C571   C741    1.386   .     S
C572   O602    1.291   .     A
C572   O601    1.312   .     A
C573   Cl608   1.763   .     S
C573   C574    1.407   .     A
C573   C907    1.386   1_545 S
C574   C582    1.445   .     S
C574   C575    1.398   .     A
C575   H609    1.084   .     S
C575   C912    1.386   1_545 S
C576   Cl610   1.762   .     S
C576   C577    1.407   .     A
C576   C743    1.386   .     S
C578   N598    1.368   .     A
C578   H591    1.082   .     S
C578   C635    1.419   .     S
C579   H611    1.080   .     S
C579   N597    1.367   .     A
C580   Cl612   1.755   .     S
C580   N597    1.379   .     A
C581   H613    1.081   .     S
C581   N598    1.360   .     A
C581   C636    1.414   .     S
C582   O603    1.293   .     A
C582   O604    1.291   .     A
C583   O606    1.297   .     A
C583   O605    1.296   .     A
C583   C585    1.461   .     S
C586   H593    1.083   .     S
C586   C587    1.391   .     A
C587   C84     1.388   1_556 S
C587   H91     1.079   1_556 S
C588   H594    1.078   .     S
Cu589  Cu590   2.686   .     S
Cu589  O599    1.960   .     S
Cu589  O603    1.958   .     S
Cu589  N597    2.019   .     S
Cu589  O601    1.962   .     S
Cu589  O605    1.956   .     S
Cu590  O604    1.960   .     S
Cu590  O600    1.958   .     S
Cu590  N598    2.019   .     S
Cu590  O602    1.956   .     S
Cu590  O606    1.962   .     S
H614   C80     1.080   1_556 S
C617   C633    1.446   .     S
C617   O655    1.291   .     A
C617   O656    1.294   .     A
C618   C619    1.418   .     A
C618   C116    1.423   1_556 S
C618   C140    1.413   1_556 S
C619   C623    1.416   .     A
C619   C626    1.431   .     A
C620   C624    1.401   .     A
C621   C622    1.387   .     A
C621   C116    1.418   1_556 S
C621   C136    1.397   1_556 S
C622   C623    1.382   .     A
C622   H648    1.085   .     S
C623   H652    1.076   .     S
C624   C641    1.399   .     A
C624   H671    1.075   .     S
C625   C640    1.389   .     A
C625   C641    1.399   .     A
C625   H663    1.083   .     S
C626   C628    1.483   .     S
C626   C642    1.403   .     A
C627   H672    1.084   .     S
C627   C633    1.398   .     A
C627   C797    1.386   .     S
C628   O658    1.291   .     A
C628   O657    1.312   .     A
C629   Cl664   1.763   .     S
C629   C630    1.407   .     A
C629   C963    1.386   1_545 S
C630   C638    1.445   .     S
C630   C631    1.398   .     A
C631   H665    1.084   .     S
C631   C968    1.386   1_545 S
C632   Cl666   1.762   .     S
C632   C633    1.407   .     A
C632   C799    1.386   .     S
C634   N654    1.368   .     A
C634   H647    1.082   .     S
C634   C523    1.419   1_655 S
C635   H667    1.080   .     S
C635   N653    1.367   .     A
C636   Cl668   1.755   .     S
C636   N653    1.379   .     A
C637   H669    1.081   .     S
C637   N654    1.360   .     A
C637   C524    1.414   1_655 S
C638   O659    1.293   .     A
C638   O660    1.291   .     A
C639   O662    1.297   .     A
C639   O661    1.296   .     A
C639   C641    1.461   .     S
C642   H649    1.083   .     S
C642   C643    1.391   .     A
C643   C140    1.388   1_556 S
C643   H147    1.079   1_556 S
C644   H650    1.078   .     S
Cu645  Cu646   2.686   .     S
Cu645  O655    1.960   .     S
Cu645  O659    1.958   .     S
Cu645  N653    2.019   .     S
Cu645  O657    1.962   .     S
Cu645  O661    1.956   .     S
Cu646  O660    1.960   .     S
Cu646  O656    1.958   .     S
Cu646  N654    2.019   .     S
Cu646  O658    1.956   .     S
Cu646  O662    1.962   .     S
H670   C136    1.080   1_556 S
C673   C689    1.446   .     S
C673   O711    1.291   .     A
C673   O712    1.294   .     A
C674   C675    1.418   .     A
C674   C172    1.423   1_556 S
C674   C196    1.413   1_556 S
C675   C679    1.416   .     A
C675   C682    1.431   .     A
C676   C680    1.401   .     A
C677   C678    1.387   .     A
C677   C172    1.418   1_556 S
C677   C192    1.397   1_556 S
C678   C679    1.382   .     A
C678   H704    1.085   .     S
C679   H708    1.076   .     S
C680   C697    1.399   .     A
C680   H727    1.075   .     S
C681   C696    1.389   .     A
C681   C697    1.399   .     A
C681   H719    1.083   .     S
C682   C684    1.483   .     S
C682   C698    1.403   .     A
C683   H728    1.084   .     S
C683   C689    1.398   .     A
C683   C853    1.386   .     S
C684   O714    1.291   .     A
C684   O713    1.312   .     A
C685   Cl720   1.763   .     S
C685   C686    1.407   .     A
C686   C694    1.445   .     S
C686   C687    1.398   .     A
C687   H721    1.084   .     S
C688   Cl722   1.762   .     S
C688   C689    1.407   .     A
C688   C855    1.386   .     S
C690   N710    1.368   .     A
C690   H703    1.082   .     S
C690   C747    1.419   .     S
C691   H723    1.080   .     S
C691   N709    1.367   .     A
C691   C802    1.419   1_455 S
C692   Cl724   1.755   .     S
C692   N709    1.379   .     A
C692   C805    1.414   1_455 S
C693   H725    1.081   .     S
C693   N710    1.360   .     A
C693   C748    1.414   .     S
C694   O715    1.293   .     A
C694   O716    1.291   .     A
C695   O718    1.297   .     A
C695   O717    1.296   .     A
C695   C697    1.461   .     S
C698   H705    1.083   .     S
C698   C699    1.391   .     A
C699   C196    1.388   1_556 S
C699   H203    1.079   1_556 S
C700   H706    1.078   .     S
Cu701  Cu702   2.686   .     S
Cu701  O711    1.960   .     S
Cu701  O715    1.958   .     S
Cu701  N709    2.019   .     S
Cu701  O713    1.962   .     S
Cu701  O717    1.956   .     S
Cu702  O716    1.960   .     S
Cu702  O712    1.958   .     S
Cu702  N710    2.019   .     S
Cu702  O714    1.956   .     S
Cu702  O718    1.962   .     S
H726   C192    1.080   1_556 S
C729   C745    1.446   .     S
C729   O767    1.291   .     A
C729   O768    1.294   .     A
C730   C731    1.418   .     A
C730   C228    1.423   1_556 S
C730   C252    1.413   1_556 S
C731   C735    1.416   .     A
C731   C738    1.431   .     A
C732   C736    1.401   .     A
C733   C734    1.387   .     A
C733   C228    1.418   1_556 S
C733   C248    1.397   1_556 S
C734   C735    1.382   .     A
C734   H760    1.085   .     S
C735   H764    1.076   .     S
C736   C753    1.399   .     A
C736   H783    1.075   .     S
C737   C752    1.389   .     A
C737   C753    1.399   .     A
C737   H775    1.083   .     S
C738   C740    1.483   .     S
C738   C754    1.403   .     A
C739   H784    1.084   .     S
C739   C745    1.398   .     A
C739   C909    1.386   .     S
C740   O770    1.291   .     A
C740   O769    1.312   .     A
C741   Cl776   1.763   .     S
C741   C742    1.407   .     A
C742   C750    1.445   .     S
C742   C743    1.398   .     A
C743   H777    1.084   .     S
C744   Cl778   1.762   .     S
C744   C745    1.407   .     A
C744   C911    1.386   .     S
C746   N766    1.368   .     A
C746   H759    1.082   .     S
C746   C803    1.419   .     S
C747   H779    1.080   .     S
C747   N765    1.367   .     A
C748   Cl780   1.755   .     S
C748   N765    1.379   .     A
C749   H781    1.081   .     S
C749   N766    1.360   .     A
C749   C804    1.414   .     S
C750   O771    1.293   .     A
C750   O772    1.291   .     A
C751   O774    1.297   .     A
C751   O773    1.296   .     A
C751   C753    1.461   .     S
C754   H761    1.083   .     S
C754   C755    1.391   .     A
C755   C252    1.388   1_556 S
C755   H259    1.079   1_556 S
C756   H762    1.078   .     S
Cu757  Cu758   2.686   .     S
Cu757  O767    1.960   .     S
Cu757  O771    1.958   .     S
Cu757  N765    2.019   .     S
Cu757  O769    1.962   .     S
Cu757  O773    1.956   .     S
Cu758  O772    1.960   .     S
Cu758  O768    1.958   .     S
Cu758  N766    2.019   .     S
Cu758  O770    1.956   .     S
Cu758  O774    1.962   .     S
H782   C248    1.080   1_556 S
C785   C801    1.446   .     S
C785   O823    1.291   .     A
C785   O824    1.294   .     A
C786   C787    1.418   .     A
C786   C284    1.423   1_556 S
C786   C308    1.413   1_556 S
C787   C791    1.416   .     A
C787   C794    1.431   .     A
C788   C792    1.401   .     A
C789   C790    1.387   .     A
C789   C284    1.418   1_556 S
C789   C304    1.397   1_556 S
C790   C791    1.382   .     A
C790   H816    1.085   .     S
C791   H820    1.076   .     S
C792   C809    1.399   .     A
C792   H839    1.075   .     S
C793   C808    1.389   .     A
C793   C809    1.399   .     A
C793   H831    1.083   .     S
C794   C796    1.483   .     S
C794   C810    1.403   .     A
C795   H840    1.084   .     S
C795   C801    1.398   .     A
C795   C965    1.386   .     S
C796   O826    1.291   .     A
C796   O825    1.312   .     A
C797   Cl832   1.763   .     S
C797   C798    1.407   .     A
C798   C806    1.445   .     S
C798   C799    1.398   .     A
C799   H833    1.084   .     S
C800   Cl834   1.762   .     S
C800   C801    1.407   .     A
C800   C967    1.386   .     S
C802   N822    1.368   .     A
C802   H815    1.082   .     S
C802   C691    1.419   1_655 S
C803   H835    1.080   .     S
C803   N821    1.367   .     A
C804   Cl836   1.755   .     S
C804   N821    1.379   .     A
C805   H837    1.081   .     S
C805   N822    1.360   .     A
C805   C692    1.414   1_655 S
C806   O827    1.293   .     A
C806   O828    1.291   .     A
C807   O830    1.297   .     A
C807   O829    1.296   .     A
C807   C809    1.461   .     S
C810   H817    1.083   .     S
C810   C811    1.391   .     A
C811   C308    1.388   1_556 S
C811   H315    1.079   1_556 S
C812   H818    1.078   .     S
Cu813  Cu814   2.686   .     S
Cu813  O823    1.960   .     S
Cu813  O827    1.958   .     S
Cu813  N821    2.019   .     S
Cu813  O825    1.962   .     S
Cu813  O829    1.956   .     S
Cu814  O828    1.960   .     S
Cu814  O824    1.958   .     S
Cu814  N822    2.019   .     S
Cu814  O826    1.956   .     S
Cu814  O830    1.962   .     S
H838   C304    1.080   1_556 S
C841   C857    1.446   .     S
C841   O879    1.291   .     A
C841   O880    1.294   .     A
C842   C843    1.418   .     A
C842   C340    1.423   1_556 S
C842   C364    1.413   1_556 S
C843   C847    1.416   .     A
C843   C850    1.431   .     A
C844   C848    1.401   .     A
C845   C846    1.387   .     A
C845   C340    1.418   1_556 S
C845   C360    1.397   1_556 S
C846   C847    1.382   .     A
C846   H872    1.085   .     S
C847   H876    1.076   .     S
C848   C865    1.399   .     A
C848   H895    1.075   .     S
C849   C864    1.389   .     A
C849   C865    1.399   .     A
C849   H887    1.083   .     S
C850   C852    1.483   .     S
C850   C866    1.403   .     A
C851   H896    1.084   .     S
C851   C857    1.398   .     A
C851   C517    1.386   1_565 S
C852   O882    1.291   .     A
C852   O881    1.312   .     A
C853   Cl888   1.763   .     S
C853   C854    1.407   .     A
C854   C862    1.445   .     S
C854   C855    1.398   .     A
C855   H889    1.084   .     S
C856   Cl890   1.762   .     S
C856   C857    1.407   .     A
C856   C519    1.386   1_565 S
C858   N878    1.368   .     A
C858   H871    1.082   .     S
C858   C915    1.419   .     S
C859   H891    1.080   .     S
C859   N877    1.367   .     A
C859   C970    1.419   1_455 S
C860   Cl892   1.755   .     S
C860   N877    1.379   .     A
C860   C973    1.414   1_455 S
C861   H893    1.081   .     S
C861   N878    1.360   .     A
C861   C916    1.414   .     S
C862   O883    1.293   .     A
C862   O884    1.291   .     A
C863   O886    1.297   .     A
C863   O885    1.296   .     A
C863   C865    1.461   .     S
C866   H873    1.083   .     S
C866   C867    1.391   .     A
C867   C364    1.388   1_556 S
C867   H371    1.079   1_556 S
C868   H874    1.078   .     S
Cu869  Cu870   2.686   .     S
Cu869  O879    1.960   .     S
Cu869  O883    1.958   .     S
Cu869  N877    2.019   .     S
Cu869  O881    1.962   .     S
Cu869  O885    1.956   .     S
Cu870  O884    1.960   .     S
Cu870  O880    1.958   .     S
Cu870  N878    2.019   .     S
Cu870  O882    1.956   .     S
Cu870  O886    1.962   .     S
H894   C360    1.080   1_556 S
C897   C913    1.446   .     S
C897   O935    1.291   .     A
C897   O936    1.294   .     A
C898   C899    1.418   .     A
C898   C396    1.423   1_556 S
C898   C420    1.413   1_556 S
C899   C903    1.416   .     A
C899   C906    1.431   .     A
C900   C904    1.401   .     A
C901   C902    1.387   .     A
C901   C396    1.418   1_556 S
C901   C416    1.397   1_556 S
C902   C903    1.382   .     A
C902   H928    1.085   .     S
C903   H932    1.076   .     S
C904   C921    1.399   .     A
C904   H951    1.075   .     S
C905   C920    1.389   .     A
C905   C921    1.399   .     A
C905   H943    1.083   .     S
C906   C908    1.483   .     S
C906   C922    1.403   .     A
C907   H952    1.084   .     S
C907   C913    1.398   .     A
C907   C573    1.386   1_565 S
C908   O938    1.291   .     A
C908   O937    1.312   .     A
C909   Cl944   1.763   .     S
C909   C910    1.407   .     A
C910   C918    1.445   .     S
C910   C911    1.398   .     A
C911   H945    1.084   .     S
C912   Cl946   1.762   .     S
C912   C913    1.407   .     A
C912   C575    1.386   1_565 S
C914   N934    1.368   .     A
C914   H927    1.082   .     S
C914   C971    1.419   .     S
C915   H947    1.080   .     S
C915   N933    1.367   .     A
C916   Cl948   1.755   .     S
C916   N933    1.379   .     A
C917   H949    1.081   .     S
C917   N934    1.360   .     A
C917   C972    1.414   .     S
C918   O939    1.293   .     A
C918   O940    1.291   .     A
C919   O942    1.297   .     A
C919   O941    1.296   .     A
C919   C921    1.461   .     S
C922   H929    1.083   .     S
C922   C923    1.391   .     A
C923   C420    1.388   1_556 S
C923   H427    1.079   1_556 S
C924   H930    1.078   .     S
Cu925  Cu926   2.686   .     S
Cu925  O935    1.960   .     S
Cu925  O939    1.958   .     S
Cu925  N933    2.019   .     S
Cu925  O937    1.962   .     S
Cu925  O941    1.956   .     S
Cu926  O940    1.960   .     S
Cu926  O936    1.958   .     S
Cu926  N934    2.019   .     S
Cu926  O938    1.956   .     S
Cu926  O942    1.962   .     S
H950   C416    1.080   1_556 S
C953   C969    1.446   .     S
C953   O991    1.291   .     A
C953   O992    1.294   .     A
C954   C955    1.418   .     A
C954   C452    1.423   1_556 S
C954   C476    1.413   1_556 S
C955   C959    1.416   .     A
C955   C962    1.431   .     A
C956   C960    1.401   .     A
C957   C958    1.387   .     A
C957   C452    1.418   1_556 S
C957   C472    1.397   1_556 S
C958   C959    1.382   .     A
C958   H984    1.085   .     S
C959   H988    1.076   .     S
C960   C977    1.399   .     A
C960   H1007   1.075   .     S
C961   C976    1.389   .     A
C961   C977    1.399   .     A
C961   H999    1.083   .     S
C962   C964    1.483   .     S
C962   C978    1.403   .     A
C963   H1008   1.084   .     S
C963   C969    1.398   .     A
C963   C629    1.386   1_565 S
C964   O994    1.291   .     A
C964   O993    1.312   .     A
C965   Cl1000  1.763   .     S
C965   C966    1.407   .     A
C966   C974    1.445   .     S
C966   C967    1.398   .     A
C967   H1001   1.084   .     S
C968   Cl1002  1.762   .     S
C968   C969    1.407   .     A
C968   C631    1.386   1_565 S
C970   N990    1.368   .     A
C970   H983    1.082   .     S
C970   C859    1.419   1_655 S
C971   H1003   1.080   .     S
C971   N989    1.367   .     A
C972   Cl1004  1.755   .     S
C972   N989    1.379   .     A
C973   H1005   1.081   .     S
C973   N990    1.360   .     A
C973   C860    1.414   1_655 S
C974   O995    1.293   .     A
C974   O996    1.291   .     A
C975   O998    1.297   .     A
C975   O997    1.296   .     A
C975   C977    1.461   .     S
C978   H985    1.083   .     S
C978   C979    1.391   .     A
C979   C476    1.388   1_556 S
C979   H483    1.079   1_556 S
C980   H986    1.078   .     S
Cu981  Cu982   2.686   .     S
Cu981  O991    1.960   .     S
Cu981  O995    1.958   .     S
Cu981  N989    2.019   .     S
Cu981  O993    1.962   .     S
Cu981  O997    1.956   .     S
Cu982  O996    1.960   .     S
Cu982  O992    1.958   .     S
Cu982  N990    2.019   .     S
Cu982  O994    1.956   .     S
Cu982  O998    1.962   .     S
H1006  C472    1.080   1_556 S
