data_str_m2_o2_o10_pcu_sym.146
_audit_creation_date              2020-01-03
_audit_creation_method            'Materials Studio'
_symmetry_space_group_name_H-M    'P1'
_symmetry_Int_Tables_number       1
_symmetry_cell_setting            triclinic
loop_
_symmetry_equiv_pos_as_xyz
  x,y,z
_cell_length_a                    26.3853
_cell_length_b                    30.1619
_cell_length_c                    27.6742
_cell_angle_alpha                 91.0677
_cell_angle_beta                  97.6658
_cell_angle_gamma                 90.1780
loop_
_atom_site_label
_atom_site_type_symbol
_atom_site_fract_x
_atom_site_fract_y
_atom_site_fract_z
_atom_site_U_iso_or_equiv
_atom_site_adp_type
_atom_site_occupancy
C1     C     0.16706   0.16483   0.24958   0.00000  Uiso   1.00
C2     C     0.16777   0.33525   0.25061   0.00000  Uiso   1.00
C3     C     0.20447   0.27189   0.05894   0.00000  Uiso   1.00
C4     C     0.15602   0.21126   0.44413   0.00000  Uiso   1.00
C5     C     0.20346   0.27242   0.10952   0.00000  Uiso   1.00
C6     C     0.15549   0.21208   0.39339   0.00000  Uiso   1.00
C7     C     0.12939   0.22741   0.09990   0.00000  Uiso   1.00
C8     C     0.17753   0.28805   0.39761   0.00000  Uiso   1.00
C9     C     0.12785   0.22692   0.04878   0.00000  Uiso   1.00
C10    C     0.17593   0.28945   0.44836   0.00000  Uiso   1.00
C11    C     0.16626   0.24931   0.02738   0.00000  Uiso   1.00
C12    C     0.16606   0.25010   0.47278   0.00000  Uiso   1.00
C13    C     0.06805   0.24907   0.23788   0.00000  Uiso   1.00
C14    C     0.26527   0.24970   0.26222   0.00000  Uiso   1.00
C15    C     0.01361   0.24315   0.23192   0.00000  Uiso   1.00
C16    C     0.31989   0.25338   0.26900   0.00000  Uiso   1.00
C17    C     0.21056   0.05006   0.28621   0.00000  Uiso   1.00
C18    C     0.20764   0.45068   0.22096   0.00000  Uiso   1.00
C19    C     0.20735   0.09620   0.28535   0.00000  Uiso   1.00
C20    C     0.20510   0.40433   0.22194   0.00000  Uiso   1.00
C21    C     0.17256   0.11656   0.24904   0.00000  Uiso   1.00
C22    C     0.17310   0.38376   0.25221   0.00000  Uiso   1.00
C23    C     0.14441   0.09015   0.21209   0.00000  Uiso   1.00
C24    C     0.14791   0.41019   0.28434   0.00000  Uiso   1.00
C25    C     0.14989   0.04433   0.21253   0.00000  Uiso   1.00
C26    C     0.15320   0.45607   0.28451   0.00000  Uiso   1.00
C27    C     0.18220   0.02434   0.24971   0.00000  Uiso   1.00
C28    C     0.18223   0.47625   0.25253   0.00000  Uiso   1.00
Cu29   Cu    0.16667   0.24999   0.29822   0.00000  Uiso   1.00
Cu30   Cu    0.16667   0.25000   0.20178   0.00000  Uiso   1.00
H31    H     0.23519   0.03429   0.31533   0.00000  Uiso   1.00
H32    H     0.22957   0.46671   0.19573   0.00000  Uiso   1.00
H33    H     0.12731   0.02401   0.18488   0.00000  Uiso   1.00
H34    H     0.13300   0.47630   0.30840   0.00000  Uiso   1.00
H35    H     0.23526   0.28899   0.04473   0.00000  Uiso   1.00
H36    H     0.14915   0.18003   0.46081   0.00000  Uiso   1.00
H37    H     0.23241   0.29068   0.13298   0.00000  Uiso   1.00
H38    H     0.14647   0.18179   0.37262   0.00000  Uiso   1.00
H39    H     0.10031   0.20981   0.11597   0.00000  Uiso   1.00
H40    H     0.18709   0.31799   0.37997   0.00000  Uiso   1.00
N41    N     0.16667   0.25001   0.12934   0.00000  Uiso   1.00
N42    N     0.16667   0.24999   0.37066   0.00000  Uiso   1.00
O43    O     0.16667   0.18572   0.29072   0.00000  Uiso   1.00
O44    O     0.16666   0.31428   0.20928   0.00000  Uiso   1.00
O45    O     0.16667   0.18573   0.20928   0.00000  Uiso   1.00
O46    O     0.16666   0.31427   0.29072   0.00000  Uiso   1.00
O47    O     0.09161   0.25000   0.28132   0.00000  Uiso   1.00
O48    O     0.24172   0.25000   0.21868   0.00000  Uiso   1.00
O49    O     0.09161   0.25000   0.19989   0.00000  Uiso   1.00
O50    O     0.24172   0.25000   0.30011   0.00000  Uiso   1.00
I51    I     0.31754   0.21037   0.16408   0.00000  Uiso   1.00
I52    I     0.01575   0.28080   0.33988   0.00000  Uiso   1.00
O53    O     0.23583   0.12066   0.32233   0.00000  Uiso   1.00
C54    C     0.27876   0.14011   0.30497   0.00000  Uiso   1.00
H55    H     0.28803   0.17125   0.32641   0.00000  Uiso   1.00
H56    H     0.27145   0.14958   0.26588   0.00000  Uiso   1.00
C57    C     0.32529   0.10959   0.31319   0.00000  Uiso   1.00
H58    H     0.33232   0.10041   0.35221   0.00000  Uiso   1.00
H59    H     0.31769   0.07880   0.29069   0.00000  Uiso   1.00
C60    C     0.03971   0.13227   0.29937   0.00000  Uiso   1.00
H61    H     0.03379   0.14126   0.26029   0.00000  Uiso   1.00
H62    H     0.07274   0.10939   0.30548   0.00000  Uiso   1.00
H63    H     0.04883   0.16275   0.32209   0.00000  Uiso   1.00
O64    O     0.23223   0.37912   0.19189   0.00000  Uiso   1.00
C65    C     0.28486   0.38127   0.21031   0.00000  Uiso   1.00
H66    H     0.29168   0.36689   0.24744   0.00000  Uiso   1.00
H67    H     0.29921   0.41612   0.21210   0.00000  Uiso   1.00
C68    C     0.31522   0.35467   0.17654   0.00000  Uiso   1.00
H69    H     0.30449   0.31917   0.17729   0.00000  Uiso   1.00
H70    H     0.30590   0.36648   0.13859   0.00000  Uiso   1.00
C71    C     0.03937   0.35906   0.19219   0.00000  Uiso   1.00
H72    H     0.05163   0.39431   0.19183   0.00000  Uiso   1.00
H73    H     0.06013   0.33965   0.16663   0.00000  Uiso   1.00
H74    H     0.04956   0.34595   0.22939   0.00000  Uiso   1.00
I75    I     0.08932   0.11532   0.15665   0.00000  Uiso   1.00
I76    I     0.09807   0.38553   0.33168   0.00000  Uiso   1.00
O77    O     0.09032   0.20253   0.02038   0.00000  Uiso   1.00
C78    C     0.04695   0.22943   0.00870   0.00000  Uiso   1.00
H79    H     0.05736   0.26247   0.49531   0.00000  Uiso   1.00
H80    H     0.02695   0.23414   0.04140   0.00000  Uiso   1.00
C81    C     0.01092   0.20628   0.46812   0.00000  Uiso   1.00
H82    H     0.03037   0.20275   0.43500   0.00000  Uiso   1.00
H83    H     0.00128   0.17259   0.47988   0.00000  Uiso   1.00
C84    C     0.29501   0.23231   0.45555   0.00000  Uiso   1.00
H85    H     0.27392   0.23408   0.48762   0.00000  Uiso   1.00
H86    H     0.27054   0.21539   0.42491   0.00000  Uiso   1.00
H87    H     0.30348   0.26646   0.44447   0.00000  Uiso   1.00
O88    O     0.18616   0.32914   0.47360   0.00000  Uiso   1.00
C89    C     0.13930   0.34960   0.47977   0.00000  Uiso   1.00
H90    H     0.11517   0.32798   0.49975   0.00000  Uiso   1.00
H91    H     0.11746   0.35728   0.44367   0.00000  Uiso   1.00
C92    C     0.14950   0.39322   0.00858   0.00000  Uiso   1.00
H93    H     0.17444   0.41489   0.48968   0.00000  Uiso   1.00
H94    H     0.11258   0.41055   0.00984   0.00000  Uiso   1.00
C95    C     0.17473   0.38580   0.06078   0.00000  Uiso   1.00
H96    H     0.15071   0.36363   0.08006   0.00000  Uiso   1.00
H97    H     0.17930   0.41806   0.08091   0.00000  Uiso   1.00
H98    H     0.21318   0.37094   0.06077   0.00000  Uiso   1.00
C99    C     0.50039   0.16483   0.24958   0.00000  Uiso   1.00
C100   C     0.50110   0.33525   0.25061   0.00000  Uiso   1.00
C101   C     0.53780   0.27189   0.05894   0.00000  Uiso   1.00
C102   C     0.48936   0.21126   0.44413   0.00000  Uiso   1.00
C103   C     0.53680   0.27242   0.10952   0.00000  Uiso   1.00
C104   C     0.48883   0.21208   0.39339   0.00000  Uiso   1.00
C105   C     0.46272   0.22741   0.09990   0.00000  Uiso   1.00
C106   C     0.51086   0.28805   0.39761   0.00000  Uiso   1.00
C107   C     0.46118   0.22692   0.04878   0.00000  Uiso   1.00
C108   C     0.50926   0.28945   0.44836   0.00000  Uiso   1.00
C109   C     0.49960   0.24931   0.02738   0.00000  Uiso   1.00
C110   C     0.49940   0.25010   0.47278   0.00000  Uiso   1.00
C111   C     0.40139   0.24907   0.23788   0.00000  Uiso   1.00
C112   C     0.59861   0.24970   0.26222   0.00000  Uiso   1.00
C113   C     0.34694   0.24315   0.23192   0.00000  Uiso   1.00
C114   C     0.65323   0.25338   0.26900   0.00000  Uiso   1.00
C115   C     0.54390   0.05006   0.28621   0.00000  Uiso   1.00
C116   C     0.54098   0.45068   0.22096   0.00000  Uiso   1.00
C117   C     0.54068   0.09620   0.28535   0.00000  Uiso   1.00
C118   C     0.53843   0.40433   0.22194   0.00000  Uiso   1.00
C119   C     0.50589   0.11656   0.24904   0.00000  Uiso   1.00
C120   C     0.50644   0.38376   0.25221   0.00000  Uiso   1.00
C121   C     0.47774   0.09015   0.21209   0.00000  Uiso   1.00
C122   C     0.48124   0.41019   0.28434   0.00000  Uiso   1.00
C123   C     0.48322   0.04433   0.21253   0.00000  Uiso   1.00
C124   C     0.48653   0.45607   0.28451   0.00000  Uiso   1.00
C125   C     0.51553   0.02434   0.24971   0.00000  Uiso   1.00
C126   C     0.51557   0.47625   0.25253   0.00000  Uiso   1.00
Cu127  Cu    0.50000   0.24999   0.29822   0.00000  Uiso   1.00
Cu128  Cu    0.50000   0.25000   0.20178   0.00000  Uiso   1.00
H129   H     0.56853   0.03429   0.31533   0.00000  Uiso   1.00
H130   H     0.56290   0.46671   0.19573   0.00000  Uiso   1.00
H131   H     0.46065   0.02401   0.18488   0.00000  Uiso   1.00
H132   H     0.46633   0.47630   0.30840   0.00000  Uiso   1.00
H133   H     0.56859   0.28899   0.04473   0.00000  Uiso   1.00
H134   H     0.48248   0.18003   0.46081   0.00000  Uiso   1.00
H135   H     0.56574   0.29068   0.13298   0.00000  Uiso   1.00
H136   H     0.47980   0.18179   0.37262   0.00000  Uiso   1.00
H137   H     0.43364   0.20981   0.11597   0.00000  Uiso   1.00
H138   H     0.52042   0.31799   0.37997   0.00000  Uiso   1.00
N139   N     0.50000   0.25001   0.12934   0.00000  Uiso   1.00
N140   N     0.50000   0.24999   0.37066   0.00000  Uiso   1.00
O141   O     0.50000   0.18572   0.29072   0.00000  Uiso   1.00
O142   O     0.50000   0.31428   0.20928   0.00000  Uiso   1.00
O143   O     0.50000   0.18573   0.20928   0.00000  Uiso   1.00
O144   O     0.50000   0.31427   0.29072   0.00000  Uiso   1.00
O145   O     0.42495   0.25000   0.28132   0.00000  Uiso   1.00
O146   O     0.57505   0.25000   0.21868   0.00000  Uiso   1.00
O147   O     0.42495   0.25000   0.19989   0.00000  Uiso   1.00
O148   O     0.57505   0.25000   0.30011   0.00000  Uiso   1.00
I149   I     0.65088   0.21037   0.16408   0.00000  Uiso   1.00
I150   I     0.34909   0.28080   0.33988   0.00000  Uiso   1.00
O151   O     0.56917   0.12066   0.32233   0.00000  Uiso   1.00
C152   C     0.61209   0.14011   0.30497   0.00000  Uiso   1.00
H153   H     0.62137   0.17125   0.32641   0.00000  Uiso   1.00
H154   H     0.60478   0.14958   0.26588   0.00000  Uiso   1.00
C155   C     0.65862   0.10959   0.31319   0.00000  Uiso   1.00
H156   H     0.66566   0.10041   0.35221   0.00000  Uiso   1.00
H157   H     0.65103   0.07880   0.29069   0.00000  Uiso   1.00
C158   C     0.37305   0.13227   0.29937   0.00000  Uiso   1.00
H159   H     0.36712   0.14126   0.26029   0.00000  Uiso   1.00
H160   H     0.40607   0.10939   0.30548   0.00000  Uiso   1.00
H161   H     0.38216   0.16275   0.32209   0.00000  Uiso   1.00
O162   O     0.56556   0.37912   0.19189   0.00000  Uiso   1.00
C163   C     0.61820   0.38127   0.21031   0.00000  Uiso   1.00
H164   H     0.62501   0.36689   0.24744   0.00000  Uiso   1.00
H165   H     0.63254   0.41612   0.21210   0.00000  Uiso   1.00
C166   C     0.64855   0.35467   0.17654   0.00000  Uiso   1.00
H167   H     0.63782   0.31917   0.17729   0.00000  Uiso   1.00
H168   H     0.63923   0.36648   0.13859   0.00000  Uiso   1.00
C169   C     0.37271   0.35906   0.19219   0.00000  Uiso   1.00
H170   H     0.38497   0.39431   0.19183   0.00000  Uiso   1.00
H171   H     0.39347   0.33965   0.16663   0.00000  Uiso   1.00
H172   H     0.38289   0.34595   0.22939   0.00000  Uiso   1.00
I173   I     0.42266   0.11532   0.15665   0.00000  Uiso   1.00
I174   I     0.43141   0.38553   0.33168   0.00000  Uiso   1.00
O175   O     0.42365   0.20253   0.02038   0.00000  Uiso   1.00
C176   C     0.38028   0.22943   0.00870   0.00000  Uiso   1.00
H177   H     0.39069   0.26247   0.49531   0.00000  Uiso   1.00
H178   H     0.36028   0.23414   0.04140   0.00000  Uiso   1.00
C179   C     0.34425   0.20628   0.46812   0.00000  Uiso   1.00
H180   H     0.36371   0.20275   0.43500   0.00000  Uiso   1.00
H181   H     0.33461   0.17259   0.47988   0.00000  Uiso   1.00
C182   C     0.62834   0.23231   0.45555   0.00000  Uiso   1.00
H183   H     0.60725   0.23408   0.48762   0.00000  Uiso   1.00
H184   H     0.60387   0.21539   0.42491   0.00000  Uiso   1.00
H185   H     0.63681   0.26646   0.44447   0.00000  Uiso   1.00
O186   O     0.51949   0.32914   0.47360   0.00000  Uiso   1.00
C187   C     0.47263   0.34960   0.47977   0.00000  Uiso   1.00
H188   H     0.44850   0.32798   0.49975   0.00000  Uiso   1.00
H189   H     0.45080   0.35728   0.44367   0.00000  Uiso   1.00
C190   C     0.48284   0.39322   0.00858   0.00000  Uiso   1.00
H191   H     0.50778   0.41489   0.48968   0.00000  Uiso   1.00
H192   H     0.44591   0.41055   0.00984   0.00000  Uiso   1.00
C193   C     0.50807   0.38580   0.06078   0.00000  Uiso   1.00
H194   H     0.48405   0.36363   0.08006   0.00000  Uiso   1.00
H195   H     0.51263   0.41806   0.08091   0.00000  Uiso   1.00
H196   H     0.54651   0.37094   0.06077   0.00000  Uiso   1.00
C197   C     0.83373   0.16483   0.24958   0.00000  Uiso   1.00
C198   C     0.83444   0.33525   0.25061   0.00000  Uiso   1.00
C199   C     0.87114   0.27189   0.05894   0.00000  Uiso   1.00
C200   C     0.82269   0.21126   0.44413   0.00000  Uiso   1.00
C201   C     0.87013   0.27242   0.10952   0.00000  Uiso   1.00
C202   C     0.82216   0.21208   0.39339   0.00000  Uiso   1.00
C203   C     0.79606   0.22741   0.09990   0.00000  Uiso   1.00
C204   C     0.84420   0.28805   0.39761   0.00000  Uiso   1.00
C205   C     0.79452   0.22692   0.04878   0.00000  Uiso   1.00
C206   C     0.84260   0.28945   0.44836   0.00000  Uiso   1.00
C207   C     0.83293   0.24931   0.02738   0.00000  Uiso   1.00
C208   C     0.83273   0.25010   0.47278   0.00000  Uiso   1.00
C209   C     0.73472   0.24907   0.23788   0.00000  Uiso   1.00
C210   C     0.93194   0.24970   0.26222   0.00000  Uiso   1.00
C211   C     0.68028   0.24315   0.23192   0.00000  Uiso   1.00
C212   C     0.98656   0.25338   0.26900   0.00000  Uiso   1.00
C213   C     0.87723   0.05006   0.28621   0.00000  Uiso   1.00
C214   C     0.87431   0.45068   0.22096   0.00000  Uiso   1.00
C215   C     0.87402   0.09620   0.28535   0.00000  Uiso   1.00
C216   C     0.87177   0.40433   0.22194   0.00000  Uiso   1.00
C217   C     0.83923   0.11656   0.24904   0.00000  Uiso   1.00
C218   C     0.83977   0.38376   0.25221   0.00000  Uiso   1.00
C219   C     0.81107   0.09015   0.21209   0.00000  Uiso   1.00
C220   C     0.81457   0.41019   0.28434   0.00000  Uiso   1.00
C221   C     0.81656   0.04433   0.21253   0.00000  Uiso   1.00
C222   C     0.81987   0.45607   0.28451   0.00000  Uiso   1.00
C223   C     0.84887   0.02434   0.24971   0.00000  Uiso   1.00
C224   C     0.84890   0.47625   0.25253   0.00000  Uiso   1.00
Cu225  Cu    0.83333   0.24999   0.29822   0.00000  Uiso   1.00
Cu226  Cu    0.83333   0.25000   0.20178   0.00000  Uiso   1.00
H227   H     0.90186   0.03429   0.31533   0.00000  Uiso   1.00
H228   H     0.89623   0.46671   0.19573   0.00000  Uiso   1.00
H229   H     0.79398   0.02401   0.18488   0.00000  Uiso   1.00
H230   H     0.79966   0.47630   0.30840   0.00000  Uiso   1.00
H231   H     0.90192   0.28899   0.04473   0.00000  Uiso   1.00
H232   H     0.81582   0.18003   0.46081   0.00000  Uiso   1.00
H233   H     0.89907   0.29068   0.13298   0.00000  Uiso   1.00
H234   H     0.81313   0.18179   0.37262   0.00000  Uiso   1.00
H235   H     0.76697   0.20981   0.11597   0.00000  Uiso   1.00
H236   H     0.85376   0.31799   0.37997   0.00000  Uiso   1.00
N237   N     0.83333   0.25001   0.12934   0.00000  Uiso   1.00
N238   N     0.83333   0.24999   0.37066   0.00000  Uiso   1.00
O239   O     0.83334   0.18572   0.29072   0.00000  Uiso   1.00
O240   O     0.83333   0.31428   0.20928   0.00000  Uiso   1.00
O241   O     0.83334   0.18573   0.20928   0.00000  Uiso   1.00
O242   O     0.83333   0.31427   0.29072   0.00000  Uiso   1.00
O243   O     0.75828   0.25000   0.28132   0.00000  Uiso   1.00
O244   O     0.90839   0.25000   0.21868   0.00000  Uiso   1.00
O245   O     0.75828   0.25000   0.19989   0.00000  Uiso   1.00
O246   O     0.90839   0.25000   0.30011   0.00000  Uiso   1.00
I247   I     0.98421   0.21037   0.16408   0.00000  Uiso   1.00
I248   I     0.68242   0.28080   0.33988   0.00000  Uiso   1.00
O249   O     0.90250   0.12066   0.32233   0.00000  Uiso   1.00
C250   C     0.94543   0.14011   0.30497   0.00000  Uiso   1.00
H251   H     0.95470   0.17125   0.32641   0.00000  Uiso   1.00
H252   H     0.93812   0.14958   0.26588   0.00000  Uiso   1.00
C253   C     0.99195   0.10959   0.31319   0.00000  Uiso   1.00
H254   H     0.99899   0.10041   0.35221   0.00000  Uiso   1.00
H255   H     0.98436   0.07880   0.29069   0.00000  Uiso   1.00
C256   C     0.70638   0.13227   0.29937   0.00000  Uiso   1.00
H257   H     0.70045   0.14126   0.26029   0.00000  Uiso   1.00
H258   H     0.73941   0.10939   0.30548   0.00000  Uiso   1.00
H259   H     0.71549   0.16275   0.32209   0.00000  Uiso   1.00
O260   O     0.89889   0.37912   0.19189   0.00000  Uiso   1.00
C261   C     0.95153   0.38127   0.21031   0.00000  Uiso   1.00
H262   H     0.95834   0.36689   0.24744   0.00000  Uiso   1.00
H263   H     0.96588   0.41612   0.21210   0.00000  Uiso   1.00
C264   C     0.98189   0.35467   0.17654   0.00000  Uiso   1.00
H265   H     0.97116   0.31917   0.17729   0.00000  Uiso   1.00
H266   H     0.97257   0.36648   0.13859   0.00000  Uiso   1.00
C267   C     0.70604   0.35906   0.19219   0.00000  Uiso   1.00
H268   H     0.71830   0.39431   0.19183   0.00000  Uiso   1.00
H269   H     0.72680   0.33965   0.16663   0.00000  Uiso   1.00
H270   H     0.71623   0.34595   0.22939   0.00000  Uiso   1.00
I271   I     0.75599   0.11532   0.15665   0.00000  Uiso   1.00
I272   I     0.76474   0.38553   0.33168   0.00000  Uiso   1.00
O273   O     0.75698   0.20253   0.02038   0.00000  Uiso   1.00
C274   C     0.71361   0.22943   0.00870   0.00000  Uiso   1.00
H275   H     0.72403   0.26247   0.49531   0.00000  Uiso   1.00
H276   H     0.69361   0.23414   0.04140   0.00000  Uiso   1.00
C277   C     0.67758   0.20628   0.46812   0.00000  Uiso   1.00
H278   H     0.69704   0.20275   0.43500   0.00000  Uiso   1.00
H279   H     0.66795   0.17259   0.47988   0.00000  Uiso   1.00
C280   C     0.96168   0.23231   0.45555   0.00000  Uiso   1.00
H281   H     0.94059   0.23408   0.48762   0.00000  Uiso   1.00
H282   H     0.93720   0.21539   0.42491   0.00000  Uiso   1.00
H283   H     0.97015   0.26646   0.44447   0.00000  Uiso   1.00
O284   O     0.85283   0.32914   0.47360   0.00000  Uiso   1.00
C285   C     0.80596   0.34960   0.47977   0.00000  Uiso   1.00
H286   H     0.78184   0.32798   0.49975   0.00000  Uiso   1.00
H287   H     0.78413   0.35728   0.44367   0.00000  Uiso   1.00
C288   C     0.81617   0.39322   0.00858   0.00000  Uiso   1.00
H289   H     0.84111   0.41489   0.48968   0.00000  Uiso   1.00
H290   H     0.77924   0.41055   0.00984   0.00000  Uiso   1.00
C291   C     0.84140   0.38580   0.06078   0.00000  Uiso   1.00
H292   H     0.81738   0.36363   0.08006   0.00000  Uiso   1.00
H293   H     0.84596   0.41806   0.08091   0.00000  Uiso   1.00
H294   H     0.87985   0.37094   0.06077   0.00000  Uiso   1.00
C295   C     0.16706   0.66483   0.24958   0.00000  Uiso   1.00
C296   C     0.16777   0.83525   0.25061   0.00000  Uiso   1.00
C297   C     0.20447   0.77189   0.05894   0.00000  Uiso   1.00
C298   C     0.15602   0.71126   0.44413   0.00000  Uiso   1.00
C299   C     0.20346   0.77242   0.10952   0.00000  Uiso   1.00
C300   C     0.15549   0.71208   0.39339   0.00000  Uiso   1.00
C301   C     0.12939   0.72741   0.09990   0.00000  Uiso   1.00
C302   C     0.17753   0.78805   0.39761   0.00000  Uiso   1.00
C303   C     0.12785   0.72692   0.04878   0.00000  Uiso   1.00
C304   C     0.17593   0.78945   0.44836   0.00000  Uiso   1.00
C305   C     0.16626   0.74931   0.02738   0.00000  Uiso   1.00
C306   C     0.16606   0.75010   0.47278   0.00000  Uiso   1.00
C307   C     0.06805   0.74907   0.23788   0.00000  Uiso   1.00
C308   C     0.26527   0.74970   0.26222   0.00000  Uiso   1.00
C309   C     0.01361   0.74315   0.23192   0.00000  Uiso   1.00
C310   C     0.31989   0.75338   0.26900   0.00000  Uiso   1.00
C311   C     0.21056   0.55006   0.28621   0.00000  Uiso   1.00
C312   C     0.20764   0.95068   0.22096   0.00000  Uiso   1.00
C313   C     0.20735   0.59620   0.28535   0.00000  Uiso   1.00
C314   C     0.20510   0.90433   0.22194   0.00000  Uiso   1.00
C315   C     0.17256   0.61656   0.24904   0.00000  Uiso   1.00
C316   C     0.17310   0.88376   0.25221   0.00000  Uiso   1.00
C317   C     0.14441   0.59015   0.21209   0.00000  Uiso   1.00
C318   C     0.14791   0.91019   0.28434   0.00000  Uiso   1.00
C319   C     0.14989   0.54433   0.21253   0.00000  Uiso   1.00
C320   C     0.15320   0.95607   0.28451   0.00000  Uiso   1.00
C321   C     0.18220   0.52434   0.24971   0.00000  Uiso   1.00
C322   C     0.18223   0.97625   0.25253   0.00000  Uiso   1.00
Cu323  Cu    0.16667   0.74999   0.29822   0.00000  Uiso   1.00
Cu324  Cu    0.16667   0.75000   0.20178   0.00000  Uiso   1.00
H325   H     0.23519   0.53429   0.31533   0.00000  Uiso   1.00
H326   H     0.22957   0.96671   0.19573   0.00000  Uiso   1.00
H327   H     0.12731   0.52401   0.18488   0.00000  Uiso   1.00
H328   H     0.13300   0.97630   0.30840   0.00000  Uiso   1.00
H329   H     0.23526   0.78899   0.04473   0.00000  Uiso   1.00
H330   H     0.14915   0.68003   0.46081   0.00000  Uiso   1.00
H331   H     0.23241   0.79068   0.13298   0.00000  Uiso   1.00
H332   H     0.14647   0.68179   0.37262   0.00000  Uiso   1.00
H333   H     0.10031   0.70981   0.11597   0.00000  Uiso   1.00
H334   H     0.18709   0.81799   0.37997   0.00000  Uiso   1.00
N335   N     0.16667   0.75001   0.12934   0.00000  Uiso   1.00
N336   N     0.16667   0.74999   0.37066   0.00000  Uiso   1.00
O337   O     0.16667   0.68572   0.29072   0.00000  Uiso   1.00
O338   O     0.16666   0.81428   0.20928   0.00000  Uiso   1.00
O339   O     0.16667   0.68573   0.20928   0.00000  Uiso   1.00
O340   O     0.16666   0.81427   0.29072   0.00000  Uiso   1.00
O341   O     0.09161   0.75000   0.28132   0.00000  Uiso   1.00
O342   O     0.24172   0.75000   0.21868   0.00000  Uiso   1.00
O343   O     0.09161   0.75000   0.19989   0.00000  Uiso   1.00
O344   O     0.24172   0.75000   0.30011   0.00000  Uiso   1.00
I345   I     0.31754   0.71037   0.16408   0.00000  Uiso   1.00
I346   I     0.01575   0.78080   0.33988   0.00000  Uiso   1.00
O347   O     0.23583   0.62066   0.32233   0.00000  Uiso   1.00
C348   C     0.27876   0.64011   0.30497   0.00000  Uiso   1.00
H349   H     0.28803   0.67125   0.32641   0.00000  Uiso   1.00
H350   H     0.27145   0.64958   0.26588   0.00000  Uiso   1.00
C351   C     0.32529   0.60959   0.31319   0.00000  Uiso   1.00
H352   H     0.33232   0.60041   0.35221   0.00000  Uiso   1.00
H353   H     0.31769   0.57880   0.29069   0.00000  Uiso   1.00
C354   C     0.03971   0.63227   0.29937   0.00000  Uiso   1.00
H355   H     0.03379   0.64126   0.26029   0.00000  Uiso   1.00
H356   H     0.07274   0.60939   0.30548   0.00000  Uiso   1.00
H357   H     0.04883   0.66275   0.32209   0.00000  Uiso   1.00
O358   O     0.23223   0.87912   0.19189   0.00000  Uiso   1.00
C359   C     0.28486   0.88127   0.21031   0.00000  Uiso   1.00
H360   H     0.29168   0.86689   0.24744   0.00000  Uiso   1.00
H361   H     0.29921   0.91612   0.21210   0.00000  Uiso   1.00
C362   C     0.31522   0.85467   0.17654   0.00000  Uiso   1.00
H363   H     0.30449   0.81917   0.17729   0.00000  Uiso   1.00
H364   H     0.30590   0.86648   0.13859   0.00000  Uiso   1.00
C365   C     0.03937   0.85906   0.19219   0.00000  Uiso   1.00
H366   H     0.05163   0.89431   0.19183   0.00000  Uiso   1.00
H367   H     0.06013   0.83965   0.16663   0.00000  Uiso   1.00
H368   H     0.04956   0.84595   0.22939   0.00000  Uiso   1.00
I369   I     0.08932   0.61532   0.15665   0.00000  Uiso   1.00
I370   I     0.09807   0.88553   0.33168   0.00000  Uiso   1.00
O371   O     0.09032   0.70253   0.02038   0.00000  Uiso   1.00
C372   C     0.04695   0.72943   0.00870   0.00000  Uiso   1.00
H373   H     0.05736   0.76247   0.49531   0.00000  Uiso   1.00
H374   H     0.02695   0.73414   0.04140   0.00000  Uiso   1.00
C375   C     0.01092   0.70628   0.46812   0.00000  Uiso   1.00
H376   H     0.03037   0.70275   0.43500   0.00000  Uiso   1.00
H377   H     0.00128   0.67259   0.47988   0.00000  Uiso   1.00
C378   C     0.29501   0.73231   0.45555   0.00000  Uiso   1.00
H379   H     0.27392   0.73408   0.48762   0.00000  Uiso   1.00
H380   H     0.27054   0.71539   0.42491   0.00000  Uiso   1.00
H381   H     0.30348   0.76646   0.44447   0.00000  Uiso   1.00
O382   O     0.18616   0.82914   0.47360   0.00000  Uiso   1.00
C383   C     0.13930   0.84960   0.47977   0.00000  Uiso   1.00
H384   H     0.11517   0.82798   0.49975   0.00000  Uiso   1.00
H385   H     0.11746   0.85728   0.44367   0.00000  Uiso   1.00
C386   C     0.14950   0.89322   0.00858   0.00000  Uiso   1.00
H387   H     0.17444   0.91489   0.48968   0.00000  Uiso   1.00
H388   H     0.11258   0.91055   0.00984   0.00000  Uiso   1.00
C389   C     0.17473   0.88580   0.06078   0.00000  Uiso   1.00
H390   H     0.15071   0.86363   0.08006   0.00000  Uiso   1.00
H391   H     0.17930   0.91806   0.08091   0.00000  Uiso   1.00
H392   H     0.21318   0.87094   0.06077   0.00000  Uiso   1.00
C393   C     0.50039   0.66483   0.24958   0.00000  Uiso   1.00
C394   C     0.50110   0.83525   0.25061   0.00000  Uiso   1.00
C395   C     0.53780   0.77189   0.05894   0.00000  Uiso   1.00
C396   C     0.48936   0.71126   0.44413   0.00000  Uiso   1.00
C397   C     0.53680   0.77242   0.10952   0.00000  Uiso   1.00
C398   C     0.48883   0.71208   0.39339   0.00000  Uiso   1.00
C399   C     0.46272   0.72741   0.09990   0.00000  Uiso   1.00
C400   C     0.51086   0.78805   0.39761   0.00000  Uiso   1.00
C401   C     0.46118   0.72692   0.04878   0.00000  Uiso   1.00
C402   C     0.50926   0.78945   0.44836   0.00000  Uiso   1.00
C403   C     0.49960   0.74931   0.02738   0.00000  Uiso   1.00
C404   C     0.49940   0.75010   0.47278   0.00000  Uiso   1.00
C405   C     0.40139   0.74907   0.23788   0.00000  Uiso   1.00
C406   C     0.59861   0.74970   0.26222   0.00000  Uiso   1.00
C407   C     0.34694   0.74315   0.23192   0.00000  Uiso   1.00
C408   C     0.65323   0.75338   0.26900   0.00000  Uiso   1.00
C409   C     0.54390   0.55006   0.28621   0.00000  Uiso   1.00
C410   C     0.54098   0.95068   0.22096   0.00000  Uiso   1.00
C411   C     0.54068   0.59620   0.28535   0.00000  Uiso   1.00
C412   C     0.53843   0.90433   0.22194   0.00000  Uiso   1.00
C413   C     0.50589   0.61656   0.24904   0.00000  Uiso   1.00
C414   C     0.50644   0.88376   0.25221   0.00000  Uiso   1.00
C415   C     0.47774   0.59015   0.21209   0.00000  Uiso   1.00
C416   C     0.48124   0.91019   0.28434   0.00000  Uiso   1.00
C417   C     0.48322   0.54433   0.21253   0.00000  Uiso   1.00
C418   C     0.48653   0.95607   0.28451   0.00000  Uiso   1.00
C419   C     0.51553   0.52434   0.24971   0.00000  Uiso   1.00
C420   C     0.51557   0.97625   0.25253   0.00000  Uiso   1.00
Cu421  Cu    0.50000   0.74999   0.29822   0.00000  Uiso   1.00
Cu422  Cu    0.50000   0.75000   0.20178   0.00000  Uiso   1.00
H423   H     0.56853   0.53429   0.31533   0.00000  Uiso   1.00
H424   H     0.56290   0.96671   0.19573   0.00000  Uiso   1.00
H425   H     0.46065   0.52401   0.18488   0.00000  Uiso   1.00
H426   H     0.46633   0.97630   0.30840   0.00000  Uiso   1.00
H427   H     0.56859   0.78899   0.04473   0.00000  Uiso   1.00
H428   H     0.48248   0.68003   0.46081   0.00000  Uiso   1.00
H429   H     0.56574   0.79068   0.13298   0.00000  Uiso   1.00
H430   H     0.47980   0.68179   0.37262   0.00000  Uiso   1.00
H431   H     0.43364   0.70981   0.11597   0.00000  Uiso   1.00
H432   H     0.52042   0.81799   0.37997   0.00000  Uiso   1.00
N433   N     0.50000   0.75001   0.12934   0.00000  Uiso   1.00
N434   N     0.50000   0.74999   0.37066   0.00000  Uiso   1.00
O435   O     0.50000   0.68572   0.29072   0.00000  Uiso   1.00
O436   O     0.50000   0.81428   0.20928   0.00000  Uiso   1.00
O437   O     0.50000   0.68573   0.20928   0.00000  Uiso   1.00
O438   O     0.50000   0.81427   0.29072   0.00000  Uiso   1.00
O439   O     0.42495   0.75000   0.28132   0.00000  Uiso   1.00
O440   O     0.57505   0.75000   0.21868   0.00000  Uiso   1.00
O441   O     0.42495   0.75000   0.19989   0.00000  Uiso   1.00
O442   O     0.57505   0.75000   0.30011   0.00000  Uiso   1.00
I443   I     0.65088   0.71037   0.16408   0.00000  Uiso   1.00
I444   I     0.34909   0.78080   0.33988   0.00000  Uiso   1.00
O445   O     0.56917   0.62066   0.32233   0.00000  Uiso   1.00
C446   C     0.61209   0.64011   0.30497   0.00000  Uiso   1.00
H447   H     0.62137   0.67125   0.32641   0.00000  Uiso   1.00
H448   H     0.60478   0.64958   0.26588   0.00000  Uiso   1.00
C449   C     0.65862   0.60959   0.31319   0.00000  Uiso   1.00
H450   H     0.66566   0.60041   0.35221   0.00000  Uiso   1.00
H451   H     0.65103   0.57880   0.29069   0.00000  Uiso   1.00
C452   C     0.37305   0.63227   0.29937   0.00000  Uiso   1.00
H453   H     0.36712   0.64126   0.26029   0.00000  Uiso   1.00
H454   H     0.40607   0.60939   0.30548   0.00000  Uiso   1.00
H455   H     0.38216   0.66275   0.32209   0.00000  Uiso   1.00
O456   O     0.56556   0.87912   0.19189   0.00000  Uiso   1.00
C457   C     0.61820   0.88127   0.21031   0.00000  Uiso   1.00
H458   H     0.62501   0.86689   0.24744   0.00000  Uiso   1.00
H459   H     0.63254   0.91612   0.21210   0.00000  Uiso   1.00
C460   C     0.64855   0.85467   0.17654   0.00000  Uiso   1.00
H461   H     0.63782   0.81917   0.17729   0.00000  Uiso   1.00
H462   H     0.63923   0.86648   0.13859   0.00000  Uiso   1.00
C463   C     0.37271   0.85906   0.19219   0.00000  Uiso   1.00
H464   H     0.38497   0.89431   0.19183   0.00000  Uiso   1.00
H465   H     0.39347   0.83965   0.16663   0.00000  Uiso   1.00
H466   H     0.38289   0.84595   0.22939   0.00000  Uiso   1.00
I467   I     0.42266   0.61532   0.15665   0.00000  Uiso   1.00
I468   I     0.43141   0.88553   0.33168   0.00000  Uiso   1.00
O469   O     0.42365   0.70253   0.02038   0.00000  Uiso   1.00
C470   C     0.38028   0.72943   0.00870   0.00000  Uiso   1.00
H471   H     0.39069   0.76247   0.49531   0.00000  Uiso   1.00
H472   H     0.36028   0.73414   0.04140   0.00000  Uiso   1.00
C473   C     0.34425   0.70628   0.46812   0.00000  Uiso   1.00
H474   H     0.36371   0.70275   0.43500   0.00000  Uiso   1.00
H475   H     0.33461   0.67259   0.47988   0.00000  Uiso   1.00
C476   C     0.62834   0.73231   0.45555   0.00000  Uiso   1.00
H477   H     0.60725   0.73408   0.48762   0.00000  Uiso   1.00
H478   H     0.60387   0.71539   0.42491   0.00000  Uiso   1.00
H479   H     0.63681   0.76646   0.44447   0.00000  Uiso   1.00
O480   O     0.51949   0.82914   0.47360   0.00000  Uiso   1.00
C481   C     0.47263   0.84960   0.47977   0.00000  Uiso   1.00
H482   H     0.44850   0.82798   0.49975   0.00000  Uiso   1.00
H483   H     0.45080   0.85728   0.44367   0.00000  Uiso   1.00
C484   C     0.48284   0.89322   0.00858   0.00000  Uiso   1.00
H485   H     0.50778   0.91489   0.48968   0.00000  Uiso   1.00
H486   H     0.44591   0.91055   0.00984   0.00000  Uiso   1.00
C487   C     0.50807   0.88580   0.06078   0.00000  Uiso   1.00
H488   H     0.48405   0.86363   0.08006   0.00000  Uiso   1.00
H489   H     0.51263   0.91806   0.08091   0.00000  Uiso   1.00
H490   H     0.54651   0.87094   0.06077   0.00000  Uiso   1.00
C491   C     0.83373   0.66483   0.24958   0.00000  Uiso   1.00
C492   C     0.83444   0.83525   0.25061   0.00000  Uiso   1.00
C493   C     0.87114   0.77189   0.05894   0.00000  Uiso   1.00
C494   C     0.82269   0.71126   0.44413   0.00000  Uiso   1.00
C495   C     0.87013   0.77242   0.10952   0.00000  Uiso   1.00
C496   C     0.82216   0.71208   0.39339   0.00000  Uiso   1.00
C497   C     0.79606   0.72741   0.09990   0.00000  Uiso   1.00
C498   C     0.84420   0.78805   0.39761   0.00000  Uiso   1.00
C499   C     0.79452   0.72692   0.04878   0.00000  Uiso   1.00
C500   C     0.84260   0.78945   0.44836   0.00000  Uiso   1.00
C501   C     0.83293   0.74931   0.02738   0.00000  Uiso   1.00
C502   C     0.83273   0.75010   0.47278   0.00000  Uiso   1.00
C503   C     0.73472   0.74907   0.23788   0.00000  Uiso   1.00
C504   C     0.93194   0.74970   0.26222   0.00000  Uiso   1.00
C505   C     0.68028   0.74315   0.23192   0.00000  Uiso   1.00
C506   C     0.98656   0.75338   0.26900   0.00000  Uiso   1.00
C507   C     0.87723   0.55006   0.28621   0.00000  Uiso   1.00
C508   C     0.87431   0.95068   0.22096   0.00000  Uiso   1.00
C509   C     0.87402   0.59620   0.28535   0.00000  Uiso   1.00
C510   C     0.87177   0.90433   0.22194   0.00000  Uiso   1.00
C511   C     0.83923   0.61656   0.24904   0.00000  Uiso   1.00
C512   C     0.83977   0.88376   0.25221   0.00000  Uiso   1.00
C513   C     0.81107   0.59015   0.21209   0.00000  Uiso   1.00
C514   C     0.81457   0.91019   0.28434   0.00000  Uiso   1.00
C515   C     0.81656   0.54433   0.21253   0.00000  Uiso   1.00
C516   C     0.81987   0.95607   0.28451   0.00000  Uiso   1.00
C517   C     0.84887   0.52434   0.24971   0.00000  Uiso   1.00
C518   C     0.84890   0.97625   0.25253   0.00000  Uiso   1.00
Cu519  Cu    0.83333   0.74999   0.29822   0.00000  Uiso   1.00
Cu520  Cu    0.83333   0.75000   0.20178   0.00000  Uiso   1.00
H521   H     0.90186   0.53429   0.31533   0.00000  Uiso   1.00
H522   H     0.89623   0.96671   0.19573   0.00000  Uiso   1.00
H523   H     0.79398   0.52401   0.18488   0.00000  Uiso   1.00
H524   H     0.79966   0.97630   0.30840   0.00000  Uiso   1.00
H525   H     0.90192   0.78899   0.04473   0.00000  Uiso   1.00
H526   H     0.81582   0.68003   0.46081   0.00000  Uiso   1.00
H527   H     0.89907   0.79068   0.13298   0.00000  Uiso   1.00
H528   H     0.81313   0.68179   0.37262   0.00000  Uiso   1.00
H529   H     0.76697   0.70981   0.11597   0.00000  Uiso   1.00
H530   H     0.85376   0.81799   0.37997   0.00000  Uiso   1.00
N531   N     0.83333   0.75001   0.12934   0.00000  Uiso   1.00
N532   N     0.83333   0.74999   0.37066   0.00000  Uiso   1.00
O533   O     0.83334   0.68572   0.29072   0.00000  Uiso   1.00
O534   O     0.83333   0.81428   0.20928   0.00000  Uiso   1.00
O535   O     0.83334   0.68573   0.20928   0.00000  Uiso   1.00
O536   O     0.83333   0.81427   0.29072   0.00000  Uiso   1.00
O537   O     0.75828   0.75000   0.28132   0.00000  Uiso   1.00
O538   O     0.90839   0.75000   0.21868   0.00000  Uiso   1.00
O539   O     0.75828   0.75000   0.19989   0.00000  Uiso   1.00
O540   O     0.90839   0.75000   0.30011   0.00000  Uiso   1.00
I541   I     0.98421   0.71037   0.16408   0.00000  Uiso   1.00
I542   I     0.68242   0.78080   0.33988   0.00000  Uiso   1.00
O543   O     0.90250   0.62066   0.32233   0.00000  Uiso   1.00
C544   C     0.94543   0.64011   0.30497   0.00000  Uiso   1.00
H545   H     0.95470   0.67125   0.32641   0.00000  Uiso   1.00
H546   H     0.93812   0.64958   0.26588   0.00000  Uiso   1.00
C547   C     0.99195   0.60959   0.31319   0.00000  Uiso   1.00
H548   H     0.99899   0.60041   0.35221   0.00000  Uiso   1.00
H549   H     0.98436   0.57880   0.29069   0.00000  Uiso   1.00
C550   C     0.70638   0.63227   0.29937   0.00000  Uiso   1.00
H551   H     0.70045   0.64126   0.26029   0.00000  Uiso   1.00
H552   H     0.73941   0.60939   0.30548   0.00000  Uiso   1.00
H553   H     0.71549   0.66275   0.32209   0.00000  Uiso   1.00
O554   O     0.89889   0.87912   0.19189   0.00000  Uiso   1.00
C555   C     0.95153   0.88127   0.21031   0.00000  Uiso   1.00
H556   H     0.95834   0.86689   0.24744   0.00000  Uiso   1.00
H557   H     0.96588   0.91612   0.21210   0.00000  Uiso   1.00
C558   C     0.98189   0.85467   0.17654   0.00000  Uiso   1.00
H559   H     0.97116   0.81917   0.17729   0.00000  Uiso   1.00
H560   H     0.97257   0.86648   0.13859   0.00000  Uiso   1.00
C561   C     0.70604   0.85906   0.19219   0.00000  Uiso   1.00
H562   H     0.71830   0.89431   0.19183   0.00000  Uiso   1.00
H563   H     0.72680   0.83965   0.16663   0.00000  Uiso   1.00
H564   H     0.71623   0.84595   0.22939   0.00000  Uiso   1.00
I565   I     0.75599   0.61532   0.15665   0.00000  Uiso   1.00
I566   I     0.76474   0.88553   0.33168   0.00000  Uiso   1.00
O567   O     0.75698   0.70253   0.02038   0.00000  Uiso   1.00
C568   C     0.71361   0.72943   0.00870   0.00000  Uiso   1.00
H569   H     0.72403   0.76247   0.49531   0.00000  Uiso   1.00
H570   H     0.69361   0.73414   0.04140   0.00000  Uiso   1.00
C571   C     0.67758   0.70628   0.46812   0.00000  Uiso   1.00
H572   H     0.69704   0.70275   0.43500   0.00000  Uiso   1.00
H573   H     0.66795   0.67259   0.47988   0.00000  Uiso   1.00
C574   C     0.96168   0.73231   0.45555   0.00000  Uiso   1.00
H575   H     0.94059   0.73408   0.48762   0.00000  Uiso   1.00
H576   H     0.93720   0.71539   0.42491   0.00000  Uiso   1.00
H577   H     0.97015   0.76646   0.44447   0.00000  Uiso   1.00
O578   O     0.85283   0.82914   0.47360   0.00000  Uiso   1.00
C579   C     0.80596   0.84960   0.47977   0.00000  Uiso   1.00
H580   H     0.78184   0.82798   0.49975   0.00000  Uiso   1.00
H581   H     0.78413   0.85728   0.44367   0.00000  Uiso   1.00
C582   C     0.81617   0.89322   0.00858   0.00000  Uiso   1.00
H583   H     0.84111   0.91489   0.48968   0.00000  Uiso   1.00
H584   H     0.77924   0.91055   0.00984   0.00000  Uiso   1.00
C585   C     0.84140   0.88580   0.06078   0.00000  Uiso   1.00
H586   H     0.81738   0.86363   0.08006   0.00000  Uiso   1.00
H587   H     0.84596   0.91806   0.08091   0.00000  Uiso   1.00
H588   H     0.87985   0.87094   0.06077   0.00000  Uiso   1.00
C589   C     0.16706   0.16483   0.74958   0.00000  Uiso   1.00
C590   C     0.16777   0.33525   0.75061   0.00000  Uiso   1.00
C591   C     0.20447   0.27189   0.55894   0.00000  Uiso   1.00
C592   C     0.15602   0.21126   0.94413   0.00000  Uiso   1.00
C593   C     0.20346   0.27242   0.60952   0.00000  Uiso   1.00
C594   C     0.15549   0.21208   0.89339   0.00000  Uiso   1.00
C595   C     0.12939   0.22741   0.59990   0.00000  Uiso   1.00
C596   C     0.17753   0.28805   0.89761   0.00000  Uiso   1.00
C597   C     0.12785   0.22692   0.54878   0.00000  Uiso   1.00
C598   C     0.17593   0.28945   0.94836   0.00000  Uiso   1.00
C599   C     0.16626   0.24931   0.52738   0.00000  Uiso   1.00
C600   C     0.16606   0.25010   0.97278   0.00000  Uiso   1.00
C601   C     0.06805   0.24907   0.73788   0.00000  Uiso   1.00
C602   C     0.26527   0.24970   0.76222   0.00000  Uiso   1.00
C603   C     0.01361   0.24315   0.73192   0.00000  Uiso   1.00
C604   C     0.31989   0.25338   0.76900   0.00000  Uiso   1.00
C605   C     0.21056   0.05006   0.78621   0.00000  Uiso   1.00
C606   C     0.20764   0.45068   0.72096   0.00000  Uiso   1.00
C607   C     0.20735   0.09620   0.78535   0.00000  Uiso   1.00
C608   C     0.20510   0.40433   0.72194   0.00000  Uiso   1.00
C609   C     0.17256   0.11656   0.74904   0.00000  Uiso   1.00
C610   C     0.17310   0.38376   0.75221   0.00000  Uiso   1.00
C611   C     0.14441   0.09015   0.71209   0.00000  Uiso   1.00
C612   C     0.14791   0.41019   0.78434   0.00000  Uiso   1.00
C613   C     0.14989   0.04433   0.71253   0.00000  Uiso   1.00
C614   C     0.15320   0.45607   0.78451   0.00000  Uiso   1.00
C615   C     0.18220   0.02434   0.74971   0.00000  Uiso   1.00
C616   C     0.18223   0.47625   0.75253   0.00000  Uiso   1.00
Cu617  Cu    0.16667   0.24999   0.79822   0.00000  Uiso   1.00
Cu618  Cu    0.16667   0.25000   0.70178   0.00000  Uiso   1.00
H619   H     0.23519   0.03429   0.81533   0.00000  Uiso   1.00
H620   H     0.22957   0.46671   0.69573   0.00000  Uiso   1.00
H621   H     0.12731   0.02401   0.68488   0.00000  Uiso   1.00
H622   H     0.13300   0.47630   0.80840   0.00000  Uiso   1.00
H623   H     0.23526   0.28899   0.54473   0.00000  Uiso   1.00
H624   H     0.14915   0.18003   0.96081   0.00000  Uiso   1.00
H625   H     0.23241   0.29068   0.63298   0.00000  Uiso   1.00
H626   H     0.14647   0.18179   0.87262   0.00000  Uiso   1.00
H627   H     0.10031   0.20981   0.61597   0.00000  Uiso   1.00
H628   H     0.18709   0.31799   0.87997   0.00000  Uiso   1.00
N629   N     0.16667   0.25001   0.62934   0.00000  Uiso   1.00
N630   N     0.16667   0.24999   0.87066   0.00000  Uiso   1.00
O631   O     0.16667   0.18572   0.79072   0.00000  Uiso   1.00
O632   O     0.16666   0.31428   0.70928   0.00000  Uiso   1.00
O633   O     0.16667   0.18573   0.70928   0.00000  Uiso   1.00
O634   O     0.16666   0.31427   0.79072   0.00000  Uiso   1.00
O635   O     0.09161   0.25000   0.78132   0.00000  Uiso   1.00
O636   O     0.24172   0.25000   0.71868   0.00000  Uiso   1.00
O637   O     0.09161   0.25000   0.69989   0.00000  Uiso   1.00
O638   O     0.24172   0.25000   0.80011   0.00000  Uiso   1.00
I639   I     0.31754   0.21037   0.66408   0.00000  Uiso   1.00
I640   I     0.01575   0.28080   0.83988   0.00000  Uiso   1.00
O641   O     0.23583   0.12066   0.82233   0.00000  Uiso   1.00
C642   C     0.27876   0.14011   0.80497   0.00000  Uiso   1.00
H643   H     0.28803   0.17125   0.82641   0.00000  Uiso   1.00
H644   H     0.27145   0.14958   0.76588   0.00000  Uiso   1.00
C645   C     0.32529   0.10959   0.81319   0.00000  Uiso   1.00
H646   H     0.33232   0.10041   0.85221   0.00000  Uiso   1.00
H647   H     0.31769   0.07880   0.79069   0.00000  Uiso   1.00
C648   C     0.03971   0.13227   0.79937   0.00000  Uiso   1.00
H649   H     0.03379   0.14126   0.76029   0.00000  Uiso   1.00
H650   H     0.07274   0.10939   0.80548   0.00000  Uiso   1.00
H651   H     0.04883   0.16275   0.82209   0.00000  Uiso   1.00
O652   O     0.23223   0.37912   0.69189   0.00000  Uiso   1.00
C653   C     0.28486   0.38127   0.71031   0.00000  Uiso   1.00
H654   H     0.29168   0.36689   0.74744   0.00000  Uiso   1.00
H655   H     0.29921   0.41612   0.71210   0.00000  Uiso   1.00
C656   C     0.31522   0.35467   0.67654   0.00000  Uiso   1.00
H657   H     0.30449   0.31917   0.67729   0.00000  Uiso   1.00
H658   H     0.30590   0.36648   0.63859   0.00000  Uiso   1.00
C659   C     0.03937   0.35906   0.69219   0.00000  Uiso   1.00
H660   H     0.05163   0.39431   0.69183   0.00000  Uiso   1.00
H661   H     0.06013   0.33965   0.66663   0.00000  Uiso   1.00
H662   H     0.04956   0.34595   0.72939   0.00000  Uiso   1.00
I663   I     0.08932   0.11532   0.65665   0.00000  Uiso   1.00
I664   I     0.09807   0.38553   0.83168   0.00000  Uiso   1.00
O665   O     0.09032   0.20253   0.52038   0.00000  Uiso   1.00
C666   C     0.04695   0.22943   0.50870   0.00000  Uiso   1.00
H667   H     0.05736   0.26247   0.99531   0.00000  Uiso   1.00
H668   H     0.02695   0.23414   0.54140   0.00000  Uiso   1.00
C669   C     0.01092   0.20628   0.96812   0.00000  Uiso   1.00
H670   H     0.03037   0.20275   0.93500   0.00000  Uiso   1.00
H671   H     0.00128   0.17259   0.97988   0.00000  Uiso   1.00
C672   C     0.29501   0.23231   0.95555   0.00000  Uiso   1.00
H673   H     0.27392   0.23408   0.98762   0.00000  Uiso   1.00
H674   H     0.27054   0.21539   0.92491   0.00000  Uiso   1.00
H675   H     0.30348   0.26646   0.94447   0.00000  Uiso   1.00
O676   O     0.18616   0.32914   0.97360   0.00000  Uiso   1.00
C677   C     0.13930   0.34960   0.97977   0.00000  Uiso   1.00
H678   H     0.11517   0.32798   0.99975   0.00000  Uiso   1.00
H679   H     0.11746   0.35728   0.94367   0.00000  Uiso   1.00
C680   C     0.14950   0.39322   0.50858   0.00000  Uiso   1.00
H681   H     0.17444   0.41489   0.98968   0.00000  Uiso   1.00
H682   H     0.11258   0.41055   0.50984   0.00000  Uiso   1.00
C683   C     0.17473   0.38580   0.56078   0.00000  Uiso   1.00
H684   H     0.15071   0.36363   0.58006   0.00000  Uiso   1.00
H685   H     0.17930   0.41806   0.58091   0.00000  Uiso   1.00
H686   H     0.21318   0.37094   0.56077   0.00000  Uiso   1.00
C687   C     0.50039   0.16483   0.74958   0.00000  Uiso   1.00
C688   C     0.50110   0.33525   0.75061   0.00000  Uiso   1.00
C689   C     0.53780   0.27189   0.55894   0.00000  Uiso   1.00
C690   C     0.48936   0.21126   0.94413   0.00000  Uiso   1.00
C691   C     0.53680   0.27242   0.60952   0.00000  Uiso   1.00
C692   C     0.48883   0.21208   0.89339   0.00000  Uiso   1.00
C693   C     0.46272   0.22741   0.59990   0.00000  Uiso   1.00
C694   C     0.51086   0.28805   0.89761   0.00000  Uiso   1.00
C695   C     0.46118   0.22692   0.54878   0.00000  Uiso   1.00
C696   C     0.50926   0.28945   0.94836   0.00000  Uiso   1.00
C697   C     0.49960   0.24931   0.52738   0.00000  Uiso   1.00
C698   C     0.49940   0.25010   0.97278   0.00000  Uiso   1.00
C699   C     0.40139   0.24907   0.73788   0.00000  Uiso   1.00
C700   C     0.59861   0.24970   0.76222   0.00000  Uiso   1.00
C701   C     0.34694   0.24315   0.73192   0.00000  Uiso   1.00
C702   C     0.65323   0.25338   0.76900   0.00000  Uiso   1.00
C703   C     0.54390   0.05006   0.78621   0.00000  Uiso   1.00
C704   C     0.54098   0.45068   0.72096   0.00000  Uiso   1.00
C705   C     0.54068   0.09620   0.78535   0.00000  Uiso   1.00
C706   C     0.53843   0.40433   0.72194   0.00000  Uiso   1.00
C707   C     0.50589   0.11656   0.74904   0.00000  Uiso   1.00
C708   C     0.50644   0.38376   0.75221   0.00000  Uiso   1.00
C709   C     0.47774   0.09015   0.71209   0.00000  Uiso   1.00
C710   C     0.48124   0.41019   0.78434   0.00000  Uiso   1.00
C711   C     0.48322   0.04433   0.71253   0.00000  Uiso   1.00
C712   C     0.48653   0.45607   0.78451   0.00000  Uiso   1.00
C713   C     0.51553   0.02434   0.74971   0.00000  Uiso   1.00
C714   C     0.51557   0.47625   0.75253   0.00000  Uiso   1.00
Cu715  Cu    0.50000   0.24999   0.79822   0.00000  Uiso   1.00
Cu716  Cu    0.50000   0.25000   0.70178   0.00000  Uiso   1.00
H717   H     0.56853   0.03429   0.81533   0.00000  Uiso   1.00
H718   H     0.56290   0.46671   0.69573   0.00000  Uiso   1.00
H719   H     0.46065   0.02401   0.68488   0.00000  Uiso   1.00
H720   H     0.46633   0.47630   0.80840   0.00000  Uiso   1.00
H721   H     0.56859   0.28899   0.54473   0.00000  Uiso   1.00
H722   H     0.48248   0.18003   0.96081   0.00000  Uiso   1.00
H723   H     0.56574   0.29068   0.63298   0.00000  Uiso   1.00
H724   H     0.47980   0.18179   0.87262   0.00000  Uiso   1.00
H725   H     0.43364   0.20981   0.61597   0.00000  Uiso   1.00
H726   H     0.52042   0.31799   0.87997   0.00000  Uiso   1.00
N727   N     0.50000   0.25001   0.62934   0.00000  Uiso   1.00
N728   N     0.50000   0.24999   0.87066   0.00000  Uiso   1.00
O729   O     0.50000   0.18572   0.79072   0.00000  Uiso   1.00
O730   O     0.50000   0.31428   0.70928   0.00000  Uiso   1.00
O731   O     0.50000   0.18573   0.70928   0.00000  Uiso   1.00
O732   O     0.50000   0.31427   0.79072   0.00000  Uiso   1.00
O733   O     0.42495   0.25000   0.78132   0.00000  Uiso   1.00
O734   O     0.57505   0.25000   0.71868   0.00000  Uiso   1.00
O735   O     0.42495   0.25000   0.69989   0.00000  Uiso   1.00
O736   O     0.57505   0.25000   0.80011   0.00000  Uiso   1.00
I737   I     0.65088   0.21037   0.66408   0.00000  Uiso   1.00
I738   I     0.34909   0.28080   0.83988   0.00000  Uiso   1.00
O739   O     0.56917   0.12066   0.82233   0.00000  Uiso   1.00
C740   C     0.61209   0.14011   0.80497   0.00000  Uiso   1.00
H741   H     0.62137   0.17125   0.82641   0.00000  Uiso   1.00
H742   H     0.60478   0.14958   0.76588   0.00000  Uiso   1.00
C743   C     0.65862   0.10959   0.81319   0.00000  Uiso   1.00
H744   H     0.66566   0.10041   0.85221   0.00000  Uiso   1.00
H745   H     0.65103   0.07880   0.79069   0.00000  Uiso   1.00
C746   C     0.37305   0.13227   0.79937   0.00000  Uiso   1.00
H747   H     0.36712   0.14126   0.76029   0.00000  Uiso   1.00
H748   H     0.40607   0.10939   0.80548   0.00000  Uiso   1.00
H749   H     0.38216   0.16275   0.82209   0.00000  Uiso   1.00
O750   O     0.56556   0.37912   0.69189   0.00000  Uiso   1.00
C751   C     0.61820   0.38127   0.71031   0.00000  Uiso   1.00
H752   H     0.62501   0.36689   0.74744   0.00000  Uiso   1.00
H753   H     0.63254   0.41612   0.71210   0.00000  Uiso   1.00
C754   C     0.64855   0.35467   0.67654   0.00000  Uiso   1.00
H755   H     0.63782   0.31917   0.67729   0.00000  Uiso   1.00
H756   H     0.63923   0.36648   0.63859   0.00000  Uiso   1.00
C757   C     0.37271   0.35906   0.69219   0.00000  Uiso   1.00
H758   H     0.38497   0.39431   0.69183   0.00000  Uiso   1.00
H759   H     0.39347   0.33965   0.66663   0.00000  Uiso   1.00
H760   H     0.38289   0.34595   0.72939   0.00000  Uiso   1.00
I761   I     0.42266   0.11532   0.65665   0.00000  Uiso   1.00
I762   I     0.43141   0.38553   0.83168   0.00000  Uiso   1.00
O763   O     0.42365   0.20253   0.52038   0.00000  Uiso   1.00
C764   C     0.38028   0.22943   0.50870   0.00000  Uiso   1.00
H765   H     0.39069   0.26247   0.99531   0.00000  Uiso   1.00
H766   H     0.36028   0.23414   0.54140   0.00000  Uiso   1.00
C767   C     0.34425   0.20628   0.96812   0.00000  Uiso   1.00
H768   H     0.36371   0.20275   0.93500   0.00000  Uiso   1.00
H769   H     0.33461   0.17259   0.97988   0.00000  Uiso   1.00
C770   C     0.62834   0.23231   0.95555   0.00000  Uiso   1.00
H771   H     0.60725   0.23408   0.98762   0.00000  Uiso   1.00
H772   H     0.60387   0.21539   0.92491   0.00000  Uiso   1.00
H773   H     0.63681   0.26646   0.94447   0.00000  Uiso   1.00
O774   O     0.51949   0.32914   0.97360   0.00000  Uiso   1.00
C775   C     0.47263   0.34960   0.97977   0.00000  Uiso   1.00
H776   H     0.44850   0.32798   0.99975   0.00000  Uiso   1.00
H777   H     0.45080   0.35728   0.94367   0.00000  Uiso   1.00
C778   C     0.48284   0.39322   0.50858   0.00000  Uiso   1.00
H779   H     0.50778   0.41489   0.98968   0.00000  Uiso   1.00
H780   H     0.44591   0.41055   0.50984   0.00000  Uiso   1.00
C781   C     0.50807   0.38580   0.56078   0.00000  Uiso   1.00
H782   H     0.48405   0.36363   0.58006   0.00000  Uiso   1.00
H783   H     0.51263   0.41806   0.58091   0.00000  Uiso   1.00
H784   H     0.54651   0.37094   0.56077   0.00000  Uiso   1.00
C785   C     0.83373   0.16483   0.74958   0.00000  Uiso   1.00
C786   C     0.83444   0.33525   0.75061   0.00000  Uiso   1.00
C787   C     0.87114   0.27189   0.55894   0.00000  Uiso   1.00
C788   C     0.82269   0.21126   0.94413   0.00000  Uiso   1.00
C789   C     0.87013   0.27242   0.60952   0.00000  Uiso   1.00
C790   C     0.82216   0.21208   0.89339   0.00000  Uiso   1.00
C791   C     0.79606   0.22741   0.59990   0.00000  Uiso   1.00
C792   C     0.84420   0.28805   0.89761   0.00000  Uiso   1.00
C793   C     0.79452   0.22692   0.54878   0.00000  Uiso   1.00
C794   C     0.84260   0.28945   0.94836   0.00000  Uiso   1.00
C795   C     0.83293   0.24931   0.52738   0.00000  Uiso   1.00
C796   C     0.83273   0.25010   0.97278   0.00000  Uiso   1.00
C797   C     0.73472   0.24907   0.73788   0.00000  Uiso   1.00
C798   C     0.93194   0.24970   0.76222   0.00000  Uiso   1.00
C799   C     0.68028   0.24315   0.73192   0.00000  Uiso   1.00
C800   C     0.98656   0.25338   0.76900   0.00000  Uiso   1.00
C801   C     0.87723   0.05006   0.78621   0.00000  Uiso   1.00
C802   C     0.87431   0.45068   0.72096   0.00000  Uiso   1.00
C803   C     0.87402   0.09620   0.78535   0.00000  Uiso   1.00
C804   C     0.87177   0.40433   0.72194   0.00000  Uiso   1.00
C805   C     0.83923   0.11656   0.74904   0.00000  Uiso   1.00
C806   C     0.83977   0.38376   0.75221   0.00000  Uiso   1.00
C807   C     0.81107   0.09015   0.71209   0.00000  Uiso   1.00
C808   C     0.81457   0.41019   0.78434   0.00000  Uiso   1.00
C809   C     0.81656   0.04433   0.71253   0.00000  Uiso   1.00
C810   C     0.81987   0.45607   0.78451   0.00000  Uiso   1.00
C811   C     0.84887   0.02434   0.74971   0.00000  Uiso   1.00
C812   C     0.84890   0.47625   0.75253   0.00000  Uiso   1.00
Cu813  Cu    0.83333   0.24999   0.79822   0.00000  Uiso   1.00
Cu814  Cu    0.83333   0.25000   0.70178   0.00000  Uiso   1.00
H815   H     0.90186   0.03429   0.81533   0.00000  Uiso   1.00
H816   H     0.89623   0.46671   0.69573   0.00000  Uiso   1.00
H817   H     0.79398   0.02401   0.68488   0.00000  Uiso   1.00
H818   H     0.79966   0.47630   0.80840   0.00000  Uiso   1.00
H819   H     0.90192   0.28899   0.54473   0.00000  Uiso   1.00
H820   H     0.81582   0.18003   0.96081   0.00000  Uiso   1.00
H821   H     0.89907   0.29068   0.63298   0.00000  Uiso   1.00
H822   H     0.81313   0.18179   0.87262   0.00000  Uiso   1.00
H823   H     0.76697   0.20981   0.61597   0.00000  Uiso   1.00
H824   H     0.85376   0.31799   0.87997   0.00000  Uiso   1.00
N825   N     0.83333   0.25001   0.62934   0.00000  Uiso   1.00
N826   N     0.83333   0.24999   0.87066   0.00000  Uiso   1.00
O827   O     0.83334   0.18572   0.79072   0.00000  Uiso   1.00
O828   O     0.83333   0.31428   0.70928   0.00000  Uiso   1.00
O829   O     0.83334   0.18573   0.70928   0.00000  Uiso   1.00
O830   O     0.83333   0.31427   0.79072   0.00000  Uiso   1.00
O831   O     0.75828   0.25000   0.78132   0.00000  Uiso   1.00
O832   O     0.90839   0.25000   0.71868   0.00000  Uiso   1.00
O833   O     0.75828   0.25000   0.69989   0.00000  Uiso   1.00
O834   O     0.90839   0.25000   0.80011   0.00000  Uiso   1.00
I835   I     0.98421   0.21037   0.66408   0.00000  Uiso   1.00
I836   I     0.68242   0.28080   0.83988   0.00000  Uiso   1.00
O837   O     0.90250   0.12066   0.82233   0.00000  Uiso   1.00
C838   C     0.94543   0.14011   0.80497   0.00000  Uiso   1.00
H839   H     0.95470   0.17125   0.82641   0.00000  Uiso   1.00
H840   H     0.93812   0.14958   0.76588   0.00000  Uiso   1.00
C841   C     0.99195   0.10959   0.81319   0.00000  Uiso   1.00
H842   H     0.99899   0.10041   0.85221   0.00000  Uiso   1.00
H843   H     0.98436   0.07880   0.79069   0.00000  Uiso   1.00
C844   C     0.70638   0.13227   0.79937   0.00000  Uiso   1.00
H845   H     0.70045   0.14126   0.76029   0.00000  Uiso   1.00
H846   H     0.73941   0.10939   0.80548   0.00000  Uiso   1.00
H847   H     0.71549   0.16275   0.82209   0.00000  Uiso   1.00
O848   O     0.89889   0.37912   0.69189   0.00000  Uiso   1.00
C849   C     0.95153   0.38127   0.71031   0.00000  Uiso   1.00
H850   H     0.95834   0.36689   0.74744   0.00000  Uiso   1.00
H851   H     0.96588   0.41612   0.71210   0.00000  Uiso   1.00
C852   C     0.98189   0.35467   0.67654   0.00000  Uiso   1.00
H853   H     0.97116   0.31917   0.67729   0.00000  Uiso   1.00
H854   H     0.97257   0.36648   0.63859   0.00000  Uiso   1.00
C855   C     0.70604   0.35906   0.69219   0.00000  Uiso   1.00
H856   H     0.71830   0.39431   0.69183   0.00000  Uiso   1.00
H857   H     0.72680   0.33965   0.66663   0.00000  Uiso   1.00
H858   H     0.71623   0.34595   0.72939   0.00000  Uiso   1.00
I859   I     0.75599   0.11532   0.65665   0.00000  Uiso   1.00
I860   I     0.76474   0.38553   0.83168   0.00000  Uiso   1.00
O861   O     0.75698   0.20253   0.52038   0.00000  Uiso   1.00
C862   C     0.71361   0.22943   0.50870   0.00000  Uiso   1.00
H863   H     0.72403   0.26247   0.99531   0.00000  Uiso   1.00
H864   H     0.69361   0.23414   0.54140   0.00000  Uiso   1.00
C865   C     0.67758   0.20628   0.96812   0.00000  Uiso   1.00
H866   H     0.69704   0.20275   0.93500   0.00000  Uiso   1.00
H867   H     0.66795   0.17259   0.97988   0.00000  Uiso   1.00
C868   C     0.96168   0.23231   0.95555   0.00000  Uiso   1.00
H869   H     0.94059   0.23408   0.98762   0.00000  Uiso   1.00
H870   H     0.93720   0.21539   0.92491   0.00000  Uiso   1.00
H871   H     0.97015   0.26646   0.94447   0.00000  Uiso   1.00
O872   O     0.85283   0.32914   0.97360   0.00000  Uiso   1.00
C873   C     0.80596   0.34960   0.97977   0.00000  Uiso   1.00
H874   H     0.78184   0.32798   0.99975   0.00000  Uiso   1.00
H875   H     0.78413   0.35728   0.94367   0.00000  Uiso   1.00
C876   C     0.81617   0.39322   0.50858   0.00000  Uiso   1.00
H877   H     0.84111   0.41489   0.98968   0.00000  Uiso   1.00
H878   H     0.77924   0.41055   0.50984   0.00000  Uiso   1.00
C879   C     0.84140   0.38580   0.56078   0.00000  Uiso   1.00
H880   H     0.81738   0.36363   0.58006   0.00000  Uiso   1.00
H881   H     0.84596   0.41806   0.58091   0.00000  Uiso   1.00
H882   H     0.87985   0.37094   0.56077   0.00000  Uiso   1.00
C883   C     0.16706   0.66483   0.74958   0.00000  Uiso   1.00
C884   C     0.16777   0.83525   0.75061   0.00000  Uiso   1.00
C885   C     0.20447   0.77189   0.55894   0.00000  Uiso   1.00
C886   C     0.15602   0.71126   0.94413   0.00000  Uiso   1.00
C887   C     0.20346   0.77242   0.60952   0.00000  Uiso   1.00
C888   C     0.15549   0.71208   0.89339   0.00000  Uiso   1.00
C889   C     0.12939   0.72741   0.59990   0.00000  Uiso   1.00
C890   C     0.17753   0.78805   0.89761   0.00000  Uiso   1.00
C891   C     0.12785   0.72692   0.54878   0.00000  Uiso   1.00
C892   C     0.17593   0.78945   0.94836   0.00000  Uiso   1.00
C893   C     0.16626   0.74931   0.52738   0.00000  Uiso   1.00
C894   C     0.16606   0.75010   0.97278   0.00000  Uiso   1.00
C895   C     0.06805   0.74907   0.73788   0.00000  Uiso   1.00
C896   C     0.26527   0.74970   0.76222   0.00000  Uiso   1.00
C897   C     0.01361   0.74315   0.73192   0.00000  Uiso   1.00
C898   C     0.31989   0.75338   0.76900   0.00000  Uiso   1.00
C899   C     0.21056   0.55006   0.78621   0.00000  Uiso   1.00
C900   C     0.20764   0.95068   0.72096   0.00000  Uiso   1.00
C901   C     0.20735   0.59620   0.78535   0.00000  Uiso   1.00
C902   C     0.20510   0.90433   0.72194   0.00000  Uiso   1.00
C903   C     0.17256   0.61656   0.74904   0.00000  Uiso   1.00
C904   C     0.17310   0.88376   0.75221   0.00000  Uiso   1.00
C905   C     0.14441   0.59015   0.71209   0.00000  Uiso   1.00
C906   C     0.14791   0.91019   0.78434   0.00000  Uiso   1.00
C907   C     0.14989   0.54433   0.71253   0.00000  Uiso   1.00
C908   C     0.15320   0.95607   0.78451   0.00000  Uiso   1.00
C909   C     0.18220   0.52434   0.74971   0.00000  Uiso   1.00
C910   C     0.18223   0.97625   0.75253   0.00000  Uiso   1.00
Cu911  Cu    0.16667   0.74999   0.79822   0.00000  Uiso   1.00
Cu912  Cu    0.16667   0.75000   0.70178   0.00000  Uiso   1.00
H913   H     0.23519   0.53429   0.81533   0.00000  Uiso   1.00
H914   H     0.22957   0.96671   0.69573   0.00000  Uiso   1.00
H915   H     0.12731   0.52401   0.68488   0.00000  Uiso   1.00
H916   H     0.13300   0.97630   0.80840   0.00000  Uiso   1.00
H917   H     0.23526   0.78899   0.54473   0.00000  Uiso   1.00
H918   H     0.14915   0.68003   0.96081   0.00000  Uiso   1.00
H919   H     0.23241   0.79068   0.63298   0.00000  Uiso   1.00
H920   H     0.14647   0.68179   0.87262   0.00000  Uiso   1.00
H921   H     0.10031   0.70981   0.61597   0.00000  Uiso   1.00
H922   H     0.18709   0.81799   0.87997   0.00000  Uiso   1.00
N923   N     0.16667   0.75001   0.62934   0.00000  Uiso   1.00
N924   N     0.16667   0.74999   0.87066   0.00000  Uiso   1.00
O925   O     0.16667   0.68572   0.79072   0.00000  Uiso   1.00
O926   O     0.16666   0.81428   0.70928   0.00000  Uiso   1.00
O927   O     0.16667   0.68573   0.70928   0.00000  Uiso   1.00
O928   O     0.16666   0.81427   0.79072   0.00000  Uiso   1.00
O929   O     0.09161   0.75000   0.78132   0.00000  Uiso   1.00
O930   O     0.24172   0.75000   0.71868   0.00000  Uiso   1.00
O931   O     0.09161   0.75000   0.69989   0.00000  Uiso   1.00
O932   O     0.24172   0.75000   0.80011   0.00000  Uiso   1.00
I933   I     0.31754   0.71037   0.66408   0.00000  Uiso   1.00
I934   I     0.01575   0.78080   0.83988   0.00000  Uiso   1.00
O935   O     0.23583   0.62066   0.82233   0.00000  Uiso   1.00
C936   C     0.27876   0.64011   0.80497   0.00000  Uiso   1.00
H937   H     0.28803   0.67125   0.82641   0.00000  Uiso   1.00
H938   H     0.27145   0.64958   0.76588   0.00000  Uiso   1.00
C939   C     0.32529   0.60959   0.81319   0.00000  Uiso   1.00
H940   H     0.33232   0.60041   0.85221   0.00000  Uiso   1.00
H941   H     0.31769   0.57880   0.79069   0.00000  Uiso   1.00
C942   C     0.03971   0.63227   0.79937   0.00000  Uiso   1.00
H943   H     0.03379   0.64126   0.76029   0.00000  Uiso   1.00
H944   H     0.07274   0.60939   0.80548   0.00000  Uiso   1.00
H945   H     0.04883   0.66275   0.82209   0.00000  Uiso   1.00
O946   O     0.23223   0.87912   0.69189   0.00000  Uiso   1.00
C947   C     0.28486   0.88127   0.71031   0.00000  Uiso   1.00
H948   H     0.29168   0.86689   0.74744   0.00000  Uiso   1.00
H949   H     0.29921   0.91612   0.71210   0.00000  Uiso   1.00
C950   C     0.31522   0.85467   0.67654   0.00000  Uiso   1.00
H951   H     0.30449   0.81917   0.67729   0.00000  Uiso   1.00
H952   H     0.30590   0.86648   0.63859   0.00000  Uiso   1.00
C953   C     0.03937   0.85906   0.69219   0.00000  Uiso   1.00
H954   H     0.05163   0.89431   0.69183   0.00000  Uiso   1.00
H955   H     0.06013   0.83965   0.66663   0.00000  Uiso   1.00
H956   H     0.04956   0.84595   0.72939   0.00000  Uiso   1.00
I957   I     0.08932   0.61532   0.65665   0.00000  Uiso   1.00
I958   I     0.09807   0.88553   0.83168   0.00000  Uiso   1.00
O959   O     0.09032   0.70253   0.52038   0.00000  Uiso   1.00
C960   C     0.04695   0.72943   0.50870   0.00000  Uiso   1.00
H961   H     0.05736   0.76247   0.99531   0.00000  Uiso   1.00
H962   H     0.02695   0.73414   0.54140   0.00000  Uiso   1.00
C963   C     0.01092   0.70628   0.96812   0.00000  Uiso   1.00
H964   H     0.03037   0.70275   0.93500   0.00000  Uiso   1.00
H965   H     0.00128   0.67259   0.97988   0.00000  Uiso   1.00
C966   C     0.29501   0.73231   0.95555   0.00000  Uiso   1.00
H967   H     0.27392   0.73408   0.98762   0.00000  Uiso   1.00
H968   H     0.27054   0.71539   0.92491   0.00000  Uiso   1.00
H969   H     0.30348   0.76646   0.94447   0.00000  Uiso   1.00
O970   O     0.18616   0.82914   0.97360   0.00000  Uiso   1.00
C971   C     0.13930   0.84960   0.97977   0.00000  Uiso   1.00
H972   H     0.11517   0.82798   0.99975   0.00000  Uiso   1.00
H973   H     0.11746   0.85728   0.94367   0.00000  Uiso   1.00
C974   C     0.14950   0.89322   0.50858   0.00000  Uiso   1.00
H975   H     0.17444   0.91489   0.98968   0.00000  Uiso   1.00
H976   H     0.11258   0.91055   0.50984   0.00000  Uiso   1.00
C977   C     0.17473   0.88580   0.56078   0.00000  Uiso   1.00
H978   H     0.15071   0.86363   0.58006   0.00000  Uiso   1.00
H979   H     0.17930   0.91806   0.58091   0.00000  Uiso   1.00
H980   H     0.21318   0.87094   0.56077   0.00000  Uiso   1.00
C981   C     0.50039   0.66483   0.74958   0.00000  Uiso   1.00
C982   C     0.50110   0.83525   0.75061   0.00000  Uiso   1.00
C983   C     0.53780   0.77189   0.55894   0.00000  Uiso   1.00
C984   C     0.48936   0.71126   0.94413   0.00000  Uiso   1.00
C985   C     0.53680   0.77242   0.60952   0.00000  Uiso   1.00
C986   C     0.48883   0.71208   0.89339   0.00000  Uiso   1.00
C987   C     0.46272   0.72741   0.59990   0.00000  Uiso   1.00
C988   C     0.51086   0.78805   0.89761   0.00000  Uiso   1.00
C989   C     0.46118   0.72692   0.54878   0.00000  Uiso   1.00
C990   C     0.50926   0.78945   0.94836   0.00000  Uiso   1.00
C991   C     0.49960   0.74931   0.52738   0.00000  Uiso   1.00
C992   C     0.49940   0.75010   0.97278   0.00000  Uiso   1.00
C993   C     0.40139   0.74907   0.73788   0.00000  Uiso   1.00
C994   C     0.59861   0.74970   0.76222   0.00000  Uiso   1.00
C995   C     0.34694   0.74315   0.73192   0.00000  Uiso   1.00
C996   C     0.65323   0.75338   0.76900   0.00000  Uiso   1.00
C997   C     0.54390   0.55006   0.78621   0.00000  Uiso   1.00
C998   C     0.54098   0.95068   0.72096   0.00000  Uiso   1.00
C999   C     0.54068   0.59620   0.78535   0.00000  Uiso   1.00
C1000  C     0.53843   0.90433   0.72194   0.00000  Uiso   1.00
C1001  C     0.50589   0.61656   0.74904   0.00000  Uiso   1.00
C1002  C     0.50644   0.88376   0.75221   0.00000  Uiso   1.00
C1003  C     0.47774   0.59015   0.71209   0.00000  Uiso   1.00
C1004  C     0.48124   0.91019   0.78434   0.00000  Uiso   1.00
C1005  C     0.48322   0.54433   0.71253   0.00000  Uiso   1.00
C1006  C     0.48653   0.95607   0.78451   0.00000  Uiso   1.00
C1007  C     0.51553   0.52434   0.74971   0.00000  Uiso   1.00
C1008  C     0.51557   0.97625   0.75253   0.00000  Uiso   1.00
Cu1009 Cu    0.50000   0.74999   0.79822   0.00000  Uiso   1.00
Cu1010 Cu    0.50000   0.75000   0.70178   0.00000  Uiso   1.00
H1011  H     0.56853   0.53429   0.81533   0.00000  Uiso   1.00
H1012  H     0.56290   0.96671   0.69573   0.00000  Uiso   1.00
H1013  H     0.46065   0.52401   0.68488   0.00000  Uiso   1.00
H1014  H     0.46633   0.97630   0.80840   0.00000  Uiso   1.00
H1015  H     0.56859   0.78899   0.54473   0.00000  Uiso   1.00
H1016  H     0.48248   0.68003   0.96081   0.00000  Uiso   1.00
H1017  H     0.56574   0.79068   0.63298   0.00000  Uiso   1.00
H1018  H     0.47980   0.68179   0.87262   0.00000  Uiso   1.00
H1019  H     0.43364   0.70981   0.61597   0.00000  Uiso   1.00
H1020  H     0.52042   0.81799   0.87997   0.00000  Uiso   1.00
N1021  N     0.50000   0.75001   0.62934   0.00000  Uiso   1.00
N1022  N     0.50000   0.74999   0.87066   0.00000  Uiso   1.00
O1023  O     0.50000   0.68572   0.79072   0.00000  Uiso   1.00
O1024  O     0.50000   0.81428   0.70928   0.00000  Uiso   1.00
O1025  O     0.50000   0.68573   0.70928   0.00000  Uiso   1.00
O1026  O     0.50000   0.81427   0.79072   0.00000  Uiso   1.00
O1027  O     0.42495   0.75000   0.78132   0.00000  Uiso   1.00
O1028  O     0.57505   0.75000   0.71868   0.00000  Uiso   1.00
O1029  O     0.42495   0.75000   0.69989   0.00000  Uiso   1.00
O1030  O     0.57505   0.75000   0.80011   0.00000  Uiso   1.00
I1031  I     0.65088   0.71037   0.66408   0.00000  Uiso   1.00
I1032  I     0.34909   0.78080   0.83988   0.00000  Uiso   1.00
O1033  O     0.56917   0.62066   0.82233   0.00000  Uiso   1.00
C1034  C     0.61209   0.64011   0.80497   0.00000  Uiso   1.00
H1035  H     0.62137   0.67125   0.82641   0.00000  Uiso   1.00
H1036  H     0.60478   0.64958   0.76588   0.00000  Uiso   1.00
C1037  C     0.65862   0.60959   0.81319   0.00000  Uiso   1.00
H1038  H     0.66566   0.60041   0.85221   0.00000  Uiso   1.00
H1039  H     0.65103   0.57880   0.79069   0.00000  Uiso   1.00
C1040  C     0.37305   0.63227   0.79937   0.00000  Uiso   1.00
H1041  H     0.36712   0.64126   0.76029   0.00000  Uiso   1.00
H1042  H     0.40607   0.60939   0.80548   0.00000  Uiso   1.00
H1043  H     0.38216   0.66275   0.82209   0.00000  Uiso   1.00
O1044  O     0.56556   0.87912   0.69189   0.00000  Uiso   1.00
C1045  C     0.61820   0.88127   0.71031   0.00000  Uiso   1.00
H1046  H     0.62501   0.86689   0.74744   0.00000  Uiso   1.00
H1047  H     0.63254   0.91612   0.71210   0.00000  Uiso   1.00
C1048  C     0.64855   0.85467   0.67654   0.00000  Uiso   1.00
H1049  H     0.63782   0.81917   0.67729   0.00000  Uiso   1.00
H1050  H     0.63923   0.86648   0.63859   0.00000  Uiso   1.00
C1051  C     0.37271   0.85906   0.69219   0.00000  Uiso   1.00
H1052  H     0.38497   0.89431   0.69183   0.00000  Uiso   1.00
H1053  H     0.39347   0.83965   0.66663   0.00000  Uiso   1.00
H1054  H     0.38289   0.84595   0.72939   0.00000  Uiso   1.00
I1055  I     0.42266   0.61532   0.65665   0.00000  Uiso   1.00
I1056  I     0.43141   0.88553   0.83168   0.00000  Uiso   1.00
O1057  O     0.42365   0.70253   0.52038   0.00000  Uiso   1.00
C1058  C     0.38028   0.72943   0.50870   0.00000  Uiso   1.00
H1059  H     0.39069   0.76247   0.99531   0.00000  Uiso   1.00
H1060  H     0.36028   0.73414   0.54140   0.00000  Uiso   1.00
C1061  C     0.34425   0.70628   0.96812   0.00000  Uiso   1.00
H1062  H     0.36371   0.70275   0.93500   0.00000  Uiso   1.00
H1063  H     0.33461   0.67259   0.97988   0.00000  Uiso   1.00
C1064  C     0.62834   0.73231   0.95555   0.00000  Uiso   1.00
H1065  H     0.60725   0.73408   0.98762   0.00000  Uiso   1.00
H1066  H     0.60387   0.71539   0.92491   0.00000  Uiso   1.00
H1067  H     0.63681   0.76646   0.94447   0.00000  Uiso   1.00
O1068  O     0.51949   0.82914   0.97360   0.00000  Uiso   1.00
C1069  C     0.47263   0.84960   0.97977   0.00000  Uiso   1.00
H1070  H     0.44850   0.82798   0.99975   0.00000  Uiso   1.00
H1071  H     0.45080   0.85728   0.94367   0.00000  Uiso   1.00
C1072  C     0.48284   0.89322   0.50858   0.00000  Uiso   1.00
H1073  H     0.50778   0.91489   0.98968   0.00000  Uiso   1.00
H1074  H     0.44591   0.91055   0.50984   0.00000  Uiso   1.00
C1075  C     0.50807   0.88580   0.56078   0.00000  Uiso   1.00
H1076  H     0.48405   0.86363   0.58006   0.00000  Uiso   1.00
H1077  H     0.51263   0.91806   0.58091   0.00000  Uiso   1.00
H1078  H     0.54651   0.87094   0.56077   0.00000  Uiso   1.00
C1079  C     0.83373   0.66483   0.74958   0.00000  Uiso   1.00
C1080  C     0.83444   0.83525   0.75061   0.00000  Uiso   1.00
C1081  C     0.87114   0.77189   0.55894   0.00000  Uiso   1.00
C1082  C     0.82269   0.71126   0.94413   0.00000  Uiso   1.00
C1083  C     0.87013   0.77242   0.60952   0.00000  Uiso   1.00
C1084  C     0.82216   0.71208   0.89339   0.00000  Uiso   1.00
C1085  C     0.79606   0.72741   0.59990   0.00000  Uiso   1.00
C1086  C     0.84420   0.78805   0.89761   0.00000  Uiso   1.00
C1087  C     0.79452   0.72692   0.54878   0.00000  Uiso   1.00
C1088  C     0.84260   0.78945   0.94836   0.00000  Uiso   1.00
C1089  C     0.83293   0.74931   0.52738   0.00000  Uiso   1.00
C1090  C     0.83273   0.75010   0.97278   0.00000  Uiso   1.00
C1091  C     0.73472   0.74907   0.73788   0.00000  Uiso   1.00
C1092  C     0.93194   0.74970   0.76222   0.00000  Uiso   1.00
C1093  C     0.68028   0.74315   0.73192   0.00000  Uiso   1.00
C1094  C     0.98656   0.75338   0.76900   0.00000  Uiso   1.00
C1095  C     0.87723   0.55006   0.78621   0.00000  Uiso   1.00
C1096  C     0.87431   0.95068   0.72096   0.00000  Uiso   1.00
C1097  C     0.87402   0.59620   0.78535   0.00000  Uiso   1.00
C1098  C     0.87177   0.90433   0.72194   0.00000  Uiso   1.00
C1099  C     0.83923   0.61656   0.74904   0.00000  Uiso   1.00
C1100  C     0.83977   0.88376   0.75221   0.00000  Uiso   1.00
C1101  C     0.81107   0.59015   0.71209   0.00000  Uiso   1.00
C1102  C     0.81457   0.91019   0.78434   0.00000  Uiso   1.00
C1103  C     0.81656   0.54433   0.71253   0.00000  Uiso   1.00
C1104  C     0.81987   0.95607   0.78451   0.00000  Uiso   1.00
C1105  C     0.84887   0.52434   0.74971   0.00000  Uiso   1.00
C1106  C     0.84890   0.97625   0.75253   0.00000  Uiso   1.00
Cu1107 Cu    0.83333   0.74999   0.79822   0.00000  Uiso   1.00
Cu1108 Cu    0.83333   0.75000   0.70178   0.00000  Uiso   1.00
H1109  H     0.90186   0.53429   0.81533   0.00000  Uiso   1.00
H1110  H     0.89623   0.96671   0.69573   0.00000  Uiso   1.00
H1111  H     0.79398   0.52401   0.68488   0.00000  Uiso   1.00
H1112  H     0.79966   0.97630   0.80840   0.00000  Uiso   1.00
H1113  H     0.90192   0.78899   0.54473   0.00000  Uiso   1.00
H1114  H     0.81582   0.68003   0.96081   0.00000  Uiso   1.00
H1115  H     0.89907   0.79068   0.63298   0.00000  Uiso   1.00
H1116  H     0.81313   0.68179   0.87262   0.00000  Uiso   1.00
H1117  H     0.76697   0.70981   0.61597   0.00000  Uiso   1.00
H1118  H     0.85376   0.81799   0.87997   0.00000  Uiso   1.00
N1119  N     0.83333   0.75001   0.62934   0.00000  Uiso   1.00
N1120  N     0.83333   0.74999   0.87066   0.00000  Uiso   1.00
O1121  O     0.83334   0.68572   0.79072   0.00000  Uiso   1.00
O1122  O     0.83333   0.81428   0.70928   0.00000  Uiso   1.00
O1123  O     0.83334   0.68573   0.70928   0.00000  Uiso   1.00
O1124  O     0.83333   0.81427   0.79072   0.00000  Uiso   1.00
O1125  O     0.75828   0.75000   0.78132   0.00000  Uiso   1.00
O1126  O     0.90839   0.75000   0.71868   0.00000  Uiso   1.00
O1127  O     0.75828   0.75000   0.69989   0.00000  Uiso   1.00
O1128  O     0.90839   0.75000   0.80011   0.00000  Uiso   1.00
I1129  I     0.98421   0.71037   0.66408   0.00000  Uiso   1.00
I1130  I     0.68242   0.78080   0.83988   0.00000  Uiso   1.00
O1131  O     0.90250   0.62066   0.82233   0.00000  Uiso   1.00
C1132  C     0.94543   0.64011   0.80497   0.00000  Uiso   1.00
H1133  H     0.95470   0.67125   0.82641   0.00000  Uiso   1.00
H1134  H     0.93812   0.64958   0.76588   0.00000  Uiso   1.00
C1135  C     0.99195   0.60959   0.81319   0.00000  Uiso   1.00
H1136  H     0.99899   0.60041   0.85221   0.00000  Uiso   1.00
H1137  H     0.98436   0.57880   0.79069   0.00000  Uiso   1.00
C1138  C     0.70638   0.63227   0.79937   0.00000  Uiso   1.00
H1139  H     0.70045   0.64126   0.76029   0.00000  Uiso   1.00
H1140  H     0.73941   0.60939   0.80548   0.00000  Uiso   1.00
H1141  H     0.71549   0.66275   0.82209   0.00000  Uiso   1.00
O1142  O     0.89889   0.87912   0.69189   0.00000  Uiso   1.00
C1143  C     0.95153   0.88127   0.71031   0.00000  Uiso   1.00
H1144  H     0.95834   0.86689   0.74744   0.00000  Uiso   1.00
H1145  H     0.96588   0.91612   0.71210   0.00000  Uiso   1.00
C1146  C     0.98189   0.85467   0.67654   0.00000  Uiso   1.00
H1147  H     0.97116   0.81917   0.67729   0.00000  Uiso   1.00
H1148  H     0.97257   0.86648   0.63859   0.00000  Uiso   1.00
C1149  C     0.70604   0.85906   0.69219   0.00000  Uiso   1.00
H1150  H     0.71830   0.89431   0.69183   0.00000  Uiso   1.00
H1151  H     0.72680   0.83965   0.66663   0.00000  Uiso   1.00
H1152  H     0.71623   0.84595   0.72939   0.00000  Uiso   1.00
I1153  I     0.75599   0.61532   0.65665   0.00000  Uiso   1.00
I1154  I     0.76474   0.88553   0.83168   0.00000  Uiso   1.00
O1155  O     0.75698   0.70253   0.52038   0.00000  Uiso   1.00
C1156  C     0.71361   0.72943   0.50870   0.00000  Uiso   1.00
H1157  H     0.72403   0.76247   0.99531   0.00000  Uiso   1.00
H1158  H     0.69361   0.73414   0.54140   0.00000  Uiso   1.00
C1159  C     0.67758   0.70628   0.96812   0.00000  Uiso   1.00
H1160  H     0.69704   0.70275   0.93500   0.00000  Uiso   1.00
H1161  H     0.66795   0.67259   0.97988   0.00000  Uiso   1.00
C1162  C     0.96168   0.73231   0.95555   0.00000  Uiso   1.00
H1163  H     0.94059   0.73408   0.98762   0.00000  Uiso   1.00
H1164  H     0.93720   0.71539   0.92491   0.00000  Uiso   1.00
H1165  H     0.97015   0.76646   0.94447   0.00000  Uiso   1.00
O1166  O     0.85283   0.82914   0.97360   0.00000  Uiso   1.00
C1167  C     0.80596   0.84960   0.97977   0.00000  Uiso   1.00
H1168  H     0.78184   0.82798   0.99975   0.00000  Uiso   1.00
H1169  H     0.78413   0.85728   0.94367   0.00000  Uiso   1.00
C1170  C     0.81617   0.89322   0.50858   0.00000  Uiso   1.00
H1171  H     0.84111   0.91489   0.98968   0.00000  Uiso   1.00
H1172  H     0.77924   0.91055   0.50984   0.00000  Uiso   1.00
C1173  C     0.84140   0.88580   0.56078   0.00000  Uiso   1.00
H1174  H     0.81738   0.86363   0.58006   0.00000  Uiso   1.00
H1175  H     0.84596   0.91806   0.58091   0.00000  Uiso   1.00
H1176  H     0.87985   0.87094   0.56077   0.00000  Uiso   1.00
loop_
_geom_bond_atom_site_label_1
_geom_bond_atom_site_label_2
_geom_bond_distance
_geom_bond_site_symmetry_2
_ccdc_geom_bond_type
C1     C21     1.464   .     S
C1     O43     1.292   .     A
C1     O45     1.290   .     A
C2     O46     1.292   .     A
C2     O44     1.293   .     A
C2     C22     1.469   .     S
C3     H35     1.082   .     S
C3     C5      1.403   .     A
C3     C11     1.408   .     A
C4     H36     1.082   .     S
C4     C12     1.406   .     A
C4     C6      1.403   .     A
C5     H37     1.077   .     S
C5     N41     1.361   .     A
C6     H38     1.079   .     S
C6     N42     1.366   .     A
C7     C9      1.410   .     A
C7     N41     1.363   .     A
C7     H39     1.080   .     S
C8     N42     1.366   .     A
C8     C10     1.411   .     A
C8     H40     1.079   .     S
C9     O77     1.380   .     S
C9     C11     1.416   .     A
C10    O88     1.382   .     S
C10    C12     1.417   .     A
C11    C600    1.511   1_554 S
C12    C599    1.511   .     S
C13    O49     1.292   .     A
C13    C15     1.434   .     S
C13    O47     1.277   .     A
C14    O48     1.280   .     A
C14    C16     1.432   .     S
C14    O50     1.288   .     A
C15    C212    1.357   1_455 S
C15    I247    2.154   1_455 S
C16    C113    1.357   .     S
C16    I150    2.158   .     S
C17    C27     1.396   .     A
C17    H31     1.084   .     S
C17    C19     1.395   .     A
C18    C28     1.394   .     A
C18    H32     1.084   .     S
C18    C20     1.400   .     A
C19    C21     1.418   .     A
C19    O53     1.385   .     S
C20    O64     1.386   .     S
C20    C22     1.416   .     A
C21    C23     1.413   .     A
C22    C24     1.415   .     A
C23    C25     1.390   .     A
C23    I75     2.121   .     S
C24    I76     2.119   .     S
C24    C26     1.390   .     A
C25    C27     1.393   .     A
C25    H33     1.084   .     S
C26    H34     1.084   .     S
C26    C28     1.392   .     A
C27    C322    1.454   1_545 S
C28    C321    1.454   .     S
Cu29   N42     2.005   .     S
Cu29   O47     1.973   .     S
Cu29   O43     1.946   .     S
Cu29   O50     1.974   .     S
Cu29   Cu30    2.669   .     S
Cu29   O46     1.954   .     S
Cu30   O45     1.954   .     S
Cu30   O48     1.973   .     S
Cu30   N41     2.005   .     S
Cu30   O44     1.946   .     S
Cu30   O49     1.974   .     S
I51    C113    2.154   .     S
I52    C212    2.158   1_455 S
O53    C54     1.417   .     S
C54    H56     1.116   .     S
C54    H55     1.110   .     S
C54    C57     1.532   .     S
C57    H59     1.111   .     S
C57    H58     1.111   .     S
C57    C158    1.528   .     S
C60    H63     1.111   .     S
C60    H62     1.110   .     S
C60    H61     1.111   .     S
C60    C253    1.528   1_455 S
O64    C65     1.415   .     S
C65    H67     1.114   .     S
C65    C68     1.528   .     S
C65    H66     1.115   .     S
C68    H69     1.108   .     S
C68    H70     1.112   .     S
C68    C169    1.525   .     S
C71    H73     1.110   .     S
C71    H74     1.109   .     S
C71    H72     1.111   .     S
C71    C264    1.525   1_455 S
O77    C78     1.410   .     S
C78    H80     1.114   .     S
C78    H667    1.116   1_554 S
C78    C669    1.528   1_554 S
H79    C666    1.116   .     S
C81    H82     1.112   .     S
C81    H83     1.112   .     S
C81    C666    1.528   .     S
C81    C280    1.524   1_455 S
C84    H87     1.110   .     S
C84    H86     1.110   .     S
C84    H85     1.109   .     S
C84    C179    1.524   .     S
O88    C89     1.413   .     S
C89    H91     1.113   .     S
C89    H90     1.114   .     S
C89    C680    1.530   .     S
C92    C95     1.529   .     S
C92    H94     1.112   .     S
C92    C677    1.530   1_554 S
C92    H681    1.112   1_554 S
H93    C680    1.112   .     S
C95    H96     1.111   .     S
C95    H98     1.110   .     S
C95    H97     1.110   .     S
C99    C119    1.464   .     S
C99    O141    1.292   .     A
C99    O143    1.290   .     A
C100   O144    1.292   .     A
C100   O142    1.293   .     A
C100   C120    1.469   .     S
C101   H133    1.082   .     S
C101   C103    1.403   .     A
C101   C109    1.408   .     A
C102   H134    1.082   .     S
C102   C110    1.406   .     A
C102   C104    1.403   .     A
C103   H135    1.077   .     S
C103   N139    1.361   .     A
C104   H136    1.079   .     S
C104   N140    1.366   .     A
C105   C107    1.410   .     A
C105   N139    1.363   .     A
C105   H137    1.080   .     S
C106   N140    1.366   .     A
C106   C108    1.411   .     A
C106   H138    1.079   .     S
C107   O175    1.380   .     S
C107   C109    1.416   .     A
C108   O186    1.382   .     S
C108   C110    1.417   .     A
C109   C698    1.511   1_554 S
C110   C697    1.511   .     S
C111   O147    1.292   .     A
C111   C113    1.434   .     S
C111   O145    1.277   .     A
C112   O146    1.280   .     A
C112   C114    1.432   .     S
C112   O148    1.288   .     A
C114   C211    1.357   .     S
C114   I248    2.158   .     S
C115   C125    1.396   .     A
C115   H129    1.084   .     S
C115   C117    1.395   .     A
C116   C126    1.394   .     A
C116   H130    1.084   .     S
C116   C118    1.400   .     A
C117   C119    1.418   .     A
C117   O151    1.385   .     S
C118   O162    1.386   .     S
C118   C120    1.416   .     A
C119   C121    1.413   .     A
C120   C122    1.415   .     A
C121   C123    1.390   .     A
C121   I173    2.121   .     S
C122   I174    2.119   .     S
C122   C124    1.390   .     A
C123   C125    1.393   .     A
C123   H131    1.084   .     S
C124   H132    1.084   .     S
C124   C126    1.392   .     A
C125   C420    1.454   1_545 S
C126   C419    1.454   .     S
Cu127  N140    2.005   .     S
Cu127  O145    1.973   .     S
Cu127  O141    1.946   .     S
Cu127  O148    1.974   .     S
Cu127  Cu128   2.669   .     S
Cu127  O144    1.954   .     S
Cu128  O143    1.954   .     S
Cu128  O146    1.973   .     S
Cu128  N139    2.005   .     S
Cu128  O142    1.946   .     S
Cu128  O147    1.974   .     S
I149   C211    2.154   .     S
O151   C152    1.417   .     S
C152   H154    1.116   .     S
C152   H153    1.110   .     S
C152   C155    1.532   .     S
C155   H157    1.111   .     S
C155   H156    1.111   .     S
C155   C256    1.528   .     S
C158   H161    1.111   .     S
C158   H160    1.110   .     S
C158   H159    1.111   .     S
O162   C163    1.415   .     S
C163   H165    1.114   .     S
C163   C166    1.528   .     S
C163   H164    1.115   .     S
C166   H167    1.108   .     S
C166   H168    1.112   .     S
C166   C267    1.525   .     S
C169   H171    1.110   .     S
C169   H172    1.109   .     S
C169   H170    1.111   .     S
O175   C176    1.410   .     S
C176   H178    1.114   .     S
C176   H765    1.116   1_554 S
C176   C767    1.528   1_554 S
H177   C764    1.116   .     S
C179   H180    1.112   .     S
C179   H181    1.112   .     S
C179   C764    1.528   .     S
C182   H185    1.110   .     S
C182   H184    1.110   .     S
C182   H183    1.109   .     S
C182   C277    1.524   .     S
O186   C187    1.413   .     S
C187   H189    1.113   .     S
C187   H188    1.114   .     S
C187   C778    1.530   .     S
C190   C193    1.529   .     S
C190   H192    1.112   .     S
C190   C775    1.530   1_554 S
C190   H779    1.112   1_554 S
H191   C778    1.112   .     S
C193   H194    1.111   .     S
C193   H196    1.110   .     S
C193   H195    1.110   .     S
C197   C217    1.464   .     S
C197   O239    1.292   .     A
C197   O241    1.290   .     A
C198   O242    1.292   .     A
C198   O240    1.293   .     A
C198   C218    1.469   .     S
C199   H231    1.082   .     S
C199   C201    1.403   .     A
C199   C207    1.408   .     A
C200   H232    1.082   .     S
C200   C208    1.406   .     A
C200   C202    1.403   .     A
C201   H233    1.077   .     S
C201   N237    1.361   .     A
C202   H234    1.079   .     S
C202   N238    1.366   .     A
C203   C205    1.410   .     A
C203   N237    1.363   .     A
C203   H235    1.080   .     S
C204   N238    1.366   .     A
C204   C206    1.411   .     A
C204   H236    1.079   .     S
C205   O273    1.380   .     S
C205   C207    1.416   .     A
C206   O284    1.382   .     S
C206   C208    1.417   .     A
C207   C796    1.511   1_554 S
C208   C795    1.511   .     S
C209   O245    1.292   .     A
C209   C211    1.434   .     S
C209   O243    1.277   .     A
C210   O244    1.280   .     A
C210   C212    1.432   .     S
C210   O246    1.288   .     A
C212   C15     1.357   1_655 S
C212   I52     2.158   1_655 S
C213   C223    1.396   .     A
C213   H227    1.084   .     S
C213   C215    1.395   .     A
C214   C224    1.394   .     A
C214   H228    1.084   .     S
C214   C216    1.400   .     A
C215   C217    1.418   .     A
C215   O249    1.385   .     S
C216   O260    1.386   .     S
C216   C218    1.416   .     A
C217   C219    1.413   .     A
C218   C220    1.415   .     A
C219   C221    1.390   .     A
C219   I271    2.121   .     S
C220   I272    2.119   .     S
C220   C222    1.390   .     A
C221   C223    1.393   .     A
C221   H229    1.084   .     S
C222   H230    1.084   .     S
C222   C224    1.392   .     A
C223   C518    1.454   1_545 S
C224   C517    1.454   .     S
Cu225  N238    2.005   .     S
Cu225  O243    1.973   .     S
Cu225  O239    1.946   .     S
Cu225  O246    1.974   .     S
Cu225  Cu226   2.669   .     S
Cu225  O242    1.954   .     S
Cu226  O241    1.954   .     S
Cu226  O244    1.973   .     S
Cu226  N237    2.005   .     S
Cu226  O240    1.946   .     S
Cu226  O245    1.974   .     S
I247   C15     2.154   1_655 S
O249   C250    1.417   .     S
C250   H252    1.116   .     S
C250   H251    1.110   .     S
C250   C253    1.532   .     S
C253   H255    1.111   .     S
C253   H254    1.111   .     S
C253   C60     1.528   1_655 S
C256   H259    1.111   .     S
C256   H258    1.110   .     S
C256   H257    1.111   .     S
O260   C261    1.415   .     S
C261   H263    1.114   .     S
C261   C264    1.528   .     S
C261   H262    1.115   .     S
C264   H265    1.108   .     S
C264   H266    1.112   .     S
C264   C71     1.525   1_655 S
C267   H269    1.110   .     S
C267   H270    1.109   .     S
C267   H268    1.111   .     S
O273   C274    1.410   .     S
C274   H276    1.114   .     S
C274   H863    1.116   1_554 S
C274   C865    1.528   1_554 S
H275   C862    1.116   .     S
C277   H278    1.112   .     S
C277   H279    1.112   .     S
C277   C862    1.528   .     S
C280   H283    1.110   .     S
C280   H282    1.110   .     S
C280   H281    1.109   .     S
C280   C81     1.524   1_655 S
O284   C285    1.413   .     S
C285   H287    1.113   .     S
C285   H286    1.114   .     S
C285   C876    1.530   .     S
C288   C291    1.529   .     S
C288   H290    1.112   .     S
C288   C873    1.530   1_554 S
C288   H877    1.112   1_554 S
H289   C876    1.112   .     S
C291   H292    1.111   .     S
C291   H294    1.110   .     S
C291   H293    1.110   .     S
C295   C315    1.464   .     S
C295   O337    1.292   .     A
C295   O339    1.290   .     A
C296   O340    1.292   .     A
C296   O338    1.293   .     A
C296   C316    1.469   .     S
C297   H329    1.082   .     S
C297   C299    1.403   .     A
C297   C305    1.408   .     A
C298   H330    1.082   .     S
C298   C306    1.406   .     A
C298   C300    1.403   .     A
C299   H331    1.077   .     S
C299   N335    1.361   .     A
C300   H332    1.079   .     S
C300   N336    1.366   .     A
C301   C303    1.410   .     A
C301   N335    1.363   .     A
C301   H333    1.080   .     S
C302   N336    1.366   .     A
C302   C304    1.411   .     A
C302   H334    1.079   .     S
C303   O371    1.380   .     S
C303   C305    1.416   .     A
C304   O382    1.382   .     S
C304   C306    1.417   .     A
C305   C894    1.511   1_554 S
C306   C893    1.511   .     S
C307   O343    1.292   .     A
C307   C309    1.434   .     S
C307   O341    1.277   .     A
C308   O342    1.280   .     A
C308   C310    1.432   .     S
C308   O344    1.288   .     A
C309   C506    1.357   1_455 S
C309   I541    2.154   1_455 S
C310   C407    1.357   .     S
C310   I444    2.158   .     S
C311   C321    1.396   .     A
C311   H325    1.084   .     S
C311   C313    1.395   .     A
C312   C322    1.394   .     A
C312   H326    1.084   .     S
C312   C314    1.400   .     A
C313   C315    1.418   .     A
C313   O347    1.385   .     S
C314   O358    1.386   .     S
C314   C316    1.416   .     A
C315   C317    1.413   .     A
C316   C318    1.415   .     A
C317   C319    1.390   .     A
C317   I369    2.121   .     S
C318   I370    2.119   .     S
C318   C320    1.390   .     A
C319   C321    1.393   .     A
C319   H327    1.084   .     S
C320   H328    1.084   .     S
C320   C322    1.392   .     A
C322   C27     1.454   1_565 S
Cu323  N336    2.005   .     S
Cu323  O341    1.973   .     S
Cu323  O337    1.946   .     S
Cu323  O344    1.974   .     S
Cu323  Cu324   2.669   .     S
Cu323  O340    1.954   .     S
Cu324  O339    1.954   .     S
Cu324  O342    1.973   .     S
Cu324  N335    2.005   .     S
Cu324  O338    1.946   .     S
Cu324  O343    1.974   .     S
I345   C407    2.154   .     S
I346   C506    2.158   1_455 S
O347   C348    1.417   .     S
C348   H350    1.116   .     S
C348   H349    1.110   .     S
C348   C351    1.532   .     S
C351   H353    1.111   .     S
C351   H352    1.111   .     S
C351   C452    1.528   .     S
C354   H357    1.111   .     S
C354   H356    1.110   .     S
C354   H355    1.111   .     S
C354   C547    1.528   1_455 S
O358   C359    1.415   .     S
C359   H361    1.114   .     S
C359   C362    1.528   .     S
C359   H360    1.115   .     S
C362   H363    1.108   .     S
C362   H364    1.112   .     S
C362   C463    1.525   .     S
C365   H367    1.110   .     S
C365   H368    1.109   .     S
C365   H366    1.111   .     S
C365   C558    1.525   1_455 S
O371   C372    1.410   .     S
C372   H374    1.114   .     S
C372   H961    1.116   1_554 S
C372   C963    1.528   1_554 S
H373   C960    1.116   .     S
C375   H376    1.112   .     S
C375   H377    1.112   .     S
C375   C960    1.528   .     S
C375   C574    1.524   1_455 S
C378   H381    1.110   .     S
C378   H380    1.110   .     S
C378   H379    1.109   .     S
C378   C473    1.524   .     S
O382   C383    1.413   .     S
C383   H385    1.113   .     S
C383   H384    1.114   .     S
C383   C974    1.530   .     S
C386   C389    1.529   .     S
C386   H388    1.112   .     S
C386   C971    1.530   1_554 S
C386   H975    1.112   1_554 S
H387   C974    1.112   .     S
C389   H390    1.111   .     S
C389   H392    1.110   .     S
C389   H391    1.110   .     S
C393   C413    1.464   .     S
C393   O435    1.292   .     A
C393   O437    1.290   .     A
C394   O438    1.292   .     A
C394   O436    1.293   .     A
C394   C414    1.469   .     S
C395   H427    1.082   .     S
C395   C397    1.403   .     A
C395   C403    1.408   .     A
C396   H428    1.082   .     S
C396   C404    1.406   .     A
C396   C398    1.403   .     A
C397   H429    1.077   .     S
C397   N433    1.361   .     A
C398   H430    1.079   .     S
C398   N434    1.366   .     A
C399   C401    1.410   .     A
C399   N433    1.363   .     A
C399   H431    1.080   .     S
C400   N434    1.366   .     A
C400   C402    1.411   .     A
C400   H432    1.079   .     S
C401   O469    1.380   .     S
C401   C403    1.416   .     A
C402   O480    1.382   .     S
C402   C404    1.417   .     A
C403   C992    1.511   1_554 S
C404   C991    1.511   .     S
C405   O441    1.292   .     A
C405   C407    1.434   .     S
C405   O439    1.277   .     A
C406   O440    1.280   .     A
C406   C408    1.432   .     S
C406   O442    1.288   .     A
C408   C505    1.357   .     S
C408   I542    2.158   .     S
C409   C419    1.396   .     A
C409   H423    1.084   .     S
C409   C411    1.395   .     A
C410   C420    1.394   .     A
C410   H424    1.084   .     S
C410   C412    1.400   .     A
C411   C413    1.418   .     A
C411   O445    1.385   .     S
C412   O456    1.386   .     S
C412   C414    1.416   .     A
C413   C415    1.413   .     A
C414   C416    1.415   .     A
C415   C417    1.390   .     A
C415   I467    2.121   .     S
C416   I468    2.119   .     S
C416   C418    1.390   .     A
C417   C419    1.393   .     A
C417   H425    1.084   .     S
C418   H426    1.084   .     S
C418   C420    1.392   .     A
C420   C125    1.454   1_565 S
Cu421  N434    2.005   .     S
Cu421  O439    1.973   .     S
Cu421  O435    1.946   .     S
Cu421  O442    1.974   .     S
Cu421  Cu422   2.669   .     S
Cu421  O438    1.954   .     S
Cu422  O437    1.954   .     S
Cu422  O440    1.973   .     S
Cu422  N433    2.005   .     S
Cu422  O436    1.946   .     S
Cu422  O441    1.974   .     S
I443   C505    2.154   .     S
O445   C446    1.417   .     S
C446   H448    1.116   .     S
C446   H447    1.110   .     S
C446   C449    1.532   .     S
C449   H451    1.111   .     S
C449   H450    1.111   .     S
C449   C550    1.528   .     S
C452   H455    1.111   .     S
C452   H454    1.110   .     S
C452   H453    1.111   .     S
O456   C457    1.415   .     S
C457   H459    1.114   .     S
C457   C460    1.528   .     S
C457   H458    1.115   .     S
C460   H461    1.108   .     S
C460   H462    1.112   .     S
C460   C561    1.525   .     S
C463   H465    1.110   .     S
C463   H466    1.109   .     S
C463   H464    1.111   .     S
O469   C470    1.410   .     S
C470   H472    1.114   .     S
C470   H1059   1.116   1_554 S
C470   C1061   1.528   1_554 S
H471   C1058   1.116   .     S
C473   H474    1.112   .     S
C473   H475    1.112   .     S
C473   C1058   1.528   .     S
C476   H479    1.110   .     S
C476   H478    1.110   .     S
C476   H477    1.109   .     S
C476   C571    1.524   .     S
O480   C481    1.413   .     S
C481   H483    1.113   .     S
C481   H482    1.114   .     S
C481   C1072   1.530   .     S
C484   C487    1.529   .     S
C484   H486    1.112   .     S
C484   C1069   1.530   1_554 S
C484   H1073   1.112   1_554 S
H485   C1072   1.112   .     S
C487   H488    1.111   .     S
C487   H490    1.110   .     S
C487   H489    1.110   .     S
C491   C511    1.464   .     S
C491   O533    1.292   .     A
C491   O535    1.290   .     A
C492   O536    1.292   .     A
C492   O534    1.293   .     A
C492   C512    1.469   .     S
C493   H525    1.082   .     S
C493   C495    1.403   .     A
C493   C501    1.408   .     A
C494   H526    1.082   .     S
C494   C502    1.406   .     A
C494   C496    1.403   .     A
C495   H527    1.077   .     S
C495   N531    1.361   .     A
C496   H528    1.079   .     S
C496   N532    1.366   .     A
C497   C499    1.410   .     A
C497   N531    1.363   .     A
C497   H529    1.080   .     S
C498   N532    1.366   .     A
C498   C500    1.411   .     A
C498   H530    1.079   .     S
C499   O567    1.380   .     S
C499   C501    1.416   .     A
C500   O578    1.382   .     S
C500   C502    1.417   .     A
C501   C1090   1.511   1_554 S
C502   C1089   1.511   .     S
C503   O539    1.292   .     A
C503   C505    1.434   .     S
C503   O537    1.277   .     A
C504   O538    1.280   .     A
C504   C506    1.432   .     S
C504   O540    1.288   .     A
C506   C309    1.357   1_655 S
C506   I346    2.158   1_655 S
C507   C517    1.396   .     A
C507   H521    1.084   .     S
C507   C509    1.395   .     A
C508   C518    1.394   .     A
C508   H522    1.084   .     S
C508   C510    1.400   .     A
C509   C511    1.418   .     A
C509   O543    1.385   .     S
C510   O554    1.386   .     S
C510   C512    1.416   .     A
C511   C513    1.413   .     A
C512   C514    1.415   .     A
C513   C515    1.390   .     A
C513   I565    2.121   .     S
C514   I566    2.119   .     S
C514   C516    1.390   .     A
C515   C517    1.393   .     A
C515   H523    1.084   .     S
C516   H524    1.084   .     S
C516   C518    1.392   .     A
C518   C223    1.454   1_565 S
Cu519  N532    2.005   .     S
Cu519  O537    1.973   .     S
Cu519  O533    1.946   .     S
Cu519  O540    1.974   .     S
Cu519  Cu520   2.669   .     S
Cu519  O536    1.954   .     S
Cu520  O535    1.954   .     S
Cu520  O538    1.973   .     S
Cu520  N531    2.005   .     S
Cu520  O534    1.946   .     S
Cu520  O539    1.974   .     S
I541   C309    2.154   1_655 S
O543   C544    1.417   .     S
C544   H546    1.116   .     S
C544   H545    1.110   .     S
C544   C547    1.532   .     S
C547   H549    1.111   .     S
C547   H548    1.111   .     S
C547   C354    1.528   1_655 S
C550   H553    1.111   .     S
C550   H552    1.110   .     S
C550   H551    1.111   .     S
O554   C555    1.415   .     S
C555   H557    1.114   .     S
C555   C558    1.528   .     S
C555   H556    1.115   .     S
C558   H559    1.108   .     S
C558   H560    1.112   .     S
C558   C365    1.525   1_655 S
C561   H563    1.110   .     S
C561   H564    1.109   .     S
C561   H562    1.111   .     S
O567   C568    1.410   .     S
C568   H570    1.114   .     S
C568   H1157   1.116   1_554 S
C568   C1159   1.528   1_554 S
H569   C1156   1.116   .     S
C571   H572    1.112   .     S
C571   H573    1.112   .     S
C571   C1156   1.528   .     S
C574   H577    1.110   .     S
C574   H576    1.110   .     S
C574   H575    1.109   .     S
C574   C375    1.524   1_655 S
O578   C579    1.413   .     S
C579   H581    1.113   .     S
C579   H580    1.114   .     S
C579   C1170   1.530   .     S
C582   C585    1.529   .     S
C582   H584    1.112   .     S
C582   C1167   1.530   1_554 S
C582   H1171   1.112   1_554 S
H583   C1170   1.112   .     S
C585   H586    1.111   .     S
C585   H588    1.110   .     S
C585   H587    1.110   .     S
C589   C609    1.464   .     S
C589   O631    1.292   .     A
C589   O633    1.290   .     A
C590   O634    1.292   .     A
C590   O632    1.293   .     A
C590   C610    1.469   .     S
C591   H623    1.082   .     S
C591   C593    1.403   .     A
C591   C599    1.408   .     A
C592   H624    1.082   .     S
C592   C600    1.406   .     A
C592   C594    1.403   .     A
C593   H625    1.077   .     S
C593   N629    1.361   .     A
C594   H626    1.079   .     S
C594   N630    1.366   .     A
C595   C597    1.410   .     A
C595   N629    1.363   .     A
C595   H627    1.080   .     S
C596   N630    1.366   .     A
C596   C598    1.411   .     A
C596   H628    1.079   .     S
C597   O665    1.380   .     S
C597   C599    1.416   .     A
C598   O676    1.382   .     S
C598   C600    1.417   .     A
C600   C11     1.511   1_556 S
C601   O637    1.292   .     A
C601   C603    1.434   .     S
C601   O635    1.277   .     A
C602   O636    1.280   .     A
C602   C604    1.432   .     S
C602   O638    1.288   .     A
C603   C800    1.357   1_455 S
C603   I835    2.154   1_455 S
C604   C701    1.357   .     S
C604   I738    2.158   .     S
C605   C615    1.396   .     A
C605   H619    1.084   .     S
C605   C607    1.395   .     A
C606   C616    1.394   .     A
C606   H620    1.084   .     S
C606   C608    1.400   .     A
C607   C609    1.418   .     A
C607   O641    1.385   .     S
C608   O652    1.386   .     S
C608   C610    1.416   .     A
C609   C611    1.413   .     A
C610   C612    1.415   .     A
C611   C613    1.390   .     A
C611   I663    2.121   .     S
C612   I664    2.119   .     S
C612   C614    1.390   .     A
C613   C615    1.393   .     A
C613   H621    1.084   .     S
C614   H622    1.084   .     S
C614   C616    1.392   .     A
C615   C910    1.454   1_545 S
C616   C909    1.454   .     S
Cu617  N630    2.005   .     S
Cu617  O635    1.973   .     S
Cu617  O631    1.946   .     S
Cu617  O638    1.974   .     S
Cu617  Cu618   2.669   .     S
Cu617  O634    1.954   .     S
Cu618  O633    1.954   .     S
Cu618  O636    1.973   .     S
Cu618  N629    2.005   .     S
Cu618  O632    1.946   .     S
Cu618  O637    1.974   .     S
I639   C701    2.154   .     S
I640   C800    2.158   1_455 S
O641   C642    1.417   .     S
C642   H644    1.116   .     S
C642   H643    1.110   .     S
C642   C645    1.532   .     S
C645   H647    1.111   .     S
C645   H646    1.111   .     S
C645   C746    1.528   .     S
C648   H651    1.111   .     S
C648   H650    1.110   .     S
C648   H649    1.111   .     S
C648   C841    1.528   1_455 S
O652   C653    1.415   .     S
C653   H655    1.114   .     S
C653   C656    1.528   .     S
C653   H654    1.115   .     S
C656   H657    1.108   .     S
C656   H658    1.112   .     S
C656   C757    1.525   .     S
C659   H661    1.110   .     S
C659   H662    1.109   .     S
C659   H660    1.111   .     S
C659   C852    1.525   1_455 S
O665   C666    1.410   .     S
C666   H668    1.114   .     S
H667   C78     1.116   1_556 S
C669   H670    1.112   .     S
C669   H671    1.112   .     S
C669   C78     1.528   1_556 S
C669   C868    1.524   1_455 S
C672   H675    1.110   .     S
C672   H674    1.110   .     S
C672   H673    1.109   .     S
C672   C767    1.524   .     S
O676   C677    1.413   .     S
C677   H679    1.113   .     S
C677   H678    1.114   .     S
C677   C92     1.530   1_556 S
C680   C683    1.529   .     S
C680   H682    1.112   .     S
H681   C92     1.112   1_556 S
C683   H684    1.111   .     S
C683   H686    1.110   .     S
C683   H685    1.110   .     S
C687   C707    1.464   .     S
C687   O729    1.292   .     A
C687   O731    1.290   .     A
C688   O732    1.292   .     A
C688   O730    1.293   .     A
C688   C708    1.469   .     S
C689   H721    1.082   .     S
C689   C691    1.403   .     A
C689   C697    1.408   .     A
C690   H722    1.082   .     S
C690   C698    1.406   .     A
C690   C692    1.403   .     A
C691   H723    1.077   .     S
C691   N727    1.361   .     A
C692   H724    1.079   .     S
C692   N728    1.366   .     A
C693   C695    1.410   .     A
C693   N727    1.363   .     A
C693   H725    1.080   .     S
C694   N728    1.366   .     A
C694   C696    1.411   .     A
C694   H726    1.079   .     S
C695   O763    1.380   .     S
C695   C697    1.416   .     A
C696   O774    1.382   .     S
C696   C698    1.417   .     A
C698   C109    1.511   1_556 S
C699   O735    1.292   .     A
C699   C701    1.434   .     S
C699   O733    1.277   .     A
C700   O734    1.280   .     A
C700   C702    1.432   .     S
C700   O736    1.288   .     A
C702   C799    1.357   .     S
C702   I836    2.158   .     S
C703   C713    1.396   .     A
C703   H717    1.084   .     S
C703   C705    1.395   .     A
C704   C714    1.394   .     A
C704   H718    1.084   .     S
C704   C706    1.400   .     A
C705   C707    1.418   .     A
C705   O739    1.385   .     S
C706   O750    1.386   .     S
C706   C708    1.416   .     A
C707   C709    1.413   .     A
C708   C710    1.415   .     A
C709   C711    1.390   .     A
C709   I761    2.121   .     S
C710   I762    2.119   .     S
C710   C712    1.390   .     A
C711   C713    1.393   .     A
C711   H719    1.084   .     S
C712   H720    1.084   .     S
C712   C714    1.392   .     A
C713   C1008   1.454   1_545 S
C714   C1007   1.454   .     S
Cu715  N728    2.005   .     S
Cu715  O733    1.973   .     S
Cu715  O729    1.946   .     S
Cu715  O736    1.974   .     S
Cu715  Cu716   2.669   .     S
Cu715  O732    1.954   .     S
Cu716  O731    1.954   .     S
Cu716  O734    1.973   .     S
Cu716  N727    2.005   .     S
Cu716  O730    1.946   .     S
Cu716  O735    1.974   .     S
I737   C799    2.154   .     S
O739   C740    1.417   .     S
C740   H742    1.116   .     S
C740   H741    1.110   .     S
C740   C743    1.532   .     S
C743   H745    1.111   .     S
C743   H744    1.111   .     S
C743   C844    1.528   .     S
C746   H749    1.111   .     S
C746   H748    1.110   .     S
C746   H747    1.111   .     S
O750   C751    1.415   .     S
C751   H753    1.114   .     S
C751   C754    1.528   .     S
C751   H752    1.115   .     S
C754   H755    1.108   .     S
C754   H756    1.112   .     S
C754   C855    1.525   .     S
C757   H759    1.110   .     S
C757   H760    1.109   .     S
C757   H758    1.111   .     S
O763   C764    1.410   .     S
C764   H766    1.114   .     S
H765   C176    1.116   1_556 S
C767   H768    1.112   .     S
C767   H769    1.112   .     S
C767   C176    1.528   1_556 S
C770   H773    1.110   .     S
C770   H772    1.110   .     S
C770   H771    1.109   .     S
C770   C865    1.524   .     S
O774   C775    1.413   .     S
C775   H777    1.113   .     S
C775   H776    1.114   .     S
C775   C190    1.530   1_556 S
C778   C781    1.529   .     S
C778   H780    1.112   .     S
H779   C190    1.112   1_556 S
C781   H782    1.111   .     S
C781   H784    1.110   .     S
C781   H783    1.110   .     S
C785   C805    1.464   .     S
C785   O827    1.292   .     A
C785   O829    1.290   .     A
C786   O830    1.292   .     A
C786   O828    1.293   .     A
C786   C806    1.469   .     S
C787   H819    1.082   .     S
C787   C789    1.403   .     A
C787   C795    1.408   .     A
C788   H820    1.082   .     S
C788   C796    1.406   .     A
C788   C790    1.403   .     A
C789   H821    1.077   .     S
C789   N825    1.361   .     A
C790   H822    1.079   .     S
C790   N826    1.366   .     A
C791   C793    1.410   .     A
C791   N825    1.363   .     A
C791   H823    1.080   .     S
C792   N826    1.366   .     A
C792   C794    1.411   .     A
C792   H824    1.079   .     S
C793   O861    1.380   .     S
C793   C795    1.416   .     A
C794   O872    1.382   .     S
C794   C796    1.417   .     A
C796   C207    1.511   1_556 S
C797   O833    1.292   .     A
C797   C799    1.434   .     S
C797   O831    1.277   .     A
C798   O832    1.280   .     A
C798   C800    1.432   .     S
C798   O834    1.288   .     A
C800   C603    1.357   1_655 S
C800   I640    2.158   1_655 S
C801   C811    1.396   .     A
C801   H815    1.084   .     S
C801   C803    1.395   .     A
C802   C812    1.394   .     A
C802   H816    1.084   .     S
C802   C804    1.400   .     A
C803   C805    1.418   .     A
C803   O837    1.385   .     S
C804   O848    1.386   .     S
C804   C806    1.416   .     A
C805   C807    1.413   .     A
C806   C808    1.415   .     A
C807   C809    1.390   .     A
C807   I859    2.121   .     S
C808   I860    2.119   .     S
C808   C810    1.390   .     A
C809   C811    1.393   .     A
C809   H817    1.084   .     S
C810   H818    1.084   .     S
C810   C812    1.392   .     A
C811   C1106   1.454   1_545 S
C812   C1105   1.454   .     S
Cu813  N826    2.005   .     S
Cu813  O831    1.973   .     S
Cu813  O827    1.946   .     S
Cu813  O834    1.974   .     S
Cu813  Cu814   2.669   .     S
Cu813  O830    1.954   .     S
Cu814  O829    1.954   .     S
Cu814  O832    1.973   .     S
Cu814  N825    2.005   .     S
Cu814  O828    1.946   .     S
Cu814  O833    1.974   .     S
I835   C603    2.154   1_655 S
O837   C838    1.417   .     S
C838   H840    1.116   .     S
C838   H839    1.110   .     S
C838   C841    1.532   .     S
C841   H843    1.111   .     S
C841   H842    1.111   .     S
C841   C648    1.528   1_655 S
C844   H847    1.111   .     S
C844   H846    1.110   .     S
C844   H845    1.111   .     S
O848   C849    1.415   .     S
C849   H851    1.114   .     S
C849   C852    1.528   .     S
C849   H850    1.115   .     S
C852   H853    1.108   .     S
C852   H854    1.112   .     S
C852   C659    1.525   1_655 S
C855   H857    1.110   .     S
C855   H858    1.109   .     S
C855   H856    1.111   .     S
O861   C862    1.410   .     S
C862   H864    1.114   .     S
H863   C274    1.116   1_556 S
C865   H866    1.112   .     S
C865   H867    1.112   .     S
C865   C274    1.528   1_556 S
C868   H871    1.110   .     S
C868   H870    1.110   .     S
C868   H869    1.109   .     S
C868   C669    1.524   1_655 S
O872   C873    1.413   .     S
C873   H875    1.113   .     S
C873   H874    1.114   .     S
C873   C288    1.530   1_556 S
C876   C879    1.529   .     S
C876   H878    1.112   .     S
H877   C288    1.112   1_556 S
C879   H880    1.111   .     S
C879   H882    1.110   .     S
C879   H881    1.110   .     S
C883   C903    1.464   .     S
C883   O925    1.292   .     A
C883   O927    1.290   .     A
C884   O928    1.292   .     A
C884   O926    1.293   .     A
C884   C904    1.469   .     S
C885   H917    1.082   .     S
C885   C887    1.403   .     A
C885   C893    1.408   .     A
C886   H918    1.082   .     S
C886   C894    1.406   .     A
C886   C888    1.403   .     A
C887   H919    1.077   .     S
C887   N923    1.361   .     A
C888   H920    1.079   .     S
C888   N924    1.366   .     A
C889   C891    1.410   .     A
C889   N923    1.363   .     A
C889   H921    1.080   .     S
C890   N924    1.366   .     A
C890   C892    1.411   .     A
C890   H922    1.079   .     S
C891   O959    1.380   .     S
C891   C893    1.416   .     A
C892   O970    1.382   .     S
C892   C894    1.417   .     A
C894   C305    1.511   1_556 S
C895   O931    1.292   .     A
C895   C897    1.434   .     S
C895   O929    1.277   .     A
C896   O930    1.280   .     A
C896   C898    1.432   .     S
C896   O932    1.288   .     A
C897   C1094   1.357   1_455 S
C897   I1129   2.154   1_455 S
C898   C995    1.357   .     S
C898   I1032   2.158   .     S
C899   C909    1.396   .     A
C899   H913    1.084   .     S
C899   C901    1.395   .     A
C900   C910    1.394   .     A
C900   H914    1.084   .     S
C900   C902    1.400   .     A
C901   C903    1.418   .     A
C901   O935    1.385   .     S
C902   O946    1.386   .     S
C902   C904    1.416   .     A
C903   C905    1.413   .     A
C904   C906    1.415   .     A
C905   C907    1.390   .     A
C905   I957    2.121   .     S
C906   I958    2.119   .     S
C906   C908    1.390   .     A
C907   C909    1.393   .     A
C907   H915    1.084   .     S
C908   H916    1.084   .     S
C908   C910    1.392   .     A
C910   C615    1.454   1_565 S
Cu911  N924    2.005   .     S
Cu911  O929    1.973   .     S
Cu911  O925    1.946   .     S
Cu911  O932    1.974   .     S
Cu911  Cu912   2.669   .     S
Cu911  O928    1.954   .     S
Cu912  O927    1.954   .     S
Cu912  O930    1.973   .     S
Cu912  N923    2.005   .     S
Cu912  O926    1.946   .     S
Cu912  O931    1.974   .     S
I933   C995    2.154   .     S
I934   C1094   2.158   1_455 S
O935   C936    1.417   .     S
C936   H938    1.116   .     S
C936   H937    1.110   .     S
C936   C939    1.532   .     S
C939   H941    1.111   .     S
C939   H940    1.111   .     S
C939   C1040   1.528   .     S
C942   H945    1.111   .     S
C942   H944    1.110   .     S
C942   H943    1.111   .     S
C942   C1135   1.528   1_455 S
O946   C947    1.415   .     S
C947   H949    1.114   .     S
C947   C950    1.528   .     S
C947   H948    1.115   .     S
C950   H951    1.108   .     S
C950   H952    1.112   .     S
C950   C1051   1.525   .     S
C953   H955    1.110   .     S
C953   H956    1.109   .     S
C953   H954    1.111   .     S
C953   C1146   1.525   1_455 S
O959   C960    1.410   .     S
C960   H962    1.114   .     S
H961   C372    1.116   1_556 S
C963   H964    1.112   .     S
C963   H965    1.112   .     S
C963   C372    1.528   1_556 S
C963   C1162   1.524   1_455 S
C966   H969    1.110   .     S
C966   H968    1.110   .     S
C966   H967    1.109   .     S
C966   C1061   1.524   .     S
O970   C971    1.413   .     S
C971   H973    1.113   .     S
C971   H972    1.114   .     S
C971   C386    1.530   1_556 S
C974   C977    1.529   .     S
C974   H976    1.112   .     S
H975   C386    1.112   1_556 S
C977   H978    1.111   .     S
C977   H980    1.110   .     S
C977   H979    1.110   .     S
C981   C1001   1.464   .     S
C981   O1023   1.292   .     A
C981   O1025   1.290   .     A
C982   O1026   1.292   .     A
C982   O1024   1.293   .     A
C982   C1002   1.469   .     S
C983   H1015   1.082   .     S
C983   C985    1.403   .     A
C983   C991    1.408   .     A
C984   H1016   1.082   .     S
C984   C992    1.406   .     A
C984   C986    1.403   .     A
C985   H1017   1.077   .     S
C985   N1021   1.361   .     A
C986   H1018   1.079   .     S
C986   N1022   1.366   .     A
C987   C989    1.410   .     A
C987   N1021   1.363   .     A
C987   H1019   1.080   .     S
C988   N1022   1.366   .     A
C988   C990    1.411   .     A
C988   H1020   1.079   .     S
C989   O1057   1.380   .     S
C989   C991    1.416   .     A
C990   O1068   1.382   .     S
C990   C992    1.417   .     A
C992   C403    1.511   1_556 S
C993   O1029   1.292   .     A
C993   C995    1.434   .     S
C993   O1027   1.277   .     A
C994   O1028   1.280   .     A
C994   C996    1.432   .     S
C994   O1030   1.288   .     A
C996   C1093   1.357   .     S
C996   I1130   2.158   .     S
C997   C1007   1.396   .     A
C997   H1011   1.084   .     S
C997   C999    1.395   .     A
C998   C1008   1.394   .     A
C998   H1012   1.084   .     S
C998   C1000   1.400   .     A
C999   C1001   1.418   .     A
C999   O1033   1.385   .     S
C1000  O1044   1.386   .     S
C1000  C1002   1.416   .     A
C1001  C1003   1.413   .     A
C1002  C1004   1.415   .     A
C1003  C1005   1.390   .     A
C1003  I1055   2.121   .     S
C1004  I1056   2.119   .     S
C1004  C1006   1.390   .     A
C1005  C1007   1.393   .     A
C1005  H1013   1.084   .     S
C1006  H1014   1.084   .     S
C1006  C1008   1.392   .     A
C1008  C713    1.454   1_565 S
Cu1009 N1022   2.005   .     S
Cu1009 O1027   1.973   .     S
Cu1009 O1023   1.946   .     S
Cu1009 O1030   1.974   .     S
Cu1009 Cu1010  2.669   .     S
Cu1009 O1026   1.954   .     S
Cu1010 O1025   1.954   .     S
Cu1010 O1028   1.973   .     S
Cu1010 N1021   2.005   .     S
Cu1010 O1024   1.946   .     S
Cu1010 O1029   1.974   .     S
I1031  C1093   2.154   .     S
O1033  C1034   1.417   .     S
C1034  H1036   1.116   .     S
C1034  H1035   1.110   .     S
C1034  C1037   1.532   .     S
C1037  H1039   1.111   .     S
C1037  H1038   1.111   .     S
C1037  C1138   1.528   .     S
C1040  H1043   1.111   .     S
C1040  H1042   1.110   .     S
C1040  H1041   1.111   .     S
O1044  C1045   1.415   .     S
C1045  H1047   1.114   .     S
C1045  C1048   1.528   .     S
C1045  H1046   1.115   .     S
C1048  H1049   1.108   .     S
C1048  H1050   1.112   .     S
C1048  C1149   1.525   .     S
C1051  H1053   1.110   .     S
C1051  H1054   1.109   .     S
C1051  H1052   1.111   .     S
O1057  C1058   1.410   .     S
C1058  H1060   1.114   .     S
H1059  C470    1.116   1_556 S
C1061  H1062   1.112   .     S
C1061  H1063   1.112   .     S
C1061  C470    1.528   1_556 S
C1064  H1067   1.110   .     S
C1064  H1066   1.110   .     S
C1064  H1065   1.109   .     S
C1064  C1159   1.524   .     S
O1068  C1069   1.413   .     S
C1069  H1071   1.113   .     S
C1069  H1070   1.114   .     S
C1069  C484    1.530   1_556 S
C1072  C1075   1.529   .     S
C1072  H1074   1.112   .     S
H1073  C484    1.112   1_556 S
C1075  H1076   1.111   .     S
C1075  H1078   1.110   .     S
C1075  H1077   1.110   .     S
C1079  C1099   1.464   .     S
C1079  O1121   1.292   .     A
C1079  O1123   1.290   .     A
C1080  O1124   1.292   .     A
C1080  O1122   1.293   .     A
C1080  C1100   1.469   .     S
C1081  H1113   1.082   .     S
C1081  C1083   1.403   .     A
C1081  C1089   1.408   .     A
C1082  H1114   1.082   .     S
C1082  C1090   1.406   .     A
C1082  C1084   1.403   .     A
C1083  H1115   1.077   .     S
C1083  N1119   1.361   .     A
C1084  H1116   1.079   .     S
C1084  N1120   1.366   .     A
C1085  C1087   1.410   .     A
C1085  N1119   1.363   .     A
C1085  H1117   1.080   .     S
C1086  N1120   1.366   .     A
C1086  C1088   1.411   .     A
C1086  H1118   1.079   .     S
C1087  O1155   1.380   .     S
C1087  C1089   1.416   .     A
C1088  O1166   1.382   .     S
C1088  C1090   1.417   .     A
C1090  C501    1.511   1_556 S
C1091  O1127   1.292   .     A
C1091  C1093   1.434   .     S
C1091  O1125   1.277   .     A
C1092  O1126   1.280   .     A
C1092  C1094   1.432   .     S
C1092  O1128   1.288   .     A
C1094  C897    1.357   1_655 S
C1094  I934    2.158   1_655 S
C1095  C1105   1.396   .     A
C1095  H1109   1.084   .     S
C1095  C1097   1.395   .     A
C1096  C1106   1.394   .     A
C1096  H1110   1.084   .     S
C1096  C1098   1.400   .     A
C1097  C1099   1.418   .     A
C1097  O1131   1.385   .     S
C1098  O1142   1.386   .     S
C1098  C1100   1.416   .     A
C1099  C1101   1.413   .     A
C1100  C1102   1.415   .     A
C1101  C1103   1.390   .     A
C1101  I1153   2.121   .     S
C1102  I1154   2.119   .     S
C1102  C1104   1.390   .     A
C1103  C1105   1.393   .     A
C1103  H1111   1.084   .     S
C1104  H1112   1.084   .     S
C1104  C1106   1.392   .     A
C1106  C811    1.454   1_565 S
Cu1107 N1120   2.005   .     S
Cu1107 O1125   1.973   .     S
Cu1107 O1121   1.946   .     S
Cu1107 O1128   1.974   .     S
Cu1107 Cu1108  2.669   .     S
Cu1107 O1124   1.954   .     S
Cu1108 O1123   1.954   .     S
Cu1108 O1126   1.973   .     S
Cu1108 N1119   2.005   .     S
Cu1108 O1122   1.946   .     S
Cu1108 O1127   1.974   .     S
I1129  C897    2.154   1_655 S
O1131  C1132   1.417   .     S
C1132  H1134   1.116   .     S
C1132  H1133   1.110   .     S
C1132  C1135   1.532   .     S
C1135  H1137   1.111   .     S
C1135  H1136   1.111   .     S
C1135  C942    1.528   1_655 S
C1138  H1141   1.111   .     S
C1138  H1140   1.110   .     S
C1138  H1139   1.111   .     S
O1142  C1143   1.415   .     S
C1143  H1145   1.114   .     S
C1143  C1146   1.528   .     S
C1143  H1144   1.115   .     S
C1146  H1147   1.108   .     S
C1146  H1148   1.112   .     S
C1146  C953    1.525   1_655 S
C1149  H1151   1.110   .     S
C1149  H1152   1.109   .     S
C1149  H1150   1.111   .     S
O1155  C1156   1.410   .     S
C1156  H1158   1.114   .     S
H1157  C568    1.116   1_556 S
C1159  H1160   1.112   .     S
C1159  H1161   1.112   .     S
C1159  C568    1.528   1_556 S
C1162  H1165   1.110   .     S
C1162  H1164   1.110   .     S
C1162  H1163   1.109   .     S
C1162  C963    1.524   1_655 S
O1166  C1167   1.413   .     S
C1167  H1169   1.113   .     S
C1167  H1168   1.114   .     S
C1167  C582    1.530   1_556 S
C1170  C1173   1.529   .     S
C1170  H1172   1.112   .     S
H1171  C582    1.112   1_556 S
C1173  H1174   1.111   .     S
C1173  H1176   1.110   .     S
C1173  H1175   1.110   .     S
