data_str_m2_o1_o16_pcu_sym.145
_audit_creation_date              2020-01-03
_audit_creation_method            'Materials Studio'
_symmetry_space_group_name_H-M    'P1'
_symmetry_Int_Tables_number       1
_symmetry_cell_setting            triclinic
loop_
_symmetry_equiv_pos_as_xyz
  x,y,z
_cell_length_a                    28.9416
_cell_length_b                    32.3655
_cell_length_c                    26.9165
_cell_angle_alpha                 92.3890
_cell_angle_beta                  73.9817
_cell_angle_gamma                 90.1175
loop_
_atom_site_label
_atom_site_type_symbol
_atom_site_fract_x
_atom_site_fract_y
_atom_site_fract_z
_atom_site_U_iso_or_equiv
_atom_site_adp_type
_atom_site_occupancy
C1     C     0.16684   0.24577   0.24952   0.00000  Uiso   1.00
C2     C     0.14788   0.18421   0.48846   0.00000  Uiso   1.00
C3     C     0.16300   0.18593   0.43412   0.00000  Uiso   1.00
C4     C     0.18255   0.17350   0.01462   0.00000  Uiso   1.00
C5     C     0.23201   0.17363   0.48727   0.00000  Uiso   1.00
C6     C     0.24619   0.18605   0.43658   0.00000  Uiso   1.00
C7     C     0.21157   0.19560   0.41145   0.00000  Uiso   1.00
C8     C     0.17004   0.16213   0.06680   0.00000  Uiso   1.00
C9     C     0.25424   0.16180   0.06547   0.00000  Uiso   1.00
C10    C     0.12817   0.18356   0.40590   0.00000  Uiso   1.00
C11    C     0.20717   0.31039   0.21594   0.00000  Uiso   1.00
C12    C     0.14141   0.17184   0.34954   0.00000  Uiso   1.00
C13    C     0.20584   0.02051   0.21371   0.00000  Uiso   1.00
C14    C     0.16717   0.04274   0.24721   0.00000  Uiso   1.00
C15    C     0.12788   0.02228   0.27832   0.00000  Uiso   1.00
C16    C     0.12762   0.31290   0.27789   0.00000  Uiso   1.00
C17    C     0.16733   0.29037   0.24763   0.00000  Uiso   1.00
C18    C     0.30453   0.20094   0.26689   0.00000  Uiso   1.00
C19    C     0.01910   0.19933   0.27151   0.00000  Uiso   1.00
C20    C     0.03016   0.13437   0.22748   0.00000  Uiso   1.00
C21    C     0.31435   0.13404   0.22845   0.00000  Uiso   1.00
C22    C     0.16686   0.08751   0.24896   0.00000  Uiso   1.00
C23    C     0.19206   0.16449   0.15029   0.00000  Uiso   1.00
C24    C     0.26704   0.16480   0.01214   0.00000  Uiso   1.00
C25    C     0.20568   0.16267   0.09350   0.00000  Uiso   1.00
C26    C     0.08019   0.19291   0.43246   0.00000  Uiso   1.00
C27    C     0.06713   0.20398   0.48532   0.00000  Uiso   1.00
C28    C     0.10120   0.19972   0.01404   0.00000  Uiso   1.00
Cu29   Cu    0.11978   0.16666   0.25000   0.00000  Uiso   1.00
Cu30   Cu    0.21355   0.16667   0.25000   0.00000  Uiso   1.00
N31    N     0.04931   0.16666   0.24999   0.00000  Uiso   1.00
N32    N     0.28402   0.16669   0.25000   0.00000  Uiso   1.00
O33    O     0.12708   0.22678   0.25001   0.00000  Uiso   1.00
O34    O     0.20627   0.22679   0.25001   0.00000  Uiso   1.00
O35    O     0.10775   0.16665   0.32549   0.00000  Uiso   1.00
O36    O     0.18694   0.16666   0.32549   0.00000  Uiso   1.00
O37    O     0.12706   0.10654   0.25000   0.00000  Uiso   1.00
O38    O     0.20625   0.10655   0.25000   0.00000  Uiso   1.00
O39    O     0.14640   0.16667   0.17451   0.00000  Uiso   1.00
O40    O     0.22559   0.16668   0.17451   0.00000  Uiso   1.00
H41    H     0.28231   0.15886   0.08469   0.00000  Uiso   1.00
O42    O     0.23979   0.04172   0.17765   0.00000  Uiso   1.00
H43    H     0.25400   0.02298   0.14725   0.00000  Uiso   1.00
H44    H     0.09759   0.03945   0.30329   0.00000  Uiso   1.00
H45    H     0.09707   0.29742   0.30247   0.00000  Uiso   1.00
O46    O     0.27881   0.23748   0.27782   0.00000  Uiso   1.00
H47    H     0.30012   0.26080   0.28112   0.00000  Uiso   1.00
O48    O     0.03390   0.23138   0.29835   0.00000  Uiso   1.00
H49    H     0.05484   0.21949   0.31747   0.00000  Uiso   1.00
O50    O     0.05809   0.10183   0.20125   0.00000  Uiso   1.00
H51    H     0.08973   0.11299   0.18352   0.00000  Uiso   1.00
O52    O     0.29958   0.10168   0.20233   0.00000  Uiso   1.00
H53    H     0.27915   0.11360   0.18259   0.00000  Uiso   1.00
H54    H     0.28391   0.19117   0.41773   0.00000  Uiso   1.00
H55    H     0.30450   0.16244   0.49052   0.00000  Uiso   1.00
O56    O     0.12495   0.14748   0.09122   0.00000  Uiso   1.00
H57    H     0.11088   0.13468   0.06470   0.00000  Uiso   1.00
H58    H     0.05302   0.19377   0.41173   0.00000  Uiso   1.00
O59    O     0.09220   0.21531   0.06443   0.00000  Uiso   1.00
H60    H     0.06988   0.23924   0.06955   0.00000  Uiso   1.00
O61    O     0.02121   0.21908   0.00726   0.00000  Uiso   1.00
H62    H     0.01181   0.21386   0.04468   0.00000  Uiso   1.00
O63    O     0.22265   0.22185   0.37103   0.00000  Uiso   1.00
H64    H     0.25351   0.23545   0.37053   0.00000  Uiso   1.00
O65    O     0.24596   0.28691   0.18727   0.00000  Uiso   1.00
H66    H     0.27540   0.30375   0.18198   0.00000  Uiso   1.00
C67    C     0.50017   0.24577   0.24952   0.00000  Uiso   1.00
C68    C     0.48122   0.18421   0.48846   0.00000  Uiso   1.00
C69    C     0.49634   0.18593   0.43412   0.00000  Uiso   1.00
C70    C     0.51588   0.17350   0.01462   0.00000  Uiso   1.00
C71    C     0.56535   0.17363   0.48727   0.00000  Uiso   1.00
C72    C     0.57952   0.18605   0.43658   0.00000  Uiso   1.00
C73    C     0.54490   0.19560   0.41145   0.00000  Uiso   1.00
C74    C     0.50337   0.16213   0.06680   0.00000  Uiso   1.00
C75    C     0.58758   0.16180   0.06547   0.00000  Uiso   1.00
C76    C     0.46150   0.18356   0.40590   0.00000  Uiso   1.00
C77    C     0.54050   0.31039   0.21594   0.00000  Uiso   1.00
C78    C     0.47474   0.17184   0.34954   0.00000  Uiso   1.00
C79    C     0.53918   0.02051   0.21371   0.00000  Uiso   1.00
C80    C     0.50050   0.04274   0.24721   0.00000  Uiso   1.00
C81    C     0.46121   0.02228   0.27832   0.00000  Uiso   1.00
C82    C     0.46096   0.31290   0.27789   0.00000  Uiso   1.00
C83    C     0.50066   0.29037   0.24763   0.00000  Uiso   1.00
C84    C     0.63786   0.20094   0.26689   0.00000  Uiso   1.00
C85    C     0.35243   0.19933   0.27151   0.00000  Uiso   1.00
C86    C     0.36349   0.13437   0.22748   0.00000  Uiso   1.00
C87    C     0.64769   0.13404   0.22845   0.00000  Uiso   1.00
C88    C     0.50019   0.08751   0.24896   0.00000  Uiso   1.00
C89    C     0.52540   0.16449   0.15029   0.00000  Uiso   1.00
C90    C     0.60037   0.16480   0.01214   0.00000  Uiso   1.00
C91    C     0.53902   0.16267   0.09350   0.00000  Uiso   1.00
C92    C     0.41352   0.19291   0.43246   0.00000  Uiso   1.00
C93    C     0.40047   0.20398   0.48532   0.00000  Uiso   1.00
C94    C     0.43453   0.19972   0.01404   0.00000  Uiso   1.00
Cu95   Cu    0.45311   0.16666   0.25000   0.00000  Uiso   1.00
Cu96   Cu    0.54689   0.16667   0.25000   0.00000  Uiso   1.00
N97    N     0.38265   0.16666   0.24999   0.00000  Uiso   1.00
N98    N     0.61735   0.16669   0.25000   0.00000  Uiso   1.00
O99    O     0.46042   0.22678   0.25001   0.00000  Uiso   1.00
O100   O     0.53961   0.22679   0.25001   0.00000  Uiso   1.00
O101   O     0.44108   0.16665   0.32549   0.00000  Uiso   1.00
O102   O     0.52027   0.16666   0.32549   0.00000  Uiso   1.00
O103   O     0.46039   0.10654   0.25000   0.00000  Uiso   1.00
O104   O     0.53958   0.10655   0.25000   0.00000  Uiso   1.00
O105   O     0.47973   0.16667   0.17451   0.00000  Uiso   1.00
O106   O     0.55892   0.16668   0.17451   0.00000  Uiso   1.00
H107   H     0.61564   0.15886   0.08469   0.00000  Uiso   1.00
O108   O     0.57313   0.04172   0.17765   0.00000  Uiso   1.00
H109   H     0.58734   0.02298   0.14725   0.00000  Uiso   1.00
H110   H     0.43092   0.03945   0.30329   0.00000  Uiso   1.00
H111   H     0.43040   0.29742   0.30247   0.00000  Uiso   1.00
O112   O     0.61214   0.23748   0.27782   0.00000  Uiso   1.00
H113   H     0.63345   0.26080   0.28112   0.00000  Uiso   1.00
O114   O     0.36723   0.23138   0.29835   0.00000  Uiso   1.00
H115   H     0.38818   0.21949   0.31747   0.00000  Uiso   1.00
O116   O     0.39142   0.10183   0.20125   0.00000  Uiso   1.00
H117   H     0.42306   0.11299   0.18352   0.00000  Uiso   1.00
O118   O     0.63291   0.10168   0.20233   0.00000  Uiso   1.00
H119   H     0.61248   0.11360   0.18259   0.00000  Uiso   1.00
H120   H     0.61724   0.19117   0.41773   0.00000  Uiso   1.00
H121   H     0.63783   0.16244   0.49052   0.00000  Uiso   1.00
O122   O     0.45828   0.14748   0.09122   0.00000  Uiso   1.00
H123   H     0.44421   0.13468   0.06470   0.00000  Uiso   1.00
H124   H     0.38635   0.19377   0.41173   0.00000  Uiso   1.00
O125   O     0.42553   0.21531   0.06443   0.00000  Uiso   1.00
H126   H     0.40322   0.23924   0.06955   0.00000  Uiso   1.00
O127   O     0.35455   0.21908   0.00726   0.00000  Uiso   1.00
H128   H     0.34514   0.21386   0.04468   0.00000  Uiso   1.00
O129   O     0.55598   0.22185   0.37103   0.00000  Uiso   1.00
H130   H     0.58684   0.23545   0.37053   0.00000  Uiso   1.00
O131   O     0.57929   0.28691   0.18727   0.00000  Uiso   1.00
H132   H     0.60873   0.30375   0.18198   0.00000  Uiso   1.00
C133   C     0.83351   0.24577   0.24952   0.00000  Uiso   1.00
C134   C     0.81455   0.18421   0.48846   0.00000  Uiso   1.00
C135   C     0.82967   0.18593   0.43412   0.00000  Uiso   1.00
C136   C     0.84921   0.17350   0.01462   0.00000  Uiso   1.00
C137   C     0.89868   0.17363   0.48727   0.00000  Uiso   1.00
C138   C     0.91285   0.18605   0.43658   0.00000  Uiso   1.00
C139   C     0.87823   0.19560   0.41145   0.00000  Uiso   1.00
C140   C     0.83671   0.16213   0.06680   0.00000  Uiso   1.00
C141   C     0.92091   0.16180   0.06547   0.00000  Uiso   1.00
C142   C     0.79484   0.18356   0.40590   0.00000  Uiso   1.00
C143   C     0.87384   0.31039   0.21594   0.00000  Uiso   1.00
C144   C     0.80807   0.17184   0.34954   0.00000  Uiso   1.00
C145   C     0.87251   0.02051   0.21371   0.00000  Uiso   1.00
C146   C     0.83383   0.04274   0.24721   0.00000  Uiso   1.00
C147   C     0.79455   0.02228   0.27832   0.00000  Uiso   1.00
C148   C     0.79429   0.31290   0.27789   0.00000  Uiso   1.00
C149   C     0.83399   0.29037   0.24763   0.00000  Uiso   1.00
C150   C     0.97119   0.20094   0.26689   0.00000  Uiso   1.00
C151   C     0.68576   0.19933   0.27151   0.00000  Uiso   1.00
C152   C     0.69682   0.13437   0.22748   0.00000  Uiso   1.00
C153   C     0.98102   0.13404   0.22845   0.00000  Uiso   1.00
C154   C     0.83353   0.08751   0.24896   0.00000  Uiso   1.00
C155   C     0.85873   0.16449   0.15029   0.00000  Uiso   1.00
C156   C     0.93371   0.16480   0.01214   0.00000  Uiso   1.00
C157   C     0.87235   0.16267   0.09350   0.00000  Uiso   1.00
C158   C     0.74685   0.19291   0.43246   0.00000  Uiso   1.00
C159   C     0.73380   0.20398   0.48532   0.00000  Uiso   1.00
C160   C     0.76787   0.19972   0.01404   0.00000  Uiso   1.00
Cu161  Cu    0.78645   0.16666   0.25000   0.00000  Uiso   1.00
Cu162  Cu    0.88022   0.16667   0.25000   0.00000  Uiso   1.00
N163   N     0.71598   0.16666   0.24999   0.00000  Uiso   1.00
N164   N     0.95069   0.16669   0.25000   0.00000  Uiso   1.00
O165   O     0.79375   0.22678   0.25001   0.00000  Uiso   1.00
O166   O     0.87294   0.22679   0.25001   0.00000  Uiso   1.00
O167   O     0.77441   0.16665   0.32549   0.00000  Uiso   1.00
O168   O     0.85360   0.16666   0.32549   0.00000  Uiso   1.00
O169   O     0.79373   0.10654   0.25000   0.00000  Uiso   1.00
O170   O     0.87292   0.10655   0.25000   0.00000  Uiso   1.00
O171   O     0.81306   0.16667   0.17451   0.00000  Uiso   1.00
O172   O     0.89225   0.16668   0.17451   0.00000  Uiso   1.00
H173   H     0.94898   0.15886   0.08469   0.00000  Uiso   1.00
O174   O     0.90646   0.04172   0.17765   0.00000  Uiso   1.00
H175   H     0.92067   0.02298   0.14725   0.00000  Uiso   1.00
H176   H     0.76425   0.03945   0.30329   0.00000  Uiso   1.00
H177   H     0.76373   0.29742   0.30247   0.00000  Uiso   1.00
O178   O     0.94547   0.23748   0.27782   0.00000  Uiso   1.00
H179   H     0.96678   0.26080   0.28112   0.00000  Uiso   1.00
O180   O     0.70056   0.23138   0.29835   0.00000  Uiso   1.00
H181   H     0.72151   0.21949   0.31747   0.00000  Uiso   1.00
O182   O     0.72476   0.10183   0.20125   0.00000  Uiso   1.00
H183   H     0.75639   0.11299   0.18352   0.00000  Uiso   1.00
O184   O     0.96625   0.10168   0.20233   0.00000  Uiso   1.00
H185   H     0.94582   0.11360   0.18259   0.00000  Uiso   1.00
H186   H     0.95058   0.19117   0.41773   0.00000  Uiso   1.00
H187   H     0.97117   0.16244   0.49052   0.00000  Uiso   1.00
O188   O     0.79162   0.14748   0.09122   0.00000  Uiso   1.00
H189   H     0.77754   0.13468   0.06470   0.00000  Uiso   1.00
H190   H     0.71969   0.19377   0.41173   0.00000  Uiso   1.00
O191   O     0.75886   0.21531   0.06443   0.00000  Uiso   1.00
H192   H     0.73655   0.23924   0.06955   0.00000  Uiso   1.00
O193   O     0.68788   0.21908   0.00726   0.00000  Uiso   1.00
H194   H     0.67848   0.21386   0.04468   0.00000  Uiso   1.00
O195   O     0.88931   0.22185   0.37103   0.00000  Uiso   1.00
H196   H     0.92017   0.23545   0.37053   0.00000  Uiso   1.00
O197   O     0.91263   0.28691   0.18727   0.00000  Uiso   1.00
H198   H     0.94207   0.30375   0.18198   0.00000  Uiso   1.00
C199   C     0.16684   0.57910   0.24952   0.00000  Uiso   1.00
C200   C     0.14788   0.51754   0.48846   0.00000  Uiso   1.00
C201   C     0.16300   0.51926   0.43412   0.00000  Uiso   1.00
C202   C     0.18255   0.50683   0.01462   0.00000  Uiso   1.00
C203   C     0.23201   0.50696   0.48727   0.00000  Uiso   1.00
C204   C     0.24619   0.51938   0.43658   0.00000  Uiso   1.00
C205   C     0.21157   0.52893   0.41145   0.00000  Uiso   1.00
C206   C     0.17004   0.49546   0.06680   0.00000  Uiso   1.00
C207   C     0.25424   0.49514   0.06547   0.00000  Uiso   1.00
C208   C     0.12817   0.51689   0.40590   0.00000  Uiso   1.00
C209   C     0.20717   0.64372   0.21594   0.00000  Uiso   1.00
C210   C     0.14141   0.50518   0.34954   0.00000  Uiso   1.00
C211   C     0.20584   0.35384   0.21371   0.00000  Uiso   1.00
C212   C     0.16717   0.37607   0.24721   0.00000  Uiso   1.00
C213   C     0.12788   0.35562   0.27832   0.00000  Uiso   1.00
C214   C     0.12762   0.64623   0.27789   0.00000  Uiso   1.00
C215   C     0.16733   0.62371   0.24763   0.00000  Uiso   1.00
C216   C     0.30453   0.53428   0.26689   0.00000  Uiso   1.00
C217   C     0.01910   0.53266   0.27151   0.00000  Uiso   1.00
C218   C     0.03016   0.46770   0.22748   0.00000  Uiso   1.00
C219   C     0.31435   0.46738   0.22845   0.00000  Uiso   1.00
C220   C     0.16686   0.42084   0.24896   0.00000  Uiso   1.00
C221   C     0.19206   0.49783   0.15029   0.00000  Uiso   1.00
C222   C     0.26704   0.49814   0.01214   0.00000  Uiso   1.00
C223   C     0.20568   0.49600   0.09350   0.00000  Uiso   1.00
C224   C     0.08019   0.52624   0.43246   0.00000  Uiso   1.00
C225   C     0.06713   0.53731   0.48532   0.00000  Uiso   1.00
C226   C     0.10120   0.53306   0.01404   0.00000  Uiso   1.00
Cu227  Cu    0.11978   0.49999   0.25000   0.00000  Uiso   1.00
Cu228  Cu    0.21355   0.50001   0.25000   0.00000  Uiso   1.00
N229   N     0.04931   0.49999   0.24999   0.00000  Uiso   1.00
N230   N     0.28402   0.50002   0.25000   0.00000  Uiso   1.00
O231   O     0.12708   0.56011   0.25001   0.00000  Uiso   1.00
O232   O     0.20627   0.56012   0.25001   0.00000  Uiso   1.00
O233   O     0.10775   0.49998   0.32549   0.00000  Uiso   1.00
O234   O     0.18694   0.49999   0.32549   0.00000  Uiso   1.00
O235   O     0.12706   0.43988   0.25000   0.00000  Uiso   1.00
O236   O     0.20625   0.43989   0.25000   0.00000  Uiso   1.00
O237   O     0.14640   0.50001   0.17451   0.00000  Uiso   1.00
O238   O     0.22559   0.50002   0.17451   0.00000  Uiso   1.00
H239   H     0.28231   0.49219   0.08469   0.00000  Uiso   1.00
O240   O     0.23979   0.37505   0.17765   0.00000  Uiso   1.00
H241   H     0.25400   0.35632   0.14725   0.00000  Uiso   1.00
H242   H     0.09759   0.37278   0.30329   0.00000  Uiso   1.00
H243   H     0.09707   0.63075   0.30247   0.00000  Uiso   1.00
O244   O     0.27881   0.57082   0.27782   0.00000  Uiso   1.00
H245   H     0.30012   0.59413   0.28112   0.00000  Uiso   1.00
O246   O     0.03390   0.56471   0.29835   0.00000  Uiso   1.00
H247   H     0.05484   0.55282   0.31747   0.00000  Uiso   1.00
O248   O     0.05809   0.43516   0.20125   0.00000  Uiso   1.00
H249   H     0.08973   0.44632   0.18352   0.00000  Uiso   1.00
O250   O     0.29958   0.43501   0.20233   0.00000  Uiso   1.00
H251   H     0.27915   0.44694   0.18259   0.00000  Uiso   1.00
H252   H     0.28391   0.52450   0.41773   0.00000  Uiso   1.00
H253   H     0.30450   0.49577   0.49052   0.00000  Uiso   1.00
O254   O     0.12495   0.48081   0.09122   0.00000  Uiso   1.00
H255   H     0.11088   0.46802   0.06470   0.00000  Uiso   1.00
H256   H     0.05302   0.52710   0.41173   0.00000  Uiso   1.00
O257   O     0.09220   0.54864   0.06443   0.00000  Uiso   1.00
H258   H     0.06988   0.57257   0.06955   0.00000  Uiso   1.00
O259   O     0.02121   0.55241   0.00726   0.00000  Uiso   1.00
H260   H     0.01181   0.54720   0.04468   0.00000  Uiso   1.00
O261   O     0.22265   0.55518   0.37103   0.00000  Uiso   1.00
H262   H     0.25351   0.56878   0.37053   0.00000  Uiso   1.00
O263   O     0.24596   0.62024   0.18727   0.00000  Uiso   1.00
H264   H     0.27540   0.63709   0.18198   0.00000  Uiso   1.00
C265   C     0.50017   0.57910   0.24952   0.00000  Uiso   1.00
C266   C     0.48122   0.51754   0.48846   0.00000  Uiso   1.00
C267   C     0.49634   0.51926   0.43412   0.00000  Uiso   1.00
C268   C     0.51588   0.50683   0.01462   0.00000  Uiso   1.00
C269   C     0.56535   0.50696   0.48727   0.00000  Uiso   1.00
C270   C     0.57952   0.51938   0.43658   0.00000  Uiso   1.00
C271   C     0.54490   0.52893   0.41145   0.00000  Uiso   1.00
C272   C     0.50337   0.49546   0.06680   0.00000  Uiso   1.00
C273   C     0.58758   0.49514   0.06547   0.00000  Uiso   1.00
C274   C     0.46150   0.51689   0.40590   0.00000  Uiso   1.00
C275   C     0.54050   0.64372   0.21594   0.00000  Uiso   1.00
C276   C     0.47474   0.50518   0.34954   0.00000  Uiso   1.00
C277   C     0.53918   0.35384   0.21371   0.00000  Uiso   1.00
C278   C     0.50050   0.37607   0.24721   0.00000  Uiso   1.00
C279   C     0.46121   0.35562   0.27832   0.00000  Uiso   1.00
C280   C     0.46096   0.64623   0.27789   0.00000  Uiso   1.00
C281   C     0.50066   0.62371   0.24763   0.00000  Uiso   1.00
C282   C     0.63786   0.53428   0.26689   0.00000  Uiso   1.00
C283   C     0.35243   0.53266   0.27151   0.00000  Uiso   1.00
C284   C     0.36349   0.46770   0.22748   0.00000  Uiso   1.00
C285   C     0.64769   0.46738   0.22845   0.00000  Uiso   1.00
C286   C     0.50019   0.42084   0.24896   0.00000  Uiso   1.00
C287   C     0.52540   0.49783   0.15029   0.00000  Uiso   1.00
C288   C     0.60037   0.49814   0.01214   0.00000  Uiso   1.00
C289   C     0.53902   0.49600   0.09350   0.00000  Uiso   1.00
C290   C     0.41352   0.52624   0.43246   0.00000  Uiso   1.00
C291   C     0.40047   0.53731   0.48532   0.00000  Uiso   1.00
C292   C     0.43453   0.53306   0.01404   0.00000  Uiso   1.00
Cu293  Cu    0.45311   0.49999   0.25000   0.00000  Uiso   1.00
Cu294  Cu    0.54689   0.50001   0.25000   0.00000  Uiso   1.00
N295   N     0.38265   0.49999   0.24999   0.00000  Uiso   1.00
N296   N     0.61735   0.50002   0.25000   0.00000  Uiso   1.00
O297   O     0.46042   0.56011   0.25001   0.00000  Uiso   1.00
O298   O     0.53961   0.56012   0.25001   0.00000  Uiso   1.00
O299   O     0.44108   0.49998   0.32549   0.00000  Uiso   1.00
O300   O     0.52027   0.49999   0.32549   0.00000  Uiso   1.00
O301   O     0.46039   0.43988   0.25000   0.00000  Uiso   1.00
O302   O     0.53958   0.43989   0.25000   0.00000  Uiso   1.00
O303   O     0.47973   0.50001   0.17451   0.00000  Uiso   1.00
O304   O     0.55892   0.50002   0.17451   0.00000  Uiso   1.00
H305   H     0.61564   0.49219   0.08469   0.00000  Uiso   1.00
O306   O     0.57313   0.37505   0.17765   0.00000  Uiso   1.00
H307   H     0.58734   0.35632   0.14725   0.00000  Uiso   1.00
H308   H     0.43092   0.37278   0.30329   0.00000  Uiso   1.00
H309   H     0.43040   0.63075   0.30247   0.00000  Uiso   1.00
O310   O     0.61214   0.57082   0.27782   0.00000  Uiso   1.00
H311   H     0.63345   0.59413   0.28112   0.00000  Uiso   1.00
O312   O     0.36723   0.56471   0.29835   0.00000  Uiso   1.00
H313   H     0.38818   0.55282   0.31747   0.00000  Uiso   1.00
O314   O     0.39142   0.43516   0.20125   0.00000  Uiso   1.00
H315   H     0.42306   0.44632   0.18352   0.00000  Uiso   1.00
O316   O     0.63291   0.43501   0.20233   0.00000  Uiso   1.00
H317   H     0.61248   0.44694   0.18259   0.00000  Uiso   1.00
H318   H     0.61724   0.52450   0.41773   0.00000  Uiso   1.00
H319   H     0.63783   0.49577   0.49052   0.00000  Uiso   1.00
O320   O     0.45828   0.48081   0.09122   0.00000  Uiso   1.00
H321   H     0.44421   0.46802   0.06470   0.00000  Uiso   1.00
H322   H     0.38635   0.52710   0.41173   0.00000  Uiso   1.00
O323   O     0.42553   0.54864   0.06443   0.00000  Uiso   1.00
H324   H     0.40322   0.57257   0.06955   0.00000  Uiso   1.00
O325   O     0.35455   0.55241   0.00726   0.00000  Uiso   1.00
H326   H     0.34514   0.54720   0.04468   0.00000  Uiso   1.00
O327   O     0.55598   0.55518   0.37103   0.00000  Uiso   1.00
H328   H     0.58684   0.56878   0.37053   0.00000  Uiso   1.00
O329   O     0.57929   0.62024   0.18727   0.00000  Uiso   1.00
H330   H     0.60873   0.63709   0.18198   0.00000  Uiso   1.00
C331   C     0.83351   0.57910   0.24952   0.00000  Uiso   1.00
C332   C     0.81455   0.51754   0.48846   0.00000  Uiso   1.00
C333   C     0.82967   0.51926   0.43412   0.00000  Uiso   1.00
C334   C     0.84921   0.50683   0.01462   0.00000  Uiso   1.00
C335   C     0.89868   0.50696   0.48727   0.00000  Uiso   1.00
C336   C     0.91285   0.51938   0.43658   0.00000  Uiso   1.00
C337   C     0.87823   0.52893   0.41145   0.00000  Uiso   1.00
C338   C     0.83671   0.49546   0.06680   0.00000  Uiso   1.00
C339   C     0.92091   0.49514   0.06547   0.00000  Uiso   1.00
C340   C     0.79484   0.51689   0.40590   0.00000  Uiso   1.00
C341   C     0.87384   0.64372   0.21594   0.00000  Uiso   1.00
C342   C     0.80807   0.50518   0.34954   0.00000  Uiso   1.00
C343   C     0.87251   0.35384   0.21371   0.00000  Uiso   1.00
C344   C     0.83383   0.37607   0.24721   0.00000  Uiso   1.00
C345   C     0.79455   0.35562   0.27832   0.00000  Uiso   1.00
C346   C     0.79429   0.64623   0.27789   0.00000  Uiso   1.00
C347   C     0.83399   0.62371   0.24763   0.00000  Uiso   1.00
C348   C     0.97119   0.53428   0.26689   0.00000  Uiso   1.00
C349   C     0.68576   0.53266   0.27151   0.00000  Uiso   1.00
C350   C     0.69682   0.46770   0.22748   0.00000  Uiso   1.00
C351   C     0.98102   0.46738   0.22845   0.00000  Uiso   1.00
C352   C     0.83353   0.42084   0.24896   0.00000  Uiso   1.00
C353   C     0.85873   0.49783   0.15029   0.00000  Uiso   1.00
C354   C     0.93371   0.49814   0.01214   0.00000  Uiso   1.00
C355   C     0.87235   0.49600   0.09350   0.00000  Uiso   1.00
C356   C     0.74685   0.52624   0.43246   0.00000  Uiso   1.00
C357   C     0.73380   0.53731   0.48532   0.00000  Uiso   1.00
C358   C     0.76787   0.53306   0.01404   0.00000  Uiso   1.00
Cu359  Cu    0.78645   0.49999   0.25000   0.00000  Uiso   1.00
Cu360  Cu    0.88022   0.50001   0.25000   0.00000  Uiso   1.00
N361   N     0.71598   0.49999   0.24999   0.00000  Uiso   1.00
N362   N     0.95069   0.50002   0.25000   0.00000  Uiso   1.00
O363   O     0.79375   0.56011   0.25001   0.00000  Uiso   1.00
O364   O     0.87294   0.56012   0.25001   0.00000  Uiso   1.00
O365   O     0.77441   0.49998   0.32549   0.00000  Uiso   1.00
O366   O     0.85360   0.49999   0.32549   0.00000  Uiso   1.00
O367   O     0.79373   0.43988   0.25000   0.00000  Uiso   1.00
O368   O     0.87292   0.43989   0.25000   0.00000  Uiso   1.00
O369   O     0.81306   0.50001   0.17451   0.00000  Uiso   1.00
O370   O     0.89225   0.50002   0.17451   0.00000  Uiso   1.00
H371   H     0.94898   0.49219   0.08469   0.00000  Uiso   1.00
O372   O     0.90646   0.37505   0.17765   0.00000  Uiso   1.00
H373   H     0.92067   0.35632   0.14725   0.00000  Uiso   1.00
H374   H     0.76425   0.37278   0.30329   0.00000  Uiso   1.00
H375   H     0.76373   0.63075   0.30247   0.00000  Uiso   1.00
O376   O     0.94547   0.57082   0.27782   0.00000  Uiso   1.00
H377   H     0.96678   0.59413   0.28112   0.00000  Uiso   1.00
O378   O     0.70056   0.56471   0.29835   0.00000  Uiso   1.00
H379   H     0.72151   0.55282   0.31747   0.00000  Uiso   1.00
O380   O     0.72476   0.43516   0.20125   0.00000  Uiso   1.00
H381   H     0.75639   0.44632   0.18352   0.00000  Uiso   1.00
O382   O     0.96625   0.43501   0.20233   0.00000  Uiso   1.00
H383   H     0.94582   0.44694   0.18259   0.00000  Uiso   1.00
H384   H     0.95058   0.52450   0.41773   0.00000  Uiso   1.00
H385   H     0.97117   0.49577   0.49052   0.00000  Uiso   1.00
O386   O     0.79162   0.48081   0.09122   0.00000  Uiso   1.00
H387   H     0.77754   0.46802   0.06470   0.00000  Uiso   1.00
H388   H     0.71969   0.52710   0.41173   0.00000  Uiso   1.00
O389   O     0.75886   0.54864   0.06443   0.00000  Uiso   1.00
H390   H     0.73655   0.57257   0.06955   0.00000  Uiso   1.00
O391   O     0.68788   0.55241   0.00726   0.00000  Uiso   1.00
H392   H     0.67848   0.54720   0.04468   0.00000  Uiso   1.00
O393   O     0.88931   0.55518   0.37103   0.00000  Uiso   1.00
H394   H     0.92017   0.56878   0.37053   0.00000  Uiso   1.00
O395   O     0.91263   0.62024   0.18727   0.00000  Uiso   1.00
H396   H     0.94207   0.63709   0.18198   0.00000  Uiso   1.00
C397   C     0.16684   0.91244   0.24952   0.00000  Uiso   1.00
C398   C     0.14788   0.85087   0.48846   0.00000  Uiso   1.00
C399   C     0.16300   0.85260   0.43412   0.00000  Uiso   1.00
C400   C     0.18255   0.84016   0.01462   0.00000  Uiso   1.00
C401   C     0.23201   0.84029   0.48727   0.00000  Uiso   1.00
C402   C     0.24619   0.85271   0.43658   0.00000  Uiso   1.00
C403   C     0.21157   0.86227   0.41145   0.00000  Uiso   1.00
C404   C     0.17004   0.82879   0.06680   0.00000  Uiso   1.00
C405   C     0.25424   0.82847   0.06547   0.00000  Uiso   1.00
C406   C     0.12817   0.85023   0.40590   0.00000  Uiso   1.00
C407   C     0.20717   0.97705   0.21594   0.00000  Uiso   1.00
C408   C     0.14141   0.83851   0.34954   0.00000  Uiso   1.00
C409   C     0.20584   0.68717   0.21371   0.00000  Uiso   1.00
C410   C     0.16717   0.70941   0.24721   0.00000  Uiso   1.00
C411   C     0.12788   0.68895   0.27832   0.00000  Uiso   1.00
C412   C     0.12762   0.97956   0.27789   0.00000  Uiso   1.00
C413   C     0.16733   0.95704   0.24763   0.00000  Uiso   1.00
C414   C     0.30453   0.86761   0.26689   0.00000  Uiso   1.00
C415   C     0.01910   0.86600   0.27151   0.00000  Uiso   1.00
C416   C     0.03016   0.80103   0.22748   0.00000  Uiso   1.00
C417   C     0.31435   0.80071   0.22845   0.00000  Uiso   1.00
C418   C     0.16686   0.75417   0.24896   0.00000  Uiso   1.00
C419   C     0.19206   0.83116   0.15029   0.00000  Uiso   1.00
C420   C     0.26704   0.83147   0.01214   0.00000  Uiso   1.00
C421   C     0.20568   0.82933   0.09350   0.00000  Uiso   1.00
C422   C     0.08019   0.85958   0.43246   0.00000  Uiso   1.00
C423   C     0.06713   0.87064   0.48532   0.00000  Uiso   1.00
C424   C     0.10120   0.86639   0.01404   0.00000  Uiso   1.00
Cu425  Cu    0.11978   0.83333   0.25000   0.00000  Uiso   1.00
Cu426  Cu    0.21355   0.83334   0.25000   0.00000  Uiso   1.00
N427   N     0.04931   0.83332   0.24999   0.00000  Uiso   1.00
N428   N     0.28402   0.83335   0.25000   0.00000  Uiso   1.00
O429   O     0.12708   0.89345   0.25001   0.00000  Uiso   1.00
O430   O     0.20627   0.89346   0.25001   0.00000  Uiso   1.00
O431   O     0.10775   0.83332   0.32549   0.00000  Uiso   1.00
O432   O     0.18694   0.83333   0.32549   0.00000  Uiso   1.00
O433   O     0.12706   0.77321   0.25000   0.00000  Uiso   1.00
O434   O     0.20625   0.77322   0.25000   0.00000  Uiso   1.00
O435   O     0.14640   0.83334   0.17451   0.00000  Uiso   1.00
O436   O     0.22559   0.83335   0.17451   0.00000  Uiso   1.00
H437   H     0.28231   0.82552   0.08469   0.00000  Uiso   1.00
O438   O     0.23979   0.70838   0.17765   0.00000  Uiso   1.00
H439   H     0.25400   0.68965   0.14725   0.00000  Uiso   1.00
H440   H     0.09759   0.70611   0.30329   0.00000  Uiso   1.00
H441   H     0.09707   0.96409   0.30247   0.00000  Uiso   1.00
O442   O     0.27881   0.90415   0.27782   0.00000  Uiso   1.00
H443   H     0.30012   0.92747   0.28112   0.00000  Uiso   1.00
O444   O     0.03390   0.89804   0.29835   0.00000  Uiso   1.00
H445   H     0.05484   0.88616   0.31747   0.00000  Uiso   1.00
O446   O     0.05809   0.76850   0.20125   0.00000  Uiso   1.00
H447   H     0.08973   0.77966   0.18352   0.00000  Uiso   1.00
O448   O     0.29958   0.76835   0.20233   0.00000  Uiso   1.00
H449   H     0.27915   0.78027   0.18259   0.00000  Uiso   1.00
H450   H     0.28391   0.85784   0.41773   0.00000  Uiso   1.00
H451   H     0.30450   0.82910   0.49052   0.00000  Uiso   1.00
O452   O     0.12495   0.81414   0.09122   0.00000  Uiso   1.00
H453   H     0.11088   0.80135   0.06470   0.00000  Uiso   1.00
H454   H     0.05302   0.86044   0.41173   0.00000  Uiso   1.00
O455   O     0.09220   0.88197   0.06443   0.00000  Uiso   1.00
H456   H     0.06988   0.90590   0.06955   0.00000  Uiso   1.00
O457   O     0.02121   0.88574   0.00726   0.00000  Uiso   1.00
H458   H     0.01181   0.88053   0.04468   0.00000  Uiso   1.00
O459   O     0.22265   0.88851   0.37103   0.00000  Uiso   1.00
H460   H     0.25351   0.90212   0.37053   0.00000  Uiso   1.00
O461   O     0.24596   0.95357   0.18727   0.00000  Uiso   1.00
H462   H     0.27540   0.97042   0.18198   0.00000  Uiso   1.00
C463   C     0.50017   0.91244   0.24952   0.00000  Uiso   1.00
C464   C     0.48122   0.85087   0.48846   0.00000  Uiso   1.00
C465   C     0.49634   0.85260   0.43412   0.00000  Uiso   1.00
C466   C     0.51588   0.84016   0.01462   0.00000  Uiso   1.00
C467   C     0.56535   0.84029   0.48727   0.00000  Uiso   1.00
C468   C     0.57952   0.85271   0.43658   0.00000  Uiso   1.00
C469   C     0.54490   0.86227   0.41145   0.00000  Uiso   1.00
C470   C     0.50337   0.82879   0.06680   0.00000  Uiso   1.00
C471   C     0.58758   0.82847   0.06547   0.00000  Uiso   1.00
C472   C     0.46150   0.85023   0.40590   0.00000  Uiso   1.00
C473   C     0.54050   0.97705   0.21594   0.00000  Uiso   1.00
C474   C     0.47474   0.83851   0.34954   0.00000  Uiso   1.00
C475   C     0.53918   0.68717   0.21371   0.00000  Uiso   1.00
C476   C     0.50050   0.70941   0.24721   0.00000  Uiso   1.00
C477   C     0.46121   0.68895   0.27832   0.00000  Uiso   1.00
C478   C     0.46096   0.97956   0.27789   0.00000  Uiso   1.00
C479   C     0.50066   0.95704   0.24763   0.00000  Uiso   1.00
C480   C     0.63786   0.86761   0.26689   0.00000  Uiso   1.00
C481   C     0.35243   0.86600   0.27151   0.00000  Uiso   1.00
C482   C     0.36349   0.80103   0.22748   0.00000  Uiso   1.00
C483   C     0.64769   0.80071   0.22845   0.00000  Uiso   1.00
C484   C     0.50019   0.75417   0.24896   0.00000  Uiso   1.00
C485   C     0.52540   0.83116   0.15029   0.00000  Uiso   1.00
C486   C     0.60037   0.83147   0.01214   0.00000  Uiso   1.00
C487   C     0.53902   0.82933   0.09350   0.00000  Uiso   1.00
C488   C     0.41352   0.85958   0.43246   0.00000  Uiso   1.00
C489   C     0.40047   0.87064   0.48532   0.00000  Uiso   1.00
C490   C     0.43453   0.86639   0.01404   0.00000  Uiso   1.00
Cu491  Cu    0.45311   0.83333   0.25000   0.00000  Uiso   1.00
Cu492  Cu    0.54689   0.83334   0.25000   0.00000  Uiso   1.00
N493   N     0.38265   0.83332   0.24999   0.00000  Uiso   1.00
N494   N     0.61735   0.83335   0.25000   0.00000  Uiso   1.00
O495   O     0.46042   0.89345   0.25001   0.00000  Uiso   1.00
O496   O     0.53961   0.89346   0.25001   0.00000  Uiso   1.00
O497   O     0.44108   0.83332   0.32549   0.00000  Uiso   1.00
O498   O     0.52027   0.83333   0.32549   0.00000  Uiso   1.00
O499   O     0.46039   0.77321   0.25000   0.00000  Uiso   1.00
O500   O     0.53958   0.77322   0.25000   0.00000  Uiso   1.00
O501   O     0.47973   0.83334   0.17451   0.00000  Uiso   1.00
O502   O     0.55892   0.83335   0.17451   0.00000  Uiso   1.00
H503   H     0.61564   0.82552   0.08469   0.00000  Uiso   1.00
O504   O     0.57313   0.70838   0.17765   0.00000  Uiso   1.00
H505   H     0.58734   0.68965   0.14725   0.00000  Uiso   1.00
H506   H     0.43092   0.70611   0.30329   0.00000  Uiso   1.00
H507   H     0.43040   0.96409   0.30247   0.00000  Uiso   1.00
O508   O     0.61214   0.90415   0.27782   0.00000  Uiso   1.00
H509   H     0.63345   0.92747   0.28112   0.00000  Uiso   1.00
O510   O     0.36723   0.89804   0.29835   0.00000  Uiso   1.00
H511   H     0.38818   0.88616   0.31747   0.00000  Uiso   1.00
O512   O     0.39142   0.76850   0.20125   0.00000  Uiso   1.00
H513   H     0.42306   0.77966   0.18352   0.00000  Uiso   1.00
O514   O     0.63291   0.76835   0.20233   0.00000  Uiso   1.00
H515   H     0.61248   0.78027   0.18259   0.00000  Uiso   1.00
H516   H     0.61724   0.85784   0.41773   0.00000  Uiso   1.00
H517   H     0.63783   0.82910   0.49052   0.00000  Uiso   1.00
O518   O     0.45828   0.81414   0.09122   0.00000  Uiso   1.00
H519   H     0.44421   0.80135   0.06470   0.00000  Uiso   1.00
H520   H     0.38635   0.86044   0.41173   0.00000  Uiso   1.00
O521   O     0.42553   0.88197   0.06443   0.00000  Uiso   1.00
H522   H     0.40322   0.90590   0.06955   0.00000  Uiso   1.00
O523   O     0.35455   0.88574   0.00726   0.00000  Uiso   1.00
H524   H     0.34514   0.88053   0.04468   0.00000  Uiso   1.00
O525   O     0.55598   0.88851   0.37103   0.00000  Uiso   1.00
H526   H     0.58684   0.90212   0.37053   0.00000  Uiso   1.00
O527   O     0.57929   0.95357   0.18727   0.00000  Uiso   1.00
H528   H     0.60873   0.97042   0.18198   0.00000  Uiso   1.00
C529   C     0.83351   0.91244   0.24952   0.00000  Uiso   1.00
C530   C     0.81455   0.85087   0.48846   0.00000  Uiso   1.00
C531   C     0.82967   0.85260   0.43412   0.00000  Uiso   1.00
C532   C     0.84921   0.84016   0.01462   0.00000  Uiso   1.00
C533   C     0.89868   0.84029   0.48727   0.00000  Uiso   1.00
C534   C     0.91285   0.85271   0.43658   0.00000  Uiso   1.00
C535   C     0.87823   0.86227   0.41145   0.00000  Uiso   1.00
C536   C     0.83671   0.82879   0.06680   0.00000  Uiso   1.00
C537   C     0.92091   0.82847   0.06547   0.00000  Uiso   1.00
C538   C     0.79484   0.85023   0.40590   0.00000  Uiso   1.00
C539   C     0.87384   0.97705   0.21594   0.00000  Uiso   1.00
C540   C     0.80807   0.83851   0.34954   0.00000  Uiso   1.00
C541   C     0.87251   0.68717   0.21371   0.00000  Uiso   1.00
C542   C     0.83383   0.70941   0.24721   0.00000  Uiso   1.00
C543   C     0.79455   0.68895   0.27832   0.00000  Uiso   1.00
C544   C     0.79429   0.97956   0.27789   0.00000  Uiso   1.00
C545   C     0.83399   0.95704   0.24763   0.00000  Uiso   1.00
C546   C     0.97119   0.86761   0.26689   0.00000  Uiso   1.00
C547   C     0.68576   0.86600   0.27151   0.00000  Uiso   1.00
C548   C     0.69682   0.80103   0.22748   0.00000  Uiso   1.00
C549   C     0.98102   0.80071   0.22845   0.00000  Uiso   1.00
C550   C     0.83353   0.75417   0.24896   0.00000  Uiso   1.00
C551   C     0.85873   0.83116   0.15029   0.00000  Uiso   1.00
C552   C     0.93371   0.83147   0.01214   0.00000  Uiso   1.00
C553   C     0.87235   0.82933   0.09350   0.00000  Uiso   1.00
C554   C     0.74685   0.85958   0.43246   0.00000  Uiso   1.00
C555   C     0.73380   0.87064   0.48532   0.00000  Uiso   1.00
C556   C     0.76787   0.86639   0.01404   0.00000  Uiso   1.00
Cu557  Cu    0.78645   0.83333   0.25000   0.00000  Uiso   1.00
Cu558  Cu    0.88022   0.83334   0.25000   0.00000  Uiso   1.00
N559   N     0.71598   0.83332   0.24999   0.00000  Uiso   1.00
N560   N     0.95069   0.83335   0.25000   0.00000  Uiso   1.00
O561   O     0.79375   0.89345   0.25001   0.00000  Uiso   1.00
O562   O     0.87294   0.89346   0.25001   0.00000  Uiso   1.00
O563   O     0.77441   0.83332   0.32549   0.00000  Uiso   1.00
O564   O     0.85360   0.83333   0.32549   0.00000  Uiso   1.00
O565   O     0.79373   0.77321   0.25000   0.00000  Uiso   1.00
O566   O     0.87292   0.77322   0.25000   0.00000  Uiso   1.00
O567   O     0.81306   0.83334   0.17451   0.00000  Uiso   1.00
O568   O     0.89225   0.83335   0.17451   0.00000  Uiso   1.00
H569   H     0.94898   0.82552   0.08469   0.00000  Uiso   1.00
O570   O     0.90646   0.70838   0.17765   0.00000  Uiso   1.00
H571   H     0.92067   0.68965   0.14725   0.00000  Uiso   1.00
H572   H     0.76425   0.70611   0.30329   0.00000  Uiso   1.00
H573   H     0.76373   0.96409   0.30247   0.00000  Uiso   1.00
O574   O     0.94547   0.90415   0.27782   0.00000  Uiso   1.00
H575   H     0.96678   0.92747   0.28112   0.00000  Uiso   1.00
O576   O     0.70056   0.89804   0.29835   0.00000  Uiso   1.00
H577   H     0.72151   0.88616   0.31747   0.00000  Uiso   1.00
O578   O     0.72476   0.76850   0.20125   0.00000  Uiso   1.00
H579   H     0.75639   0.77966   0.18352   0.00000  Uiso   1.00
O580   O     0.96625   0.76835   0.20233   0.00000  Uiso   1.00
H581   H     0.94582   0.78027   0.18259   0.00000  Uiso   1.00
H582   H     0.95058   0.85784   0.41773   0.00000  Uiso   1.00
H583   H     0.97117   0.82910   0.49052   0.00000  Uiso   1.00
O584   O     0.79162   0.81414   0.09122   0.00000  Uiso   1.00
H585   H     0.77754   0.80135   0.06470   0.00000  Uiso   1.00
H586   H     0.71969   0.86044   0.41173   0.00000  Uiso   1.00
O587   O     0.75886   0.88197   0.06443   0.00000  Uiso   1.00
H588   H     0.73655   0.90590   0.06955   0.00000  Uiso   1.00
O589   O     0.68788   0.88574   0.00726   0.00000  Uiso   1.00
H590   H     0.67848   0.88053   0.04468   0.00000  Uiso   1.00
O591   O     0.88931   0.88851   0.37103   0.00000  Uiso   1.00
H592   H     0.92017   0.90212   0.37053   0.00000  Uiso   1.00
O593   O     0.91263   0.95357   0.18727   0.00000  Uiso   1.00
H594   H     0.94207   0.97042   0.18198   0.00000  Uiso   1.00
C595   C     0.16684   0.24577   0.74952   0.00000  Uiso   1.00
C596   C     0.14788   0.18421   0.98846   0.00000  Uiso   1.00
C597   C     0.16300   0.18593   0.93412   0.00000  Uiso   1.00
C598   C     0.18255   0.17350   0.51462   0.00000  Uiso   1.00
C599   C     0.23201   0.17363   0.98727   0.00000  Uiso   1.00
C600   C     0.24619   0.18605   0.93658   0.00000  Uiso   1.00
C601   C     0.21157   0.19560   0.91145   0.00000  Uiso   1.00
C602   C     0.17004   0.16213   0.56680   0.00000  Uiso   1.00
C603   C     0.25424   0.16180   0.56547   0.00000  Uiso   1.00
C604   C     0.12817   0.18356   0.90590   0.00000  Uiso   1.00
C605   C     0.20717   0.31039   0.71594   0.00000  Uiso   1.00
C606   C     0.14141   0.17184   0.84954   0.00000  Uiso   1.00
C607   C     0.20584   0.02051   0.71371   0.00000  Uiso   1.00
C608   C     0.16717   0.04274   0.74721   0.00000  Uiso   1.00
C609   C     0.12788   0.02228   0.77832   0.00000  Uiso   1.00
C610   C     0.12762   0.31290   0.77789   0.00000  Uiso   1.00
C611   C     0.16733   0.29037   0.74763   0.00000  Uiso   1.00
C612   C     0.30453   0.20094   0.76689   0.00000  Uiso   1.00
C613   C     0.01910   0.19933   0.77151   0.00000  Uiso   1.00
C614   C     0.03016   0.13437   0.72748   0.00000  Uiso   1.00
C615   C     0.31435   0.13404   0.72845   0.00000  Uiso   1.00
C616   C     0.16686   0.08751   0.74896   0.00000  Uiso   1.00
C617   C     0.19206   0.16449   0.65029   0.00000  Uiso   1.00
C618   C     0.26704   0.16480   0.51214   0.00000  Uiso   1.00
C619   C     0.20568   0.16267   0.59350   0.00000  Uiso   1.00
C620   C     0.08019   0.19291   0.93246   0.00000  Uiso   1.00
C621   C     0.06713   0.20398   0.98532   0.00000  Uiso   1.00
C622   C     0.10120   0.19972   0.51404   0.00000  Uiso   1.00
Cu623  Cu    0.11978   0.16666   0.75000   0.00000  Uiso   1.00
Cu624  Cu    0.21355   0.16667   0.75000   0.00000  Uiso   1.00
N625   N     0.04931   0.16666   0.74999   0.00000  Uiso   1.00
N626   N     0.28402   0.16669   0.75000   0.00000  Uiso   1.00
O627   O     0.12708   0.22678   0.75001   0.00000  Uiso   1.00
O628   O     0.20627   0.22679   0.75001   0.00000  Uiso   1.00
O629   O     0.10775   0.16665   0.82549   0.00000  Uiso   1.00
O630   O     0.18694   0.16666   0.82549   0.00000  Uiso   1.00
O631   O     0.12706   0.10654   0.75000   0.00000  Uiso   1.00
O632   O     0.20625   0.10655   0.75000   0.00000  Uiso   1.00
O633   O     0.14640   0.16667   0.67451   0.00000  Uiso   1.00
O634   O     0.22559   0.16668   0.67451   0.00000  Uiso   1.00
H635   H     0.28231   0.15886   0.58469   0.00000  Uiso   1.00
O636   O     0.23979   0.04172   0.67765   0.00000  Uiso   1.00
H637   H     0.25400   0.02298   0.64725   0.00000  Uiso   1.00
H638   H     0.09759   0.03945   0.80329   0.00000  Uiso   1.00
H639   H     0.09707   0.29742   0.80247   0.00000  Uiso   1.00
O640   O     0.27881   0.23748   0.77782   0.00000  Uiso   1.00
H641   H     0.30012   0.26080   0.78112   0.00000  Uiso   1.00
O642   O     0.03390   0.23138   0.79835   0.00000  Uiso   1.00
H643   H     0.05484   0.21949   0.81747   0.00000  Uiso   1.00
O644   O     0.05809   0.10183   0.70125   0.00000  Uiso   1.00
H645   H     0.08973   0.11299   0.68352   0.00000  Uiso   1.00
O646   O     0.29958   0.10168   0.70233   0.00000  Uiso   1.00
H647   H     0.27915   0.11360   0.68259   0.00000  Uiso   1.00
H648   H     0.28391   0.19117   0.91773   0.00000  Uiso   1.00
H649   H     0.30450   0.16244   0.99052   0.00000  Uiso   1.00
O650   O     0.12495   0.14748   0.59122   0.00000  Uiso   1.00
H651   H     0.11088   0.13468   0.56470   0.00000  Uiso   1.00
H652   H     0.05302   0.19377   0.91173   0.00000  Uiso   1.00
O653   O     0.09220   0.21531   0.56443   0.00000  Uiso   1.00
H654   H     0.06988   0.23924   0.56955   0.00000  Uiso   1.00
O655   O     0.02121   0.21908   0.50726   0.00000  Uiso   1.00
H656   H     0.01181   0.21386   0.54468   0.00000  Uiso   1.00
O657   O     0.22265   0.22185   0.87103   0.00000  Uiso   1.00
H658   H     0.25351   0.23545   0.87053   0.00000  Uiso   1.00
O659   O     0.24596   0.28691   0.68727   0.00000  Uiso   1.00
H660   H     0.27540   0.30375   0.68198   0.00000  Uiso   1.00
C661   C     0.50017   0.24577   0.74952   0.00000  Uiso   1.00
C662   C     0.48122   0.18421   0.98846   0.00000  Uiso   1.00
C663   C     0.49634   0.18593   0.93412   0.00000  Uiso   1.00
C664   C     0.51588   0.17350   0.51462   0.00000  Uiso   1.00
C665   C     0.56535   0.17363   0.98727   0.00000  Uiso   1.00
C666   C     0.57952   0.18605   0.93658   0.00000  Uiso   1.00
C667   C     0.54490   0.19560   0.91145   0.00000  Uiso   1.00
C668   C     0.50337   0.16213   0.56680   0.00000  Uiso   1.00
C669   C     0.58758   0.16180   0.56547   0.00000  Uiso   1.00
C670   C     0.46150   0.18356   0.90590   0.00000  Uiso   1.00
C671   C     0.54050   0.31039   0.71594   0.00000  Uiso   1.00
C672   C     0.47474   0.17184   0.84954   0.00000  Uiso   1.00
C673   C     0.53918   0.02051   0.71371   0.00000  Uiso   1.00
C674   C     0.50050   0.04274   0.74721   0.00000  Uiso   1.00
C675   C     0.46121   0.02228   0.77832   0.00000  Uiso   1.00
C676   C     0.46096   0.31290   0.77789   0.00000  Uiso   1.00
C677   C     0.50066   0.29037   0.74763   0.00000  Uiso   1.00
C678   C     0.63786   0.20094   0.76689   0.00000  Uiso   1.00
C679   C     0.35243   0.19933   0.77151   0.00000  Uiso   1.00
C680   C     0.36349   0.13437   0.72748   0.00000  Uiso   1.00
C681   C     0.64769   0.13404   0.72845   0.00000  Uiso   1.00
C682   C     0.50019   0.08751   0.74896   0.00000  Uiso   1.00
C683   C     0.52540   0.16449   0.65029   0.00000  Uiso   1.00
C684   C     0.60037   0.16480   0.51214   0.00000  Uiso   1.00
C685   C     0.53902   0.16267   0.59350   0.00000  Uiso   1.00
C686   C     0.41352   0.19291   0.93246   0.00000  Uiso   1.00
C687   C     0.40047   0.20398   0.98532   0.00000  Uiso   1.00
C688   C     0.43453   0.19972   0.51404   0.00000  Uiso   1.00
Cu689  Cu    0.45311   0.16666   0.75000   0.00000  Uiso   1.00
Cu690  Cu    0.54689   0.16667   0.75000   0.00000  Uiso   1.00
N691   N     0.38265   0.16666   0.74999   0.00000  Uiso   1.00
N692   N     0.61735   0.16669   0.75000   0.00000  Uiso   1.00
O693   O     0.46042   0.22678   0.75001   0.00000  Uiso   1.00
O694   O     0.53961   0.22679   0.75001   0.00000  Uiso   1.00
O695   O     0.44108   0.16665   0.82549   0.00000  Uiso   1.00
O696   O     0.52027   0.16666   0.82549   0.00000  Uiso   1.00
O697   O     0.46039   0.10654   0.75000   0.00000  Uiso   1.00
O698   O     0.53958   0.10655   0.75000   0.00000  Uiso   1.00
O699   O     0.47973   0.16667   0.67451   0.00000  Uiso   1.00
O700   O     0.55892   0.16668   0.67451   0.00000  Uiso   1.00
H701   H     0.61564   0.15886   0.58469   0.00000  Uiso   1.00
O702   O     0.57313   0.04172   0.67765   0.00000  Uiso   1.00
H703   H     0.58734   0.02298   0.64725   0.00000  Uiso   1.00
H704   H     0.43092   0.03945   0.80329   0.00000  Uiso   1.00
H705   H     0.43040   0.29742   0.80247   0.00000  Uiso   1.00
O706   O     0.61214   0.23748   0.77782   0.00000  Uiso   1.00
H707   H     0.63345   0.26080   0.78112   0.00000  Uiso   1.00
O708   O     0.36723   0.23138   0.79835   0.00000  Uiso   1.00
H709   H     0.38818   0.21949   0.81747   0.00000  Uiso   1.00
O710   O     0.39142   0.10183   0.70125   0.00000  Uiso   1.00
H711   H     0.42306   0.11299   0.68352   0.00000  Uiso   1.00
O712   O     0.63291   0.10168   0.70233   0.00000  Uiso   1.00
H713   H     0.61248   0.11360   0.68259   0.00000  Uiso   1.00
H714   H     0.61724   0.19117   0.91773   0.00000  Uiso   1.00
H715   H     0.63783   0.16244   0.99052   0.00000  Uiso   1.00
O716   O     0.45828   0.14748   0.59122   0.00000  Uiso   1.00
H717   H     0.44421   0.13468   0.56470   0.00000  Uiso   1.00
H718   H     0.38635   0.19377   0.91173   0.00000  Uiso   1.00
O719   O     0.42553   0.21531   0.56443   0.00000  Uiso   1.00
H720   H     0.40322   0.23924   0.56955   0.00000  Uiso   1.00
O721   O     0.35455   0.21908   0.50726   0.00000  Uiso   1.00
H722   H     0.34514   0.21386   0.54468   0.00000  Uiso   1.00
O723   O     0.55598   0.22185   0.87103   0.00000  Uiso   1.00
H724   H     0.58684   0.23545   0.87053   0.00000  Uiso   1.00
O725   O     0.57929   0.28691   0.68727   0.00000  Uiso   1.00
H726   H     0.60873   0.30375   0.68198   0.00000  Uiso   1.00
C727   C     0.83351   0.24577   0.74952   0.00000  Uiso   1.00
C728   C     0.81455   0.18421   0.98846   0.00000  Uiso   1.00
C729   C     0.82967   0.18593   0.93412   0.00000  Uiso   1.00
C730   C     0.84921   0.17350   0.51462   0.00000  Uiso   1.00
C731   C     0.89868   0.17363   0.98727   0.00000  Uiso   1.00
C732   C     0.91285   0.18605   0.93658   0.00000  Uiso   1.00
C733   C     0.87823   0.19560   0.91145   0.00000  Uiso   1.00
C734   C     0.83671   0.16213   0.56680   0.00000  Uiso   1.00
C735   C     0.92091   0.16180   0.56547   0.00000  Uiso   1.00
C736   C     0.79484   0.18356   0.90590   0.00000  Uiso   1.00
C737   C     0.87384   0.31039   0.71594   0.00000  Uiso   1.00
C738   C     0.80807   0.17184   0.84954   0.00000  Uiso   1.00
C739   C     0.87251   0.02051   0.71371   0.00000  Uiso   1.00
C740   C     0.83383   0.04274   0.74721   0.00000  Uiso   1.00
C741   C     0.79455   0.02228   0.77832   0.00000  Uiso   1.00
C742   C     0.79429   0.31290   0.77789   0.00000  Uiso   1.00
C743   C     0.83399   0.29037   0.74763   0.00000  Uiso   1.00
C744   C     0.97119   0.20094   0.76689   0.00000  Uiso   1.00
C745   C     0.68576   0.19933   0.77151   0.00000  Uiso   1.00
C746   C     0.69682   0.13437   0.72748   0.00000  Uiso   1.00
C747   C     0.98102   0.13404   0.72845   0.00000  Uiso   1.00
C748   C     0.83353   0.08751   0.74896   0.00000  Uiso   1.00
C749   C     0.85873   0.16449   0.65029   0.00000  Uiso   1.00
C750   C     0.93371   0.16480   0.51214   0.00000  Uiso   1.00
C751   C     0.87235   0.16267   0.59350   0.00000  Uiso   1.00
C752   C     0.74685   0.19291   0.93246   0.00000  Uiso   1.00
C753   C     0.73380   0.20398   0.98532   0.00000  Uiso   1.00
C754   C     0.76787   0.19972   0.51404   0.00000  Uiso   1.00
Cu755  Cu    0.78645   0.16666   0.75000   0.00000  Uiso   1.00
Cu756  Cu    0.88022   0.16667   0.75000   0.00000  Uiso   1.00
N757   N     0.71598   0.16666   0.74999   0.00000  Uiso   1.00
N758   N     0.95069   0.16669   0.75000   0.00000  Uiso   1.00
O759   O     0.79375   0.22678   0.75001   0.00000  Uiso   1.00
O760   O     0.87294   0.22679   0.75001   0.00000  Uiso   1.00
O761   O     0.77441   0.16665   0.82549   0.00000  Uiso   1.00
O762   O     0.85360   0.16666   0.82549   0.00000  Uiso   1.00
O763   O     0.79373   0.10654   0.75000   0.00000  Uiso   1.00
O764   O     0.87292   0.10655   0.75000   0.00000  Uiso   1.00
O765   O     0.81306   0.16667   0.67451   0.00000  Uiso   1.00
O766   O     0.89225   0.16668   0.67451   0.00000  Uiso   1.00
H767   H     0.94898   0.15886   0.58469   0.00000  Uiso   1.00
O768   O     0.90646   0.04172   0.67765   0.00000  Uiso   1.00
H769   H     0.92067   0.02298   0.64725   0.00000  Uiso   1.00
H770   H     0.76425   0.03945   0.80329   0.00000  Uiso   1.00
H771   H     0.76373   0.29742   0.80247   0.00000  Uiso   1.00
O772   O     0.94547   0.23748   0.77782   0.00000  Uiso   1.00
H773   H     0.96678   0.26080   0.78112   0.00000  Uiso   1.00
O774   O     0.70056   0.23138   0.79835   0.00000  Uiso   1.00
H775   H     0.72151   0.21949   0.81747   0.00000  Uiso   1.00
O776   O     0.72476   0.10183   0.70125   0.00000  Uiso   1.00
H777   H     0.75639   0.11299   0.68352   0.00000  Uiso   1.00
O778   O     0.96625   0.10168   0.70233   0.00000  Uiso   1.00
H779   H     0.94582   0.11360   0.68259   0.00000  Uiso   1.00
H780   H     0.95058   0.19117   0.91773   0.00000  Uiso   1.00
H781   H     0.97117   0.16244   0.99052   0.00000  Uiso   1.00
O782   O     0.79162   0.14748   0.59122   0.00000  Uiso   1.00
H783   H     0.77754   0.13468   0.56470   0.00000  Uiso   1.00
H784   H     0.71969   0.19377   0.91173   0.00000  Uiso   1.00
O785   O     0.75886   0.21531   0.56443   0.00000  Uiso   1.00
H786   H     0.73655   0.23924   0.56955   0.00000  Uiso   1.00
O787   O     0.68788   0.21908   0.50726   0.00000  Uiso   1.00
H788   H     0.67848   0.21386   0.54468   0.00000  Uiso   1.00
O789   O     0.88931   0.22185   0.87103   0.00000  Uiso   1.00
H790   H     0.92017   0.23545   0.87053   0.00000  Uiso   1.00
O791   O     0.91263   0.28691   0.68727   0.00000  Uiso   1.00
H792   H     0.94207   0.30375   0.68198   0.00000  Uiso   1.00
C793   C     0.16684   0.57910   0.74952   0.00000  Uiso   1.00
C794   C     0.14788   0.51754   0.98846   0.00000  Uiso   1.00
C795   C     0.16300   0.51926   0.93412   0.00000  Uiso   1.00
C796   C     0.18255   0.50683   0.51462   0.00000  Uiso   1.00
C797   C     0.23201   0.50696   0.98727   0.00000  Uiso   1.00
C798   C     0.24619   0.51938   0.93658   0.00000  Uiso   1.00
C799   C     0.21157   0.52893   0.91145   0.00000  Uiso   1.00
C800   C     0.17004   0.49546   0.56680   0.00000  Uiso   1.00
C801   C     0.25424   0.49514   0.56547   0.00000  Uiso   1.00
C802   C     0.12817   0.51689   0.90590   0.00000  Uiso   1.00
C803   C     0.20717   0.64372   0.71594   0.00000  Uiso   1.00
C804   C     0.14141   0.50518   0.84954   0.00000  Uiso   1.00
C805   C     0.20584   0.35384   0.71371   0.00000  Uiso   1.00
C806   C     0.16717   0.37607   0.74721   0.00000  Uiso   1.00
C807   C     0.12788   0.35562   0.77832   0.00000  Uiso   1.00
C808   C     0.12762   0.64623   0.77789   0.00000  Uiso   1.00
C809   C     0.16733   0.62371   0.74763   0.00000  Uiso   1.00
C810   C     0.30453   0.53428   0.76689   0.00000  Uiso   1.00
C811   C     0.01910   0.53266   0.77151   0.00000  Uiso   1.00
C812   C     0.03016   0.46770   0.72748   0.00000  Uiso   1.00
C813   C     0.31435   0.46738   0.72845   0.00000  Uiso   1.00
C814   C     0.16686   0.42084   0.74896   0.00000  Uiso   1.00
C815   C     0.19206   0.49783   0.65029   0.00000  Uiso   1.00
C816   C     0.26704   0.49814   0.51214   0.00000  Uiso   1.00
C817   C     0.20568   0.49600   0.59350   0.00000  Uiso   1.00
C818   C     0.08019   0.52624   0.93246   0.00000  Uiso   1.00
C819   C     0.06713   0.53731   0.98532   0.00000  Uiso   1.00
C820   C     0.10120   0.53306   0.51404   0.00000  Uiso   1.00
Cu821  Cu    0.11978   0.49999   0.75000   0.00000  Uiso   1.00
Cu822  Cu    0.21355   0.50001   0.75000   0.00000  Uiso   1.00
N823   N     0.04931   0.49999   0.74999   0.00000  Uiso   1.00
N824   N     0.28402   0.50002   0.75000   0.00000  Uiso   1.00
O825   O     0.12708   0.56011   0.75001   0.00000  Uiso   1.00
O826   O     0.20627   0.56012   0.75001   0.00000  Uiso   1.00
O827   O     0.10775   0.49998   0.82549   0.00000  Uiso   1.00
O828   O     0.18694   0.49999   0.82549   0.00000  Uiso   1.00
O829   O     0.12706   0.43988   0.75000   0.00000  Uiso   1.00
O830   O     0.20625   0.43989   0.75000   0.00000  Uiso   1.00
O831   O     0.14640   0.50001   0.67451   0.00000  Uiso   1.00
O832   O     0.22559   0.50002   0.67451   0.00000  Uiso   1.00
H833   H     0.28231   0.49219   0.58469   0.00000  Uiso   1.00
O834   O     0.23979   0.37505   0.67765   0.00000  Uiso   1.00
H835   H     0.25400   0.35632   0.64725   0.00000  Uiso   1.00
H836   H     0.09759   0.37278   0.80329   0.00000  Uiso   1.00
H837   H     0.09707   0.63075   0.80247   0.00000  Uiso   1.00
O838   O     0.27881   0.57082   0.77782   0.00000  Uiso   1.00
H839   H     0.30012   0.59413   0.78112   0.00000  Uiso   1.00
O840   O     0.03390   0.56471   0.79835   0.00000  Uiso   1.00
H841   H     0.05484   0.55282   0.81747   0.00000  Uiso   1.00
O842   O     0.05809   0.43516   0.70125   0.00000  Uiso   1.00
H843   H     0.08973   0.44632   0.68352   0.00000  Uiso   1.00
O844   O     0.29958   0.43501   0.70233   0.00000  Uiso   1.00
H845   H     0.27915   0.44694   0.68259   0.00000  Uiso   1.00
H846   H     0.28391   0.52450   0.91773   0.00000  Uiso   1.00
H847   H     0.30450   0.49577   0.99052   0.00000  Uiso   1.00
O848   O     0.12495   0.48081   0.59122   0.00000  Uiso   1.00
H849   H     0.11088   0.46802   0.56470   0.00000  Uiso   1.00
H850   H     0.05302   0.52710   0.91173   0.00000  Uiso   1.00
O851   O     0.09220   0.54864   0.56443   0.00000  Uiso   1.00
H852   H     0.06988   0.57257   0.56955   0.00000  Uiso   1.00
O853   O     0.02121   0.55241   0.50726   0.00000  Uiso   1.00
H854   H     0.01181   0.54720   0.54468   0.00000  Uiso   1.00
O855   O     0.22265   0.55518   0.87103   0.00000  Uiso   1.00
H856   H     0.25351   0.56878   0.87053   0.00000  Uiso   1.00
O857   O     0.24596   0.62024   0.68727   0.00000  Uiso   1.00
H858   H     0.27540   0.63709   0.68198   0.00000  Uiso   1.00
C859   C     0.50017   0.57910   0.74952   0.00000  Uiso   1.00
C860   C     0.48122   0.51754   0.98846   0.00000  Uiso   1.00
C861   C     0.49634   0.51926   0.93412   0.00000  Uiso   1.00
C862   C     0.51588   0.50683   0.51462   0.00000  Uiso   1.00
C863   C     0.56535   0.50696   0.98727   0.00000  Uiso   1.00
C864   C     0.57952   0.51938   0.93658   0.00000  Uiso   1.00
C865   C     0.54490   0.52893   0.91145   0.00000  Uiso   1.00
C866   C     0.50337   0.49546   0.56680   0.00000  Uiso   1.00
C867   C     0.58758   0.49514   0.56547   0.00000  Uiso   1.00
C868   C     0.46150   0.51689   0.90590   0.00000  Uiso   1.00
C869   C     0.54050   0.64372   0.71594   0.00000  Uiso   1.00
C870   C     0.47474   0.50518   0.84954   0.00000  Uiso   1.00
C871   C     0.53918   0.35384   0.71371   0.00000  Uiso   1.00
C872   C     0.50050   0.37607   0.74721   0.00000  Uiso   1.00
C873   C     0.46121   0.35562   0.77832   0.00000  Uiso   1.00
C874   C     0.46096   0.64623   0.77789   0.00000  Uiso   1.00
C875   C     0.50066   0.62371   0.74763   0.00000  Uiso   1.00
C876   C     0.63786   0.53428   0.76689   0.00000  Uiso   1.00
C877   C     0.35243   0.53266   0.77151   0.00000  Uiso   1.00
C878   C     0.36349   0.46770   0.72748   0.00000  Uiso   1.00
C879   C     0.64769   0.46738   0.72845   0.00000  Uiso   1.00
C880   C     0.50019   0.42084   0.74896   0.00000  Uiso   1.00
C881   C     0.52540   0.49783   0.65029   0.00000  Uiso   1.00
C882   C     0.60037   0.49814   0.51214   0.00000  Uiso   1.00
C883   C     0.53902   0.49600   0.59350   0.00000  Uiso   1.00
C884   C     0.41352   0.52624   0.93246   0.00000  Uiso   1.00
C885   C     0.40047   0.53731   0.98532   0.00000  Uiso   1.00
C886   C     0.43453   0.53306   0.51404   0.00000  Uiso   1.00
Cu887  Cu    0.45311   0.49999   0.75000   0.00000  Uiso   1.00
Cu888  Cu    0.54689   0.50001   0.75000   0.00000  Uiso   1.00
N889   N     0.38265   0.49999   0.74999   0.00000  Uiso   1.00
N890   N     0.61735   0.50002   0.75000   0.00000  Uiso   1.00
O891   O     0.46042   0.56011   0.75001   0.00000  Uiso   1.00
O892   O     0.53961   0.56012   0.75001   0.00000  Uiso   1.00
O893   O     0.44108   0.49998   0.82549   0.00000  Uiso   1.00
O894   O     0.52027   0.49999   0.82549   0.00000  Uiso   1.00
O895   O     0.46039   0.43988   0.75000   0.00000  Uiso   1.00
O896   O     0.53958   0.43989   0.75000   0.00000  Uiso   1.00
O897   O     0.47973   0.50001   0.67451   0.00000  Uiso   1.00
O898   O     0.55892   0.50002   0.67451   0.00000  Uiso   1.00
H899   H     0.61564   0.49219   0.58469   0.00000  Uiso   1.00
O900   O     0.57313   0.37505   0.67765   0.00000  Uiso   1.00
H901   H     0.58734   0.35632   0.64725   0.00000  Uiso   1.00
H902   H     0.43092   0.37278   0.80329   0.00000  Uiso   1.00
H903   H     0.43040   0.63075   0.80247   0.00000  Uiso   1.00
O904   O     0.61214   0.57082   0.77782   0.00000  Uiso   1.00
H905   H     0.63345   0.59413   0.78112   0.00000  Uiso   1.00
O906   O     0.36723   0.56471   0.79835   0.00000  Uiso   1.00
H907   H     0.38818   0.55282   0.81747   0.00000  Uiso   1.00
O908   O     0.39142   0.43516   0.70125   0.00000  Uiso   1.00
H909   H     0.42306   0.44632   0.68352   0.00000  Uiso   1.00
O910   O     0.63291   0.43501   0.70233   0.00000  Uiso   1.00
H911   H     0.61248   0.44694   0.68259   0.00000  Uiso   1.00
H912   H     0.61724   0.52450   0.91773   0.00000  Uiso   1.00
H913   H     0.63783   0.49577   0.99052   0.00000  Uiso   1.00
O914   O     0.45828   0.48081   0.59122   0.00000  Uiso   1.00
H915   H     0.44421   0.46802   0.56470   0.00000  Uiso   1.00
H916   H     0.38635   0.52710   0.91173   0.00000  Uiso   1.00
O917   O     0.42553   0.54864   0.56443   0.00000  Uiso   1.00
H918   H     0.40322   0.57257   0.56955   0.00000  Uiso   1.00
O919   O     0.35455   0.55241   0.50726   0.00000  Uiso   1.00
H920   H     0.34514   0.54720   0.54468   0.00000  Uiso   1.00
O921   O     0.55598   0.55518   0.87103   0.00000  Uiso   1.00
H922   H     0.58684   0.56878   0.87053   0.00000  Uiso   1.00
O923   O     0.57929   0.62024   0.68727   0.00000  Uiso   1.00
H924   H     0.60873   0.63709   0.68198   0.00000  Uiso   1.00
C925   C     0.83351   0.57910   0.74952   0.00000  Uiso   1.00
C926   C     0.81455   0.51754   0.98846   0.00000  Uiso   1.00
C927   C     0.82967   0.51926   0.93412   0.00000  Uiso   1.00
C928   C     0.84921   0.50683   0.51462   0.00000  Uiso   1.00
C929   C     0.89868   0.50696   0.98727   0.00000  Uiso   1.00
C930   C     0.91285   0.51938   0.93658   0.00000  Uiso   1.00
C931   C     0.87823   0.52893   0.91145   0.00000  Uiso   1.00
C932   C     0.83671   0.49546   0.56680   0.00000  Uiso   1.00
C933   C     0.92091   0.49514   0.56547   0.00000  Uiso   1.00
C934   C     0.79484   0.51689   0.90590   0.00000  Uiso   1.00
C935   C     0.87384   0.64372   0.71594   0.00000  Uiso   1.00
C936   C     0.80807   0.50518   0.84954   0.00000  Uiso   1.00
C937   C     0.87251   0.35384   0.71371   0.00000  Uiso   1.00
C938   C     0.83383   0.37607   0.74721   0.00000  Uiso   1.00
C939   C     0.79455   0.35562   0.77832   0.00000  Uiso   1.00
C940   C     0.79429   0.64623   0.77789   0.00000  Uiso   1.00
C941   C     0.83399   0.62371   0.74763   0.00000  Uiso   1.00
C942   C     0.97119   0.53428   0.76689   0.00000  Uiso   1.00
C943   C     0.68576   0.53266   0.77151   0.00000  Uiso   1.00
C944   C     0.69682   0.46770   0.72748   0.00000  Uiso   1.00
C945   C     0.98102   0.46738   0.72845   0.00000  Uiso   1.00
C946   C     0.83353   0.42084   0.74896   0.00000  Uiso   1.00
C947   C     0.85873   0.49783   0.65029   0.00000  Uiso   1.00
C948   C     0.93371   0.49814   0.51214   0.00000  Uiso   1.00
C949   C     0.87235   0.49600   0.59350   0.00000  Uiso   1.00
C950   C     0.74685   0.52624   0.93246   0.00000  Uiso   1.00
C951   C     0.73380   0.53731   0.98532   0.00000  Uiso   1.00
C952   C     0.76787   0.53306   0.51404   0.00000  Uiso   1.00
Cu953  Cu    0.78645   0.49999   0.75000   0.00000  Uiso   1.00
Cu954  Cu    0.88022   0.50001   0.75000   0.00000  Uiso   1.00
N955   N     0.71598   0.49999   0.74999   0.00000  Uiso   1.00
N956   N     0.95069   0.50002   0.75000   0.00000  Uiso   1.00
O957   O     0.79375   0.56011   0.75001   0.00000  Uiso   1.00
O958   O     0.87294   0.56012   0.75001   0.00000  Uiso   1.00
O959   O     0.77441   0.49998   0.82549   0.00000  Uiso   1.00
O960   O     0.85360   0.49999   0.82549   0.00000  Uiso   1.00
O961   O     0.79373   0.43988   0.75000   0.00000  Uiso   1.00
O962   O     0.87292   0.43989   0.75000   0.00000  Uiso   1.00
O963   O     0.81306   0.50001   0.67451   0.00000  Uiso   1.00
O964   O     0.89225   0.50002   0.67451   0.00000  Uiso   1.00
H965   H     0.94898   0.49219   0.58469   0.00000  Uiso   1.00
O966   O     0.90646   0.37505   0.67765   0.00000  Uiso   1.00
H967   H     0.92067   0.35632   0.64725   0.00000  Uiso   1.00
H968   H     0.76425   0.37278   0.80329   0.00000  Uiso   1.00
H969   H     0.76373   0.63075   0.80247   0.00000  Uiso   1.00
O970   O     0.94547   0.57082   0.77782   0.00000  Uiso   1.00
H971   H     0.96678   0.59413   0.78112   0.00000  Uiso   1.00
O972   O     0.70056   0.56471   0.79835   0.00000  Uiso   1.00
H973   H     0.72151   0.55282   0.81747   0.00000  Uiso   1.00
O974   O     0.72476   0.43516   0.70125   0.00000  Uiso   1.00
H975   H     0.75639   0.44632   0.68352   0.00000  Uiso   1.00
O976   O     0.96625   0.43501   0.70233   0.00000  Uiso   1.00
H977   H     0.94582   0.44694   0.68259   0.00000  Uiso   1.00
H978   H     0.95058   0.52450   0.91773   0.00000  Uiso   1.00
H979   H     0.97117   0.49577   0.99052   0.00000  Uiso   1.00
O980   O     0.79162   0.48081   0.59122   0.00000  Uiso   1.00
H981   H     0.77754   0.46802   0.56470   0.00000  Uiso   1.00
H982   H     0.71969   0.52710   0.91173   0.00000  Uiso   1.00
O983   O     0.75886   0.54864   0.56443   0.00000  Uiso   1.00
H984   H     0.73655   0.57257   0.56955   0.00000  Uiso   1.00
O985   O     0.68788   0.55241   0.50726   0.00000  Uiso   1.00
H986   H     0.67848   0.54720   0.54468   0.00000  Uiso   1.00
O987   O     0.88931   0.55518   0.87103   0.00000  Uiso   1.00
H988   H     0.92017   0.56878   0.87053   0.00000  Uiso   1.00
O989   O     0.91263   0.62024   0.68727   0.00000  Uiso   1.00
H990   H     0.94207   0.63709   0.68198   0.00000  Uiso   1.00
C991   C     0.16684   0.91244   0.74952   0.00000  Uiso   1.00
C992   C     0.14788   0.85087   0.98846   0.00000  Uiso   1.00
C993   C     0.16300   0.85260   0.93412   0.00000  Uiso   1.00
C994   C     0.18255   0.84016   0.51462   0.00000  Uiso   1.00
C995   C     0.23201   0.84029   0.98727   0.00000  Uiso   1.00
C996   C     0.24619   0.85271   0.93658   0.00000  Uiso   1.00
C997   C     0.21157   0.86227   0.91145   0.00000  Uiso   1.00
C998   C     0.17004   0.82879   0.56680   0.00000  Uiso   1.00
C999   C     0.25424   0.82847   0.56547   0.00000  Uiso   1.00
C1000  C     0.12817   0.85023   0.90590   0.00000  Uiso   1.00
C1001  C     0.20717   0.97705   0.71594   0.00000  Uiso   1.00
C1002  C     0.14141   0.83851   0.84954   0.00000  Uiso   1.00
C1003  C     0.20584   0.68717   0.71371   0.00000  Uiso   1.00
C1004  C     0.16717   0.70941   0.74721   0.00000  Uiso   1.00
C1005  C     0.12788   0.68895   0.77832   0.00000  Uiso   1.00
C1006  C     0.12762   0.97956   0.77789   0.00000  Uiso   1.00
C1007  C     0.16733   0.95704   0.74763   0.00000  Uiso   1.00
C1008  C     0.30453   0.86761   0.76689   0.00000  Uiso   1.00
C1009  C     0.01910   0.86600   0.77151   0.00000  Uiso   1.00
C1010  C     0.03016   0.80103   0.72748   0.00000  Uiso   1.00
C1011  C     0.31435   0.80071   0.72845   0.00000  Uiso   1.00
C1012  C     0.16686   0.75417   0.74896   0.00000  Uiso   1.00
C1013  C     0.19206   0.83116   0.65029   0.00000  Uiso   1.00
C1014  C     0.26704   0.83147   0.51214   0.00000  Uiso   1.00
C1015  C     0.20568   0.82933   0.59350   0.00000  Uiso   1.00
C1016  C     0.08019   0.85958   0.93246   0.00000  Uiso   1.00
C1017  C     0.06713   0.87064   0.98532   0.00000  Uiso   1.00
C1018  C     0.10120   0.86639   0.51404   0.00000  Uiso   1.00
Cu1019 Cu    0.11978   0.83333   0.75000   0.00000  Uiso   1.00
Cu1020 Cu    0.21355   0.83334   0.75000   0.00000  Uiso   1.00
N1021  N     0.04931   0.83332   0.74999   0.00000  Uiso   1.00
N1022  N     0.28402   0.83335   0.75000   0.00000  Uiso   1.00
O1023  O     0.12708   0.89345   0.75001   0.00000  Uiso   1.00
O1024  O     0.20627   0.89346   0.75001   0.00000  Uiso   1.00
O1025  O     0.10775   0.83332   0.82549   0.00000  Uiso   1.00
O1026  O     0.18694   0.83333   0.82549   0.00000  Uiso   1.00
O1027  O     0.12706   0.77321   0.75000   0.00000  Uiso   1.00
O1028  O     0.20625   0.77322   0.75000   0.00000  Uiso   1.00
O1029  O     0.14640   0.83334   0.67451   0.00000  Uiso   1.00
O1030  O     0.22559   0.83335   0.67451   0.00000  Uiso   1.00
H1031  H     0.28231   0.82552   0.58469   0.00000  Uiso   1.00
O1032  O     0.23979   0.70838   0.67765   0.00000  Uiso   1.00
H1033  H     0.25400   0.68965   0.64725   0.00000  Uiso   1.00
H1034  H     0.09759   0.70611   0.80329   0.00000  Uiso   1.00
H1035  H     0.09707   0.96409   0.80247   0.00000  Uiso   1.00
O1036  O     0.27881   0.90415   0.77782   0.00000  Uiso   1.00
H1037  H     0.30012   0.92747   0.78112   0.00000  Uiso   1.00
O1038  O     0.03390   0.89804   0.79835   0.00000  Uiso   1.00
H1039  H     0.05484   0.88616   0.81747   0.00000  Uiso   1.00
O1040  O     0.05809   0.76850   0.70125   0.00000  Uiso   1.00
H1041  H     0.08973   0.77966   0.68352   0.00000  Uiso   1.00
O1042  O     0.29958   0.76835   0.70233   0.00000  Uiso   1.00
H1043  H     0.27915   0.78027   0.68259   0.00000  Uiso   1.00
H1044  H     0.28391   0.85784   0.91773   0.00000  Uiso   1.00
H1045  H     0.30450   0.82910   0.99052   0.00000  Uiso   1.00
O1046  O     0.12495   0.81414   0.59122   0.00000  Uiso   1.00
H1047  H     0.11088   0.80135   0.56470   0.00000  Uiso   1.00
H1048  H     0.05302   0.86044   0.91173   0.00000  Uiso   1.00
O1049  O     0.09220   0.88197   0.56443   0.00000  Uiso   1.00
H1050  H     0.06988   0.90590   0.56955   0.00000  Uiso   1.00
O1051  O     0.02121   0.88574   0.50726   0.00000  Uiso   1.00
H1052  H     0.01181   0.88053   0.54468   0.00000  Uiso   1.00
O1053  O     0.22265   0.88851   0.87103   0.00000  Uiso   1.00
H1054  H     0.25351   0.90212   0.87053   0.00000  Uiso   1.00
O1055  O     0.24596   0.95357   0.68727   0.00000  Uiso   1.00
H1056  H     0.27540   0.97042   0.68198   0.00000  Uiso   1.00
C1057  C     0.50017   0.91244   0.74952   0.00000  Uiso   1.00
C1058  C     0.48122   0.85087   0.98846   0.00000  Uiso   1.00
C1059  C     0.49634   0.85260   0.93412   0.00000  Uiso   1.00
C1060  C     0.51588   0.84016   0.51462   0.00000  Uiso   1.00
C1061  C     0.56535   0.84029   0.98727   0.00000  Uiso   1.00
C1062  C     0.57952   0.85271   0.93658   0.00000  Uiso   1.00
C1063  C     0.54490   0.86227   0.91145   0.00000  Uiso   1.00
C1064  C     0.50337   0.82879   0.56680   0.00000  Uiso   1.00
C1065  C     0.58758   0.82847   0.56547   0.00000  Uiso   1.00
C1066  C     0.46150   0.85023   0.90590   0.00000  Uiso   1.00
C1067  C     0.54050   0.97705   0.71594   0.00000  Uiso   1.00
C1068  C     0.47474   0.83851   0.84954   0.00000  Uiso   1.00
C1069  C     0.53918   0.68717   0.71371   0.00000  Uiso   1.00
C1070  C     0.50050   0.70941   0.74721   0.00000  Uiso   1.00
C1071  C     0.46121   0.68895   0.77832   0.00000  Uiso   1.00
C1072  C     0.46096   0.97956   0.77789   0.00000  Uiso   1.00
C1073  C     0.50066   0.95704   0.74763   0.00000  Uiso   1.00
C1074  C     0.63786   0.86761   0.76689   0.00000  Uiso   1.00
C1075  C     0.35243   0.86600   0.77151   0.00000  Uiso   1.00
C1076  C     0.36349   0.80103   0.72748   0.00000  Uiso   1.00
C1077  C     0.64769   0.80071   0.72845   0.00000  Uiso   1.00
C1078  C     0.50019   0.75417   0.74896   0.00000  Uiso   1.00
C1079  C     0.52540   0.83116   0.65029   0.00000  Uiso   1.00
C1080  C     0.60037   0.83147   0.51214   0.00000  Uiso   1.00
C1081  C     0.53902   0.82933   0.59350   0.00000  Uiso   1.00
C1082  C     0.41352   0.85958   0.93246   0.00000  Uiso   1.00
C1083  C     0.40047   0.87064   0.98532   0.00000  Uiso   1.00
C1084  C     0.43453   0.86639   0.51404   0.00000  Uiso   1.00
Cu1085 Cu    0.45311   0.83333   0.75000   0.00000  Uiso   1.00
Cu1086 Cu    0.54689   0.83334   0.75000   0.00000  Uiso   1.00
N1087  N     0.38265   0.83332   0.74999   0.00000  Uiso   1.00
N1088  N     0.61735   0.83335   0.75000   0.00000  Uiso   1.00
O1089  O     0.46042   0.89345   0.75001   0.00000  Uiso   1.00
O1090  O     0.53961   0.89346   0.75001   0.00000  Uiso   1.00
O1091  O     0.44108   0.83332   0.82549   0.00000  Uiso   1.00
O1092  O     0.52027   0.83333   0.82549   0.00000  Uiso   1.00
O1093  O     0.46039   0.77321   0.75000   0.00000  Uiso   1.00
O1094  O     0.53958   0.77322   0.75000   0.00000  Uiso   1.00
O1095  O     0.47973   0.83334   0.67451   0.00000  Uiso   1.00
O1096  O     0.55892   0.83335   0.67451   0.00000  Uiso   1.00
H1097  H     0.61564   0.82552   0.58469   0.00000  Uiso   1.00
O1098  O     0.57313   0.70838   0.67765   0.00000  Uiso   1.00
H1099  H     0.58734   0.68965   0.64725   0.00000  Uiso   1.00
H1100  H     0.43092   0.70611   0.80329   0.00000  Uiso   1.00
H1101  H     0.43040   0.96409   0.80247   0.00000  Uiso   1.00
O1102  O     0.61214   0.90415   0.77782   0.00000  Uiso   1.00
H1103  H     0.63345   0.92747   0.78112   0.00000  Uiso   1.00
O1104  O     0.36723   0.89804   0.79835   0.00000  Uiso   1.00
H1105  H     0.38818   0.88616   0.81747   0.00000  Uiso   1.00
O1106  O     0.39142   0.76850   0.70125   0.00000  Uiso   1.00
H1107  H     0.42306   0.77966   0.68352   0.00000  Uiso   1.00
O1108  O     0.63291   0.76835   0.70233   0.00000  Uiso   1.00
H1109  H     0.61248   0.78027   0.68259   0.00000  Uiso   1.00
H1110  H     0.61724   0.85784   0.91773   0.00000  Uiso   1.00
H1111  H     0.63783   0.82910   0.99052   0.00000  Uiso   1.00
O1112  O     0.45828   0.81414   0.59122   0.00000  Uiso   1.00
H1113  H     0.44421   0.80135   0.56470   0.00000  Uiso   1.00
H1114  H     0.38635   0.86044   0.91173   0.00000  Uiso   1.00
O1115  O     0.42553   0.88197   0.56443   0.00000  Uiso   1.00
H1116  H     0.40322   0.90590   0.56955   0.00000  Uiso   1.00
O1117  O     0.35455   0.88574   0.50726   0.00000  Uiso   1.00
H1118  H     0.34514   0.88053   0.54468   0.00000  Uiso   1.00
O1119  O     0.55598   0.88851   0.87103   0.00000  Uiso   1.00
H1120  H     0.58684   0.90212   0.87053   0.00000  Uiso   1.00
O1121  O     0.57929   0.95357   0.68727   0.00000  Uiso   1.00
H1122  H     0.60873   0.97042   0.68198   0.00000  Uiso   1.00
C1123  C     0.83351   0.91244   0.74952   0.00000  Uiso   1.00
C1124  C     0.81455   0.85087   0.98846   0.00000  Uiso   1.00
C1125  C     0.82967   0.85260   0.93412   0.00000  Uiso   1.00
C1126  C     0.84921   0.84016   0.51462   0.00000  Uiso   1.00
C1127  C     0.89868   0.84029   0.98727   0.00000  Uiso   1.00
C1128  C     0.91285   0.85271   0.93658   0.00000  Uiso   1.00
C1129  C     0.87823   0.86227   0.91145   0.00000  Uiso   1.00
C1130  C     0.83671   0.82879   0.56680   0.00000  Uiso   1.00
C1131  C     0.92091   0.82847   0.56547   0.00000  Uiso   1.00
C1132  C     0.79484   0.85023   0.90590   0.00000  Uiso   1.00
C1133  C     0.87384   0.97705   0.71594   0.00000  Uiso   1.00
C1134  C     0.80807   0.83851   0.84954   0.00000  Uiso   1.00
C1135  C     0.87251   0.68717   0.71371   0.00000  Uiso   1.00
C1136  C     0.83383   0.70941   0.74721   0.00000  Uiso   1.00
C1137  C     0.79455   0.68895   0.77832   0.00000  Uiso   1.00
C1138  C     0.79429   0.97956   0.77789   0.00000  Uiso   1.00
C1139  C     0.83399   0.95704   0.74763   0.00000  Uiso   1.00
C1140  C     0.97119   0.86761   0.76689   0.00000  Uiso   1.00
C1141  C     0.68576   0.86600   0.77151   0.00000  Uiso   1.00
C1142  C     0.69682   0.80103   0.72748   0.00000  Uiso   1.00
C1143  C     0.98102   0.80071   0.72845   0.00000  Uiso   1.00
C1144  C     0.83353   0.75417   0.74896   0.00000  Uiso   1.00
C1145  C     0.85873   0.83116   0.65029   0.00000  Uiso   1.00
C1146  C     0.93371   0.83147   0.51214   0.00000  Uiso   1.00
C1147  C     0.87235   0.82933   0.59350   0.00000  Uiso   1.00
C1148  C     0.74685   0.85958   0.93246   0.00000  Uiso   1.00
C1149  C     0.73380   0.87064   0.98532   0.00000  Uiso   1.00
C1150  C     0.76787   0.86639   0.51404   0.00000  Uiso   1.00
Cu1151 Cu    0.78645   0.83333   0.75000   0.00000  Uiso   1.00
Cu1152 Cu    0.88022   0.83334   0.75000   0.00000  Uiso   1.00
N1153  N     0.71598   0.83332   0.74999   0.00000  Uiso   1.00
N1154  N     0.95069   0.83335   0.75000   0.00000  Uiso   1.00
O1155  O     0.79375   0.89345   0.75001   0.00000  Uiso   1.00
O1156  O     0.87294   0.89346   0.75001   0.00000  Uiso   1.00
O1157  O     0.77441   0.83332   0.82549   0.00000  Uiso   1.00
O1158  O     0.85360   0.83333   0.82549   0.00000  Uiso   1.00
O1159  O     0.79373   0.77321   0.75000   0.00000  Uiso   1.00
O1160  O     0.87292   0.77322   0.75000   0.00000  Uiso   1.00
O1161  O     0.81306   0.83334   0.67451   0.00000  Uiso   1.00
O1162  O     0.89225   0.83335   0.67451   0.00000  Uiso   1.00
H1163  H     0.94898   0.82552   0.58469   0.00000  Uiso   1.00
O1164  O     0.90646   0.70838   0.67765   0.00000  Uiso   1.00
H1165  H     0.92067   0.68965   0.64725   0.00000  Uiso   1.00
H1166  H     0.76425   0.70611   0.80329   0.00000  Uiso   1.00
H1167  H     0.76373   0.96409   0.80247   0.00000  Uiso   1.00
O1168  O     0.94547   0.90415   0.77782   0.00000  Uiso   1.00
H1169  H     0.96678   0.92747   0.78112   0.00000  Uiso   1.00
O1170  O     0.70056   0.89804   0.79835   0.00000  Uiso   1.00
H1171  H     0.72151   0.88616   0.81747   0.00000  Uiso   1.00
O1172  O     0.72476   0.76850   0.70125   0.00000  Uiso   1.00
H1173  H     0.75639   0.77966   0.68352   0.00000  Uiso   1.00
O1174  O     0.96625   0.76835   0.70233   0.00000  Uiso   1.00
H1175  H     0.94582   0.78027   0.68259   0.00000  Uiso   1.00
H1176  H     0.95058   0.85784   0.91773   0.00000  Uiso   1.00
H1177  H     0.97117   0.82910   0.99052   0.00000  Uiso   1.00
O1178  O     0.79162   0.81414   0.59122   0.00000  Uiso   1.00
H1179  H     0.77754   0.80135   0.56470   0.00000  Uiso   1.00
H1180  H     0.71969   0.86044   0.91173   0.00000  Uiso   1.00
O1181  O     0.75886   0.88197   0.56443   0.00000  Uiso   1.00
H1182  H     0.73655   0.90590   0.56955   0.00000  Uiso   1.00
O1183  O     0.68788   0.88574   0.50726   0.00000  Uiso   1.00
H1184  H     0.67848   0.88053   0.54468   0.00000  Uiso   1.00
O1185  O     0.88931   0.88851   0.87103   0.00000  Uiso   1.00
H1186  H     0.92017   0.90212   0.87053   0.00000  Uiso   1.00
O1187  O     0.91263   0.95357   0.68727   0.00000  Uiso   1.00
H1188  H     0.94207   0.97042   0.68198   0.00000  Uiso   1.00
loop_
_geom_bond_atom_site_label_1
_geom_bond_atom_site_label_2
_geom_bond_distance
_geom_bond_site_symmetry_2
_ccdc_geom_bond_type
C1     O34     1.301   .     A
C1     O33     1.300   .     A
C1     C17     1.447   .     S
C2     C3      1.410   .     A
C2     C598    1.426   .     S
C2     C622    1.419   .     S
C3     C10     1.420   .     A
C3     C7      1.409   .     A
C4     C8      1.414   .     A
C4     C596    1.426   1_554 S
C4     C599    1.418   1_554 S
C5     C6      1.388   .     A
C5     C598    1.418   .     S
C5     C618    1.396   .     S
C6     C7      1.396   .     A
C6     H54     1.085   .     S
C7     O63     1.375   .     S
C8     O56     1.382   .     S
C8     C25     1.410   .     A
C9     C24     1.388   .     A
C9     H41     1.083   .     S
C9     C25     1.399   .     A
C10    C26     1.402   .     A
C10    C12     1.491   .     S
C11    O65     1.382   .     S
C11    C17     1.406   .     A
C11    C211    1.411   .     S
C12    O36     1.306   .     A
C12    O35     1.317   .     A
C13    C14     1.406   .     A
C13    O42     1.380   .     S
C13    C407    1.411   1_545 S
C14    C15     1.396   .     A
C14    C22     1.448   .     S
C15    H44     1.084   .     S
C15    C412    1.382   1_545 S
C16    H45     1.083   .     S
C16    C17     1.397   .     A
C16    C213    1.382   .     S
C18    O46     1.376   .     S
C18    N32     1.376   .     A
C18    C85     1.427   .     S
C19    N31     1.375   .     A
C19    O48     1.374   .     S
C19    C150    1.427   1_455 S
C20    O50     1.374   .     S
C20    N31     1.377   .     A
C20    C153    1.415   1_455 S
C21    N32     1.377   .     A
C21    O52     1.370   .     S
C21    C86     1.415   .     S
C22    O38     1.301   .     A
C22    O37     1.300   .     A
C23    O39     1.303   .     A
C23    C25     1.468   .     S
C23    O40     1.310   .     A
C24    C599    1.396   1_554 S
C24    H649    1.081   1_554 S
C26    H58     1.083   .     S
C26    C27     1.399   .     A
C27    C622    1.421   .     S
C27    O655    1.378   .     S
C28    O59     1.382   .     S
C28    C596    1.419   1_554 S
C28    C621    1.421   1_554 S
Cu29   O35     1.965   .     S
Cu29   N31     2.040   .     S
Cu29   Cu30    2.714   .     S
Cu29   O33     1.957   .     S
Cu29   O37     1.958   .     S
Cu29   O39     1.964   .     S
Cu30   O36     1.964   .     S
Cu30   N32     2.039   .     S
Cu30   O34     1.958   .     S
Cu30   O40     1.965   .     S
Cu30   O38     1.957   .     S
O42    H43     0.990   .     S
O46    H47     0.990   .     S
O48    H49     0.985   .     S
O50    H51     0.984   .     S
O52    H53     0.986   .     S
H55    C618    1.081   .     S
O56    H57     0.991   .     S
O59    H60     0.990   .     S
O61    H62     0.990   .     S
O61    C621    1.378   1_554 S
O63    H64     0.992   .     S
O65    H66     0.991   .     S
C67    O100    1.301   .     A
C67    O99     1.300   .     A
C67    C83     1.447   .     S
C68    C69     1.410   .     A
C68    C664    1.426   .     S
C68    C688    1.419   .     S
C69    C76     1.420   .     A
C69    C73     1.409   .     A
C70    C74     1.414   .     A
C70    C662    1.426   1_554 S
C70    C665    1.418   1_554 S
C71    C72     1.388   .     A
C71    C664    1.418   .     S
C71    C684    1.396   .     S
C72    C73     1.396   .     A
C72    H120    1.085   .     S
C73    O129    1.375   .     S
C74    O122    1.382   .     S
C74    C91     1.410   .     A
C75    C90     1.388   .     A
C75    H107    1.083   .     S
C75    C91     1.399   .     A
C76    C92     1.402   .     A
C76    C78     1.491   .     S
C77    O131    1.382   .     S
C77    C83     1.406   .     A
C77    C277    1.411   .     S
C78    O102    1.306   .     A
C78    O101    1.317   .     A
C79    C80     1.406   .     A
C79    O108    1.380   .     S
C79    C473    1.411   1_545 S
C80    C81     1.396   .     A
C80    C88     1.448   .     S
C81    H110    1.084   .     S
C81    C478    1.382   1_545 S
C82    H111    1.083   .     S
C82    C83     1.397   .     A
C82    C279    1.382   .     S
C84    O112    1.376   .     S
C84    N98     1.376   .     A
C84    C151    1.427   .     S
C85    N97     1.375   .     A
C85    O114    1.374   .     S
C86    O116    1.374   .     S
C86    N97     1.377   .     A
C87    N98     1.377   .     A
C87    O118    1.370   .     S
C87    C152    1.415   .     S
C88    O104    1.301   .     A
C88    O103    1.300   .     A
C89    O105    1.303   .     A
C89    C91     1.468   .     S
C89    O106    1.310   .     A
C90    C665    1.396   1_554 S
C90    H715    1.081   1_554 S
C92    H124    1.083   .     S
C92    C93     1.399   .     A
C93    C688    1.421   .     S
C93    O721    1.378   .     S
C94    O125    1.382   .     S
C94    C662    1.419   1_554 S
C94    C687    1.421   1_554 S
Cu95   O101    1.965   .     S
Cu95   N97     2.040   .     S
Cu95   Cu96    2.714   .     S
Cu95   O99     1.957   .     S
Cu95   O103    1.958   .     S
Cu95   O105    1.964   .     S
Cu96   O102    1.964   .     S
Cu96   N98     2.039   .     S
Cu96   O100    1.958   .     S
Cu96   O106    1.965   .     S
Cu96   O104    1.957   .     S
O108   H109    0.990   .     S
O112   H113    0.990   .     S
O114   H115    0.985   .     S
O116   H117    0.984   .     S
O118   H119    0.986   .     S
H121   C684    1.081   .     S
O122   H123    0.991   .     S
O125   H126    0.990   .     S
O127   H128    0.990   .     S
O127   C687    1.378   1_554 S
O129   H130    0.992   .     S
O131   H132    0.991   .     S
C133   O166    1.301   .     A
C133   O165    1.300   .     A
C133   C149    1.447   .     S
C134   C135    1.410   .     A
C134   C730    1.426   .     S
C134   C754    1.419   .     S
C135   C142    1.420   .     A
C135   C139    1.409   .     A
C136   C140    1.414   .     A
C136   C728    1.426   1_554 S
C136   C731    1.418   1_554 S
C137   C138    1.388   .     A
C137   C730    1.418   .     S
C137   C750    1.396   .     S
C138   C139    1.396   .     A
C138   H186    1.085   .     S
C139   O195    1.375   .     S
C140   O188    1.382   .     S
C140   C157    1.410   .     A
C141   C156    1.388   .     A
C141   H173    1.083   .     S
C141   C157    1.399   .     A
C142   C158    1.402   .     A
C142   C144    1.491   .     S
C143   O197    1.382   .     S
C143   C149    1.406   .     A
C143   C343    1.411   .     S
C144   O168    1.306   .     A
C144   O167    1.317   .     A
C145   C146    1.406   .     A
C145   O174    1.380   .     S
C145   C539    1.411   1_545 S
C146   C147    1.396   .     A
C146   C154    1.448   .     S
C147   H176    1.084   .     S
C147   C544    1.382   1_545 S
C148   H177    1.083   .     S
C148   C149    1.397   .     A
C148   C345    1.382   .     S
C150   O178    1.376   .     S
C150   N164    1.376   .     A
C150   C19     1.427   1_655 S
C151   N163    1.375   .     A
C151   O180    1.374   .     S
C152   O182    1.374   .     S
C152   N163    1.377   .     A
C153   N164    1.377   .     A
C153   O184    1.370   .     S
C153   C20     1.415   1_655 S
C154   O170    1.301   .     A
C154   O169    1.300   .     A
C155   O171    1.303   .     A
C155   C157    1.468   .     S
C155   O172    1.310   .     A
C156   C731    1.396   1_554 S
C156   H781    1.081   1_554 S
C158   H190    1.083   .     S
C158   C159    1.399   .     A
C159   C754    1.421   .     S
C159   O787    1.378   .     S
C160   O191    1.382   .     S
C160   C728    1.419   1_554 S
C160   C753    1.421   1_554 S
Cu161  O167    1.965   .     S
Cu161  N163    2.040   .     S
Cu161  Cu162   2.714   .     S
Cu161  O165    1.957   .     S
Cu161  O169    1.958   .     S
Cu161  O171    1.964   .     S
Cu162  O168    1.964   .     S
Cu162  N164    2.039   .     S
Cu162  O166    1.958   .     S
Cu162  O172    1.965   .     S
Cu162  O170    1.957   .     S
O174   H175    0.990   .     S
O178   H179    0.990   .     S
O180   H181    0.985   .     S
O182   H183    0.984   .     S
O184   H185    0.986   .     S
H187   C750    1.081   .     S
O188   H189    0.991   .     S
O191   H192    0.990   .     S
O193   H194    0.990   .     S
O193   C753    1.378   1_554 S
O195   H196    0.992   .     S
O197   H198    0.991   .     S
C199   O232    1.301   .     A
C199   O231    1.300   .     A
C199   C215    1.447   .     S
C200   C201    1.410   .     A
C200   C796    1.426   .     S
C200   C820    1.419   .     S
C201   C208    1.420   .     A
C201   C205    1.409   .     A
C202   C206    1.414   .     A
C202   C794    1.426   1_554 S
C202   C797    1.418   1_554 S
C203   C204    1.388   .     A
C203   C796    1.418   .     S
C203   C816    1.396   .     S
C204   C205    1.396   .     A
C204   H252    1.085   .     S
C205   O261    1.375   .     S
C206   O254    1.382   .     S
C206   C223    1.410   .     A
C207   C222    1.388   .     A
C207   H239    1.083   .     S
C207   C223    1.399   .     A
C208   C224    1.402   .     A
C208   C210    1.491   .     S
C209   O263    1.382   .     S
C209   C215    1.406   .     A
C209   C409    1.411   .     S
C210   O234    1.306   .     A
C210   O233    1.317   .     A
C211   C212    1.406   .     A
C211   O240    1.380   .     S
C212   C213    1.396   .     A
C212   C220    1.448   .     S
C213   H242    1.084   .     S
C214   H243    1.083   .     S
C214   C215    1.397   .     A
C214   C411    1.382   .     S
C216   O244    1.376   .     S
C216   N230    1.376   .     A
C216   C283    1.427   .     S
C217   N229    1.375   .     A
C217   O246    1.374   .     S
C217   C348    1.427   1_455 S
C218   O248    1.374   .     S
C218   N229    1.377   .     A
C218   C351    1.415   1_455 S
C219   N230    1.377   .     A
C219   O250    1.370   .     S
C219   C284    1.415   .     S
C220   O236    1.301   .     A
C220   O235    1.300   .     A
C221   O237    1.303   .     A
C221   C223    1.468   .     S
C221   O238    1.310   .     A
C222   C797    1.396   1_554 S
C222   H847    1.081   1_554 S
C224   H256    1.083   .     S
C224   C225    1.399   .     A
C225   C820    1.421   .     S
C225   O853    1.378   .     S
C226   O257    1.382   .     S
C226   C794    1.419   1_554 S
C226   C819    1.421   1_554 S
Cu227  O233    1.965   .     S
Cu227  N229    2.040   .     S
Cu227  Cu228   2.714   .     S
Cu227  O231    1.957   .     S
Cu227  O235    1.958   .     S
Cu227  O237    1.964   .     S
Cu228  O234    1.964   .     S
Cu228  N230    2.039   .     S
Cu228  O232    1.958   .     S
Cu228  O238    1.965   .     S
Cu228  O236    1.957   .     S
O240   H241    0.990   .     S
O244   H245    0.990   .     S
O246   H247    0.985   .     S
O248   H249    0.984   .     S
O250   H251    0.986   .     S
H253   C816    1.081   .     S
O254   H255    0.991   .     S
O257   H258    0.990   .     S
O259   H260    0.990   .     S
O259   C819    1.378   1_554 S
O261   H262    0.992   .     S
O263   H264    0.991   .     S
C265   O298    1.301   .     A
C265   O297    1.300   .     A
C265   C281    1.447   .     S
C266   C267    1.410   .     A
C266   C862    1.426   .     S
C266   C886    1.419   .     S
C267   C274    1.420   .     A
C267   C271    1.409   .     A
C268   C272    1.414   .     A
C268   C860    1.426   1_554 S
C268   C863    1.418   1_554 S
C269   C270    1.388   .     A
C269   C862    1.418   .     S
C269   C882    1.396   .     S
C270   C271    1.396   .     A
C270   H318    1.085   .     S
C271   O327    1.375   .     S
C272   O320    1.382   .     S
C272   C289    1.410   .     A
C273   C288    1.388   .     A
C273   H305    1.083   .     S
C273   C289    1.399   .     A
C274   C290    1.402   .     A
C274   C276    1.491   .     S
C275   O329    1.382   .     S
C275   C281    1.406   .     A
C275   C475    1.411   .     S
C276   O300    1.306   .     A
C276   O299    1.317   .     A
C277   C278    1.406   .     A
C277   O306    1.380   .     S
C278   C279    1.396   .     A
C278   C286    1.448   .     S
C279   H308    1.084   .     S
C280   H309    1.083   .     S
C280   C281    1.397   .     A
C280   C477    1.382   .     S
C282   O310    1.376   .     S
C282   N296    1.376   .     A
C282   C349    1.427   .     S
C283   N295    1.375   .     A
C283   O312    1.374   .     S
C284   O314    1.374   .     S
C284   N295    1.377   .     A
C285   N296    1.377   .     A
C285   O316    1.370   .     S
C285   C350    1.415   .     S
C286   O302    1.301   .     A
C286   O301    1.300   .     A
C287   O303    1.303   .     A
C287   C289    1.468   .     S
C287   O304    1.310   .     A
C288   C863    1.396   1_554 S
C288   H913    1.081   1_554 S
C290   H322    1.083   .     S
C290   C291    1.399   .     A
C291   C886    1.421   .     S
C291   O919    1.378   .     S
C292   O323    1.382   .     S
C292   C860    1.419   1_554 S
C292   C885    1.421   1_554 S
Cu293  O299    1.965   .     S
Cu293  N295    2.040   .     S
Cu293  Cu294   2.714   .     S
Cu293  O297    1.957   .     S
Cu293  O301    1.958   .     S
Cu293  O303    1.964   .     S
Cu294  O300    1.964   .     S
Cu294  N296    2.039   .     S
Cu294  O298    1.958   .     S
Cu294  O304    1.965   .     S
Cu294  O302    1.957   .     S
O306   H307    0.990   .     S
O310   H311    0.990   .     S
O312   H313    0.985   .     S
O314   H315    0.984   .     S
O316   H317    0.986   .     S
H319   C882    1.081   .     S
O320   H321    0.991   .     S
O323   H324    0.990   .     S
O325   H326    0.990   .     S
O325   C885    1.378   1_554 S
O327   H328    0.992   .     S
O329   H330    0.991   .     S
C331   O364    1.301   .     A
C331   O363    1.300   .     A
C331   C347    1.447   .     S
C332   C333    1.410   .     A
C332   C928    1.426   .     S
C332   C952    1.419   .     S
C333   C340    1.420   .     A
C333   C337    1.409   .     A
C334   C338    1.414   .     A
C334   C926    1.426   1_554 S
C334   C929    1.418   1_554 S
C335   C336    1.388   .     A
C335   C928    1.418   .     S
C335   C948    1.396   .     S
C336   C337    1.396   .     A
C336   H384    1.085   .     S
C337   O393    1.375   .     S
C338   O386    1.382   .     S
C338   C355    1.410   .     A
C339   C354    1.388   .     A
C339   H371    1.083   .     S
C339   C355    1.399   .     A
C340   C356    1.402   .     A
C340   C342    1.491   .     S
C341   O395    1.382   .     S
C341   C347    1.406   .     A
C341   C541    1.411   .     S
C342   O366    1.306   .     A
C342   O365    1.317   .     A
C343   C344    1.406   .     A
C343   O372    1.380   .     S
C344   C345    1.396   .     A
C344   C352    1.448   .     S
C345   H374    1.084   .     S
C346   H375    1.083   .     S
C346   C347    1.397   .     A
C346   C543    1.382   .     S
C348   O376    1.376   .     S
C348   N362    1.376   .     A
C348   C217    1.427   1_655 S
C349   N361    1.375   .     A
C349   O378    1.374   .     S
C350   O380    1.374   .     S
C350   N361    1.377   .     A
C351   N362    1.377   .     A
C351   O382    1.370   .     S
C351   C218    1.415   1_655 S
C352   O368    1.301   .     A
C352   O367    1.300   .     A
C353   O369    1.303   .     A
C353   C355    1.468   .     S
C353   O370    1.310   .     A
C354   C929    1.396   1_554 S
C354   H979    1.081   1_554 S
C356   H388    1.083   .     S
C356   C357    1.399   .     A
C357   C952    1.421   .     S
C357   O985    1.378   .     S
C358   O389    1.382   .     S
C358   C926    1.419   1_554 S
C358   C951    1.421   1_554 S
Cu359  O365    1.965   .     S
Cu359  N361    2.040   .     S
Cu359  Cu360   2.714   .     S
Cu359  O363    1.957   .     S
Cu359  O367    1.958   .     S
Cu359  O369    1.964   .     S
Cu360  O366    1.964   .     S
Cu360  N362    2.039   .     S
Cu360  O364    1.958   .     S
Cu360  O370    1.965   .     S
Cu360  O368    1.957   .     S
O372   H373    0.990   .     S
O376   H377    0.990   .     S
O378   H379    0.985   .     S
O380   H381    0.984   .     S
O382   H383    0.986   .     S
H385   C948    1.081   .     S
O386   H387    0.991   .     S
O389   H390    0.990   .     S
O391   H392    0.990   .     S
O391   C951    1.378   1_554 S
O393   H394    0.992   .     S
O395   H396    0.991   .     S
C397   O430    1.301   .     A
C397   O429    1.300   .     A
C397   C413    1.447   .     S
C398   C399    1.410   .     A
C398   C994    1.426   .     S
C398   C1018   1.419   .     S
C399   C406    1.420   .     A
C399   C403    1.409   .     A
C400   C404    1.414   .     A
C400   C992    1.426   1_554 S
C400   C995    1.418   1_554 S
C401   C402    1.388   .     A
C401   C994    1.418   .     S
C401   C1014   1.396   .     S
C402   C403    1.396   .     A
C402   H450    1.085   .     S
C403   O459    1.375   .     S
C404   O452    1.382   .     S
C404   C421    1.410   .     A
C405   C420    1.388   .     A
C405   H437    1.083   .     S
C405   C421    1.399   .     A
C406   C422    1.402   .     A
C406   C408    1.491   .     S
C407   O461    1.382   .     S
C407   C413    1.406   .     A
C407   C13     1.411   1_565 S
C408   O432    1.306   .     A
C408   O431    1.317   .     A
C409   C410    1.406   .     A
C409   O438    1.380   .     S
C410   C411    1.396   .     A
C410   C418    1.448   .     S
C411   H440    1.084   .     S
C412   H441    1.083   .     S
C412   C413    1.397   .     A
C412   C15     1.382   1_565 S
C414   O442    1.376   .     S
C414   N428    1.376   .     A
C414   C481    1.427   .     S
C415   N427    1.375   .     A
C415   O444    1.374   .     S
C415   C546    1.427   1_455 S
C416   O446    1.374   .     S
C416   N427    1.377   .     A
C416   C549    1.415   1_455 S
C417   N428    1.377   .     A
C417   O448    1.370   .     S
C417   C482    1.415   .     S
C418   O434    1.301   .     A
C418   O433    1.300   .     A
C419   O435    1.303   .     A
C419   C421    1.468   .     S
C419   O436    1.310   .     A
C420   C995    1.396   1_554 S
C420   H1045   1.081   1_554 S
C422   H454    1.083   .     S
C422   C423    1.399   .     A
C423   C1018   1.421   .     S
C423   O1051   1.378   .     S
C424   O455    1.382   .     S
C424   C992    1.419   1_554 S
C424   C1017   1.421   1_554 S
Cu425  O431    1.965   .     S
Cu425  N427    2.040   .     S
Cu425  Cu426   2.714   .     S
Cu425  O429    1.957   .     S
Cu425  O433    1.958   .     S
Cu425  O435    1.964   .     S
Cu426  O432    1.964   .     S
Cu426  N428    2.039   .     S
Cu426  O430    1.958   .     S
Cu426  O436    1.965   .     S
Cu426  O434    1.957   .     S
O438   H439    0.990   .     S
O442   H443    0.990   .     S
O444   H445    0.985   .     S
O446   H447    0.984   .     S
O448   H449    0.986   .     S
H451   C1014   1.081   .     S
O452   H453    0.991   .     S
O455   H456    0.990   .     S
O457   H458    0.990   .     S
O457   C1017   1.378   1_554 S
O459   H460    0.992   .     S
O461   H462    0.991   .     S
C463   O496    1.301   .     A
C463   O495    1.300   .     A
C463   C479    1.447   .     S
C464   C465    1.410   .     A
C464   C1060   1.426   .     S
C464   C1084   1.419   .     S
C465   C472    1.420   .     A
C465   C469    1.409   .     A
C466   C470    1.414   .     A
C466   C1058   1.426   1_554 S
C466   C1061   1.418   1_554 S
C467   C468    1.388   .     A
C467   C1060   1.418   .     S
C467   C1080   1.396   .     S
C468   C469    1.396   .     A
C468   H516    1.085   .     S
C469   O525    1.375   .     S
C470   O518    1.382   .     S
C470   C487    1.410   .     A
C471   C486    1.388   .     A
C471   H503    1.083   .     S
C471   C487    1.399   .     A
C472   C488    1.402   .     A
C472   C474    1.491   .     S
C473   O527    1.382   .     S
C473   C479    1.406   .     A
C473   C79     1.411   1_565 S
C474   O498    1.306   .     A
C474   O497    1.317   .     A
C475   C476    1.406   .     A
C475   O504    1.380   .     S
C476   C477    1.396   .     A
C476   C484    1.448   .     S
C477   H506    1.084   .     S
C478   H507    1.083   .     S
C478   C479    1.397   .     A
C478   C81     1.382   1_565 S
C480   O508    1.376   .     S
C480   N494    1.376   .     A
C480   C547    1.427   .     S
C481   N493    1.375   .     A
C481   O510    1.374   .     S
C482   O512    1.374   .     S
C482   N493    1.377   .     A
C483   N494    1.377   .     A
C483   O514    1.370   .     S
C483   C548    1.415   .     S
C484   O500    1.301   .     A
C484   O499    1.300   .     A
C485   O501    1.303   .     A
C485   C487    1.468   .     S
C485   O502    1.310   .     A
C486   C1061   1.396   1_554 S
C486   H1111   1.081   1_554 S
C488   H520    1.083   .     S
C488   C489    1.399   .     A
C489   C1084   1.421   .     S
C489   O1117   1.378   .     S
C490   O521    1.382   .     S
C490   C1058   1.419   1_554 S
C490   C1083   1.421   1_554 S
Cu491  O497    1.965   .     S
Cu491  N493    2.040   .     S
Cu491  Cu492   2.714   .     S
Cu491  O495    1.957   .     S
Cu491  O499    1.958   .     S
Cu491  O501    1.964   .     S
Cu492  O498    1.964   .     S
Cu492  N494    2.039   .     S
Cu492  O496    1.958   .     S
Cu492  O502    1.965   .     S
Cu492  O500    1.957   .     S
O504   H505    0.990   .     S
O508   H509    0.990   .     S
O510   H511    0.985   .     S
O512   H513    0.984   .     S
O514   H515    0.986   .     S
H517   C1080   1.081   .     S
O518   H519    0.991   .     S
O521   H522    0.990   .     S
O523   H524    0.990   .     S
O523   C1083   1.378   1_554 S
O525   H526    0.992   .     S
O527   H528    0.991   .     S
C529   O562    1.301   .     A
C529   O561    1.300   .     A
C529   C545    1.447   .     S
C530   C531    1.410   .     A
C530   C1126   1.426   .     S
C530   C1150   1.419   .     S
C531   C538    1.420   .     A
C531   C535    1.409   .     A
C532   C536    1.414   .     A
C532   C1124   1.426   1_554 S
C532   C1127   1.418   1_554 S
C533   C534    1.388   .     A
C533   C1126   1.418   .     S
C533   C1146   1.396   .     S
C534   C535    1.396   .     A
C534   H582    1.085   .     S
C535   O591    1.375   .     S
C536   O584    1.382   .     S
C536   C553    1.410   .     A
C537   C552    1.388   .     A
C537   H569    1.083   .     S
C537   C553    1.399   .     A
C538   C554    1.402   .     A
C538   C540    1.491   .     S
C539   O593    1.382   .     S
C539   C545    1.406   .     A
C539   C145    1.411   1_565 S
C540   O564    1.306   .     A
C540   O563    1.317   .     A
C541   C542    1.406   .     A
C541   O570    1.380   .     S
C542   C543    1.396   .     A
C542   C550    1.448   .     S
C543   H572    1.084   .     S
C544   H573    1.083   .     S
C544   C545    1.397   .     A
C544   C147    1.382   1_565 S
C546   O574    1.376   .     S
C546   N560    1.376   .     A
C546   C415    1.427   1_655 S
C547   N559    1.375   .     A
C547   O576    1.374   .     S
C548   O578    1.374   .     S
C548   N559    1.377   .     A
C549   N560    1.377   .     A
C549   O580    1.370   .     S
C549   C416    1.415   1_655 S
C550   O566    1.301   .     A
C550   O565    1.300   .     A
C551   O567    1.303   .     A
C551   C553    1.468   .     S
C551   O568    1.310   .     A
C552   C1127   1.396   1_554 S
C552   H1177   1.081   1_554 S
C554   H586    1.083   .     S
C554   C555    1.399   .     A
C555   C1150   1.421   .     S
C555   O1183   1.378   .     S
C556   O587    1.382   .     S
C556   C1124   1.419   1_554 S
C556   C1149   1.421   1_554 S
Cu557  O563    1.965   .     S
Cu557  N559    2.040   .     S
Cu557  Cu558   2.714   .     S
Cu557  O561    1.957   .     S
Cu557  O565    1.958   .     S
Cu557  O567    1.964   .     S
Cu558  O564    1.964   .     S
Cu558  N560    2.039   .     S
Cu558  O562    1.958   .     S
Cu558  O568    1.965   .     S
Cu558  O566    1.957   .     S
O570   H571    0.990   .     S
O574   H575    0.990   .     S
O576   H577    0.985   .     S
O578   H579    0.984   .     S
O580   H581    0.986   .     S
H583   C1146   1.081   .     S
O584   H585    0.991   .     S
O587   H588    0.990   .     S
O589   H590    0.990   .     S
O589   C1149   1.378   1_554 S
O591   H592    0.992   .     S
O593   H594    0.991   .     S
C595   O628    1.301   .     A
C595   O627    1.300   .     A
C595   C611    1.447   .     S
C596   C597    1.410   .     A
C596   C4      1.426   1_556 S
C596   C28     1.419   1_556 S
C597   C604    1.420   .     A
C597   C601    1.409   .     A
C598   C602    1.414   .     A
C599   C600    1.388   .     A
C599   C4      1.418   1_556 S
C599   C24     1.396   1_556 S
C600   C601    1.396   .     A
C600   H648    1.085   .     S
C601   O657    1.375   .     S
C602   O650    1.382   .     S
C602   C619    1.410   .     A
C603   C618    1.388   .     A
C603   H635    1.083   .     S
C603   C619    1.399   .     A
C604   C620    1.402   .     A
C604   C606    1.491   .     S
C605   O659    1.382   .     S
C605   C611    1.406   .     A
C605   C805    1.411   .     S
C606   O630    1.306   .     A
C606   O629    1.317   .     A
C607   C608    1.406   .     A
C607   O636    1.380   .     S
C607   C1001   1.411   1_545 S
C608   C609    1.396   .     A
C608   C616    1.448   .     S
C609   H638    1.084   .     S
C609   C1006   1.382   1_545 S
C610   H639    1.083   .     S
C610   C611    1.397   .     A
C610   C807    1.382   .     S
C612   O640    1.376   .     S
C612   N626    1.376   .     A
C612   C679    1.427   .     S
C613   N625    1.375   .     A
C613   O642    1.374   .     S
C613   C744    1.427   1_455 S
C614   O644    1.374   .     S
C614   N625    1.377   .     A
C614   C747    1.415   1_455 S
C615   N626    1.377   .     A
C615   O646    1.370   .     S
C615   C680    1.415   .     S
C616   O632    1.301   .     A
C616   O631    1.300   .     A
C617   O633    1.303   .     A
C617   C619    1.468   .     S
C617   O634    1.310   .     A
C620   H652    1.083   .     S
C620   C621    1.399   .     A
C621   C28     1.421   1_556 S
C621   O61     1.378   1_556 S
C622   O653    1.382   .     S
Cu623  O629    1.965   .     S
Cu623  N625    2.040   .     S
Cu623  Cu624   2.714   .     S
Cu623  O627    1.957   .     S
Cu623  O631    1.958   .     S
Cu623  O633    1.964   .     S
Cu624  O630    1.964   .     S
Cu624  N626    2.039   .     S
Cu624  O628    1.958   .     S
Cu624  O634    1.965   .     S
Cu624  O632    1.957   .     S
O636   H637    0.990   .     S
O640   H641    0.990   .     S
O642   H643    0.985   .     S
O644   H645    0.984   .     S
O646   H647    0.986   .     S
H649   C24     1.081   1_556 S
O650   H651    0.991   .     S
O653   H654    0.990   .     S
O655   H656    0.990   .     S
O657   H658    0.992   .     S
O659   H660    0.991   .     S
C661   O694    1.301   .     A
C661   O693    1.300   .     A
C661   C677    1.447   .     S
C662   C663    1.410   .     A
C662   C70     1.426   1_556 S
C662   C94     1.419   1_556 S
C663   C670    1.420   .     A
C663   C667    1.409   .     A
C664   C668    1.414   .     A
C665   C666    1.388   .     A
C665   C70     1.418   1_556 S
C665   C90     1.396   1_556 S
C666   C667    1.396   .     A
C666   H714    1.085   .     S
C667   O723    1.375   .     S
C668   O716    1.382   .     S
C668   C685    1.410   .     A
C669   C684    1.388   .     A
C669   H701    1.083   .     S
C669   C685    1.399   .     A
C670   C686    1.402   .     A
C670   C672    1.491   .     S
C671   O725    1.382   .     S
C671   C677    1.406   .     A
C671   C871    1.411   .     S
C672   O696    1.306   .     A
C672   O695    1.317   .     A
C673   C674    1.406   .     A
C673   O702    1.380   .     S
C673   C1067   1.411   1_545 S
C674   C675    1.396   .     A
C674   C682    1.448   .     S
C675   H704    1.084   .     S
C675   C1072   1.382   1_545 S
C676   H705    1.083   .     S
C676   C677    1.397   .     A
C676   C873    1.382   .     S
C678   O706    1.376   .     S
C678   N692    1.376   .     A
C678   C745    1.427   .     S
C679   N691    1.375   .     A
C679   O708    1.374   .     S
C680   O710    1.374   .     S
C680   N691    1.377   .     A
C681   N692    1.377   .     A
C681   O712    1.370   .     S
C681   C746    1.415   .     S
C682   O698    1.301   .     A
C682   O697    1.300   .     A
C683   O699    1.303   .     A
C683   C685    1.468   .     S
C683   O700    1.310   .     A
C686   H718    1.083   .     S
C686   C687    1.399   .     A
C687   C94     1.421   1_556 S
C687   O127    1.378   1_556 S
C688   O719    1.382   .     S
Cu689  O695    1.965   .     S
Cu689  N691    2.040   .     S
Cu689  Cu690   2.714   .     S
Cu689  O693    1.957   .     S
Cu689  O697    1.958   .     S
Cu689  O699    1.964   .     S
Cu690  O696    1.964   .     S
Cu690  N692    2.039   .     S
Cu690  O694    1.958   .     S
Cu690  O700    1.965   .     S
Cu690  O698    1.957   .     S
O702   H703    0.990   .     S
O706   H707    0.990   .     S
O708   H709    0.985   .     S
O710   H711    0.984   .     S
O712   H713    0.986   .     S
H715   C90     1.081   1_556 S
O716   H717    0.991   .     S
O719   H720    0.990   .     S
O721   H722    0.990   .     S
O723   H724    0.992   .     S
O725   H726    0.991   .     S
C727   O760    1.301   .     A
C727   O759    1.300   .     A
C727   C743    1.447   .     S
C728   C729    1.410   .     A
C728   C136    1.426   1_556 S
C728   C160    1.419   1_556 S
C729   C736    1.420   .     A
C729   C733    1.409   .     A
C730   C734    1.414   .     A
C731   C732    1.388   .     A
C731   C136    1.418   1_556 S
C731   C156    1.396   1_556 S
C732   C733    1.396   .     A
C732   H780    1.085   .     S
C733   O789    1.375   .     S
C734   O782    1.382   .     S
C734   C751    1.410   .     A
C735   C750    1.388   .     A
C735   H767    1.083   .     S
C735   C751    1.399   .     A
C736   C752    1.402   .     A
C736   C738    1.491   .     S
C737   O791    1.382   .     S
C737   C743    1.406   .     A
C737   C937    1.411   .     S
C738   O762    1.306   .     A
C738   O761    1.317   .     A
C739   C740    1.406   .     A
C739   O768    1.380   .     S
C739   C1133   1.411   1_545 S
C740   C741    1.396   .     A
C740   C748    1.448   .     S
C741   H770    1.084   .     S
C741   C1138   1.382   1_545 S
C742   H771    1.083   .     S
C742   C743    1.397   .     A
C742   C939    1.382   .     S
C744   O772    1.376   .     S
C744   N758    1.376   .     A
C744   C613    1.427   1_655 S
C745   N757    1.375   .     A
C745   O774    1.374   .     S
C746   O776    1.374   .     S
C746   N757    1.377   .     A
C747   N758    1.377   .     A
C747   O778    1.370   .     S
C747   C614    1.415   1_655 S
C748   O764    1.301   .     A
C748   O763    1.300   .     A
C749   O765    1.303   .     A
C749   C751    1.468   .     S
C749   O766    1.310   .     A
C752   H784    1.083   .     S
C752   C753    1.399   .     A
C753   C160    1.421   1_556 S
C753   O193    1.378   1_556 S
C754   O785    1.382   .     S
Cu755  O761    1.965   .     S
Cu755  N757    2.040   .     S
Cu755  Cu756   2.714   .     S
Cu755  O759    1.957   .     S
Cu755  O763    1.958   .     S
Cu755  O765    1.964   .     S
Cu756  O762    1.964   .     S
Cu756  N758    2.039   .     S
Cu756  O760    1.958   .     S
Cu756  O766    1.965   .     S
Cu756  O764    1.957   .     S
O768   H769    0.990   .     S
O772   H773    0.990   .     S
O774   H775    0.985   .     S
O776   H777    0.984   .     S
O778   H779    0.986   .     S
H781   C156    1.081   1_556 S
O782   H783    0.991   .     S
O785   H786    0.990   .     S
O787   H788    0.990   .     S
O789   H790    0.992   .     S
O791   H792    0.991   .     S
C793   O826    1.301   .     A
C793   O825    1.300   .     A
C793   C809    1.447   .     S
C794   C795    1.410   .     A
C794   C202    1.426   1_556 S
C794   C226    1.419   1_556 S
C795   C802    1.420   .     A
C795   C799    1.409   .     A
C796   C800    1.414   .     A
C797   C798    1.388   .     A
C797   C202    1.418   1_556 S
C797   C222    1.396   1_556 S
C798   C799    1.396   .     A
C798   H846    1.085   .     S
C799   O855    1.375   .     S
C800   O848    1.382   .     S
C800   C817    1.410   .     A
C801   C816    1.388   .     A
C801   H833    1.083   .     S
C801   C817    1.399   .     A
C802   C818    1.402   .     A
C802   C804    1.491   .     S
C803   O857    1.382   .     S
C803   C809    1.406   .     A
C803   C1003   1.411   .     S
C804   O828    1.306   .     A
C804   O827    1.317   .     A
C805   C806    1.406   .     A
C805   O834    1.380   .     S
C806   C807    1.396   .     A
C806   C814    1.448   .     S
C807   H836    1.084   .     S
C808   H837    1.083   .     S
C808   C809    1.397   .     A
C808   C1005   1.382   .     S
C810   O838    1.376   .     S
C810   N824    1.376   .     A
C810   C877    1.427   .     S
C811   N823    1.375   .     A
C811   O840    1.374   .     S
C811   C942    1.427   1_455 S
C812   O842    1.374   .     S
C812   N823    1.377   .     A
C812   C945    1.415   1_455 S
C813   N824    1.377   .     A
C813   O844    1.370   .     S
C813   C878    1.415   .     S
C814   O830    1.301   .     A
C814   O829    1.300   .     A
C815   O831    1.303   .     A
C815   C817    1.468   .     S
C815   O832    1.310   .     A
C818   H850    1.083   .     S
C818   C819    1.399   .     A
C819   C226    1.421   1_556 S
C819   O259    1.378   1_556 S
C820   O851    1.382   .     S
Cu821  O827    1.965   .     S
Cu821  N823    2.040   .     S
Cu821  Cu822   2.714   .     S
Cu821  O825    1.957   .     S
Cu821  O829    1.958   .     S
Cu821  O831    1.964   .     S
Cu822  O828    1.964   .     S
Cu822  N824    2.039   .     S
Cu822  O826    1.958   .     S
Cu822  O832    1.965   .     S
Cu822  O830    1.957   .     S
O834   H835    0.990   .     S
O838   H839    0.990   .     S
O840   H841    0.985   .     S
O842   H843    0.984   .     S
O844   H845    0.986   .     S
H847   C222    1.081   1_556 S
O848   H849    0.991   .     S
O851   H852    0.990   .     S
O853   H854    0.990   .     S
O855   H856    0.992   .     S
O857   H858    0.991   .     S
C859   O892    1.301   .     A
C859   O891    1.300   .     A
C859   C875    1.447   .     S
C860   C861    1.410   .     A
C860   C268    1.426   1_556 S
C860   C292    1.419   1_556 S
C861   C868    1.420   .     A
C861   C865    1.409   .     A
C862   C866    1.414   .     A
C863   C864    1.388   .     A
C863   C268    1.418   1_556 S
C863   C288    1.396   1_556 S
C864   C865    1.396   .     A
C864   H912    1.085   .     S
C865   O921    1.375   .     S
C866   O914    1.382   .     S
C866   C883    1.410   .     A
C867   C882    1.388   .     A
C867   H899    1.083   .     S
C867   C883    1.399   .     A
C868   C884    1.402   .     A
C868   C870    1.491   .     S
C869   O923    1.382   .     S
C869   C875    1.406   .     A
C869   C1069   1.411   .     S
C870   O894    1.306   .     A
C870   O893    1.317   .     A
C871   C872    1.406   .     A
C871   O900    1.380   .     S
C872   C873    1.396   .     A
C872   C880    1.448   .     S
C873   H902    1.084   .     S
C874   H903    1.083   .     S
C874   C875    1.397   .     A
C874   C1071   1.382   .     S
C876   O904    1.376   .     S
C876   N890    1.376   .     A
C876   C943    1.427   .     S
C877   N889    1.375   .     A
C877   O906    1.374   .     S
C878   O908    1.374   .     S
C878   N889    1.377   .     A
C879   N890    1.377   .     A
C879   O910    1.370   .     S
C879   C944    1.415   .     S
C880   O896    1.301   .     A
C880   O895    1.300   .     A
C881   O897    1.303   .     A
C881   C883    1.468   .     S
C881   O898    1.310   .     A
C884   H916    1.083   .     S
C884   C885    1.399   .     A
C885   C292    1.421   1_556 S
C885   O325    1.378   1_556 S
C886   O917    1.382   .     S
Cu887  O893    1.965   .     S
Cu887  N889    2.040   .     S
Cu887  Cu888   2.714   .     S
Cu887  O891    1.957   .     S
Cu887  O895    1.958   .     S
Cu887  O897    1.964   .     S
Cu888  O894    1.964   .     S
Cu888  N890    2.039   .     S
Cu888  O892    1.958   .     S
Cu888  O898    1.965   .     S
Cu888  O896    1.957   .     S
O900   H901    0.990   .     S
O904   H905    0.990   .     S
O906   H907    0.985   .     S
O908   H909    0.984   .     S
O910   H911    0.986   .     S
H913   C288    1.081   1_556 S
O914   H915    0.991   .     S
O917   H918    0.990   .     S
O919   H920    0.990   .     S
O921   H922    0.992   .     S
O923   H924    0.991   .     S
C925   O958    1.301   .     A
C925   O957    1.300   .     A
C925   C941    1.447   .     S
C926   C927    1.410   .     A
C926   C334    1.426   1_556 S
C926   C358    1.419   1_556 S
C927   C934    1.420   .     A
C927   C931    1.409   .     A
C928   C932    1.414   .     A
C929   C930    1.388   .     A
C929   C334    1.418   1_556 S
C929   C354    1.396   1_556 S
C930   C931    1.396   .     A
C930   H978    1.085   .     S
C931   O987    1.375   .     S
C932   O980    1.382   .     S
C932   C949    1.410   .     A
C933   C948    1.388   .     A
C933   H965    1.083   .     S
C933   C949    1.399   .     A
C934   C950    1.402   .     A
C934   C936    1.491   .     S
C935   O989    1.382   .     S
C935   C941    1.406   .     A
C935   C1135   1.411   .     S
C936   O960    1.306   .     A
C936   O959    1.317   .     A
C937   C938    1.406   .     A
C937   O966    1.380   .     S
C938   C939    1.396   .     A
C938   C946    1.448   .     S
C939   H968    1.084   .     S
C940   H969    1.083   .     S
C940   C941    1.397   .     A
C940   C1137   1.382   .     S
C942   O970    1.376   .     S
C942   N956    1.376   .     A
C942   C811    1.427   1_655 S
C943   N955    1.375   .     A
C943   O972    1.374   .     S
C944   O974    1.374   .     S
C944   N955    1.377   .     A
C945   N956    1.377   .     A
C945   O976    1.370   .     S
C945   C812    1.415   1_655 S
C946   O962    1.301   .     A
C946   O961    1.300   .     A
C947   O963    1.303   .     A
C947   C949    1.468   .     S
C947   O964    1.310   .     A
C950   H982    1.083   .     S
C950   C951    1.399   .     A
C951   C358    1.421   1_556 S
C951   O391    1.378   1_556 S
C952   O983    1.382   .     S
Cu953  O959    1.965   .     S
Cu953  N955    2.040   .     S
Cu953  Cu954   2.714   .     S
Cu953  O957    1.957   .     S
Cu953  O961    1.958   .     S
Cu953  O963    1.964   .     S
Cu954  O960    1.964   .     S
Cu954  N956    2.039   .     S
Cu954  O958    1.958   .     S
Cu954  O964    1.965   .     S
Cu954  O962    1.957   .     S
O966   H967    0.990   .     S
O970   H971    0.990   .     S
O972   H973    0.985   .     S
O974   H975    0.984   .     S
O976   H977    0.986   .     S
H979   C354    1.081   1_556 S
O980   H981    0.991   .     S
O983   H984    0.990   .     S
O985   H986    0.990   .     S
O987   H988    0.992   .     S
O989   H990    0.991   .     S
C991   O1024   1.301   .     A
C991   O1023   1.300   .     A
C991   C1007   1.447   .     S
C992   C993    1.410   .     A
C992   C400    1.426   1_556 S
C992   C424    1.419   1_556 S
C993   C1000   1.420   .     A
C993   C997    1.409   .     A
C994   C998    1.414   .     A
C995   C996    1.388   .     A
C995   C400    1.418   1_556 S
C995   C420    1.396   1_556 S
C996   C997    1.396   .     A
C996   H1044   1.085   .     S
C997   O1053   1.375   .     S
C998   O1046   1.382   .     S
C998   C1015   1.410   .     A
C999   C1014   1.388   .     A
C999   H1031   1.083   .     S
C999   C1015   1.399   .     A
C1000  C1016   1.402   .     A
C1000  C1002   1.491   .     S
C1001  O1055   1.382   .     S
C1001  C1007   1.406   .     A
C1001  C607    1.411   1_565 S
C1002  O1026   1.306   .     A
C1002  O1025   1.317   .     A
C1003  C1004   1.406   .     A
C1003  O1032   1.380   .     S
C1004  C1005   1.396   .     A
C1004  C1012   1.448   .     S
C1005  H1034   1.084   .     S
C1006  H1035   1.083   .     S
C1006  C1007   1.397   .     A
C1006  C609    1.382   1_565 S
C1008  O1036   1.376   .     S
C1008  N1022   1.376   .     A
C1008  C1075   1.427   .     S
C1009  N1021   1.375   .     A
C1009  O1038   1.374   .     S
C1009  C1140   1.427   1_455 S
C1010  O1040   1.374   .     S
C1010  N1021   1.377   .     A
C1010  C1143   1.415   1_455 S
C1011  N1022   1.377   .     A
C1011  O1042   1.370   .     S
C1011  C1076   1.415   .     S
C1012  O1028   1.301   .     A
C1012  O1027   1.300   .     A
C1013  O1029   1.303   .     A
C1013  C1015   1.468   .     S
C1013  O1030   1.310   .     A
C1016  H1048   1.083   .     S
C1016  C1017   1.399   .     A
C1017  C424    1.421   1_556 S
C1017  O457    1.378   1_556 S
C1018  O1049   1.382   .     S
Cu1019 O1025   1.965   .     S
Cu1019 N1021   2.040   .     S
Cu1019 Cu1020  2.714   .     S
Cu1019 O1023   1.957   .     S
Cu1019 O1027   1.958   .     S
Cu1019 O1029   1.964   .     S
Cu1020 O1026   1.964   .     S
Cu1020 N1022   2.039   .     S
Cu1020 O1024   1.958   .     S
Cu1020 O1030   1.965   .     S
Cu1020 O1028   1.957   .     S
O1032  H1033   0.990   .     S
O1036  H1037   0.990   .     S
O1038  H1039   0.985   .     S
O1040  H1041   0.984   .     S
O1042  H1043   0.986   .     S
H1045  C420    1.081   1_556 S
O1046  H1047   0.991   .     S
O1049  H1050   0.990   .     S
O1051  H1052   0.990   .     S
O1053  H1054   0.992   .     S
O1055  H1056   0.991   .     S
C1057  O1090   1.301   .     A
C1057  O1089   1.300   .     A
C1057  C1073   1.447   .     S
C1058  C1059   1.410   .     A
C1058  C466    1.426   1_556 S
C1058  C490    1.419   1_556 S
C1059  C1066   1.420   .     A
C1059  C1063   1.409   .     A
C1060  C1064   1.414   .     A
C1061  C1062   1.388   .     A
C1061  C466    1.418   1_556 S
C1061  C486    1.396   1_556 S
C1062  C1063   1.396   .     A
C1062  H1110   1.085   .     S
C1063  O1119   1.375   .     S
C1064  O1112   1.382   .     S
C1064  C1081   1.410   .     A
C1065  C1080   1.388   .     A
C1065  H1097   1.083   .     S
C1065  C1081   1.399   .     A
C1066  C1082   1.402   .     A
C1066  C1068   1.491   .     S
C1067  O1121   1.382   .     S
C1067  C1073   1.406   .     A
C1067  C673    1.411   1_565 S
C1068  O1092   1.306   .     A
C1068  O1091   1.317   .     A
C1069  C1070   1.406   .     A
C1069  O1098   1.380   .     S
C1070  C1071   1.396   .     A
C1070  C1078   1.448   .     S
C1071  H1100   1.084   .     S
C1072  H1101   1.083   .     S
C1072  C1073   1.397   .     A
C1072  C675    1.382   1_565 S
C1074  O1102   1.376   .     S
C1074  N1088   1.376   .     A
C1074  C1141   1.427   .     S
C1075  N1087   1.375   .     A
C1075  O1104   1.374   .     S
C1076  O1106   1.374   .     S
C1076  N1087   1.377   .     A
C1077  N1088   1.377   .     A
C1077  O1108   1.370   .     S
C1077  C1142   1.415   .     S
C1078  O1094   1.301   .     A
C1078  O1093   1.300   .     A
C1079  O1095   1.303   .     A
C1079  C1081   1.468   .     S
C1079  O1096   1.310   .     A
C1082  H1114   1.083   .     S
C1082  C1083   1.399   .     A
C1083  C490    1.421   1_556 S
C1083  O523    1.378   1_556 S
C1084  O1115   1.382   .     S
Cu1085 O1091   1.965   .     S
Cu1085 N1087   2.040   .     S
Cu1085 Cu1086  2.714   .     S
Cu1085 O1089   1.957   .     S
Cu1085 O1093   1.958   .     S
Cu1085 O1095   1.964   .     S
Cu1086 O1092   1.964   .     S
Cu1086 N1088   2.039   .     S
Cu1086 O1090   1.958   .     S
Cu1086 O1096   1.965   .     S
Cu1086 O1094   1.957   .     S
O1098  H1099   0.990   .     S
O1102  H1103   0.990   .     S
O1104  H1105   0.985   .     S
O1106  H1107   0.984   .     S
O1108  H1109   0.986   .     S
H1111  C486    1.081   1_556 S
O1112  H1113   0.991   .     S
O1115  H1116   0.990   .     S
O1117  H1118   0.990   .     S
O1119  H1120   0.992   .     S
O1121  H1122   0.991   .     S
C1123  O1156   1.301   .     A
C1123  O1155   1.300   .     A
C1123  C1139   1.447   .     S
C1124  C1125   1.410   .     A
C1124  C532    1.426   1_556 S
C1124  C556    1.419   1_556 S
C1125  C1132   1.420   .     A
C1125  C1129   1.409   .     A
C1126  C1130   1.414   .     A
C1127  C1128   1.388   .     A
C1127  C532    1.418   1_556 S
C1127  C552    1.396   1_556 S
C1128  C1129   1.396   .     A
C1128  H1176   1.085   .     S
C1129  O1185   1.375   .     S
C1130  O1178   1.382   .     S
C1130  C1147   1.410   .     A
C1131  C1146   1.388   .     A
C1131  H1163   1.083   .     S
C1131  C1147   1.399   .     A
C1132  C1148   1.402   .     A
C1132  C1134   1.491   .     S
C1133  O1187   1.382   .     S
C1133  C1139   1.406   .     A
C1133  C739    1.411   1_565 S
C1134  O1158   1.306   .     A
C1134  O1157   1.317   .     A
C1135  C1136   1.406   .     A
C1135  O1164   1.380   .     S
C1136  C1137   1.396   .     A
C1136  C1144   1.448   .     S
C1137  H1166   1.084   .     S
C1138  H1167   1.083   .     S
C1138  C1139   1.397   .     A
C1138  C741    1.382   1_565 S
C1140  O1168   1.376   .     S
C1140  N1154   1.376   .     A
C1140  C1009   1.427   1_655 S
C1141  N1153   1.375   .     A
C1141  O1170   1.374   .     S
C1142  O1172   1.374   .     S
C1142  N1153   1.377   .     A
C1143  N1154   1.377   .     A
C1143  O1174   1.370   .     S
C1143  C1010   1.415   1_655 S
C1144  O1160   1.301   .     A
C1144  O1159   1.300   .     A
C1145  O1161   1.303   .     A
C1145  C1147   1.468   .     S
C1145  O1162   1.310   .     A
C1148  H1180   1.083   .     S
C1148  C1149   1.399   .     A
C1149  C556    1.421   1_556 S
C1149  O589    1.378   1_556 S
C1150  O1181   1.382   .     S
Cu1151 O1157   1.965   .     S
Cu1151 N1153   2.040   .     S
Cu1151 Cu1152  2.714   .     S
Cu1151 O1155   1.957   .     S
Cu1151 O1159   1.958   .     S
Cu1151 O1161   1.964   .     S
Cu1152 O1158   1.964   .     S
Cu1152 N1154   2.039   .     S
Cu1152 O1156   1.958   .     S
Cu1152 O1162   1.965   .     S
Cu1152 O1160   1.957   .     S
O1164  H1165   0.990   .     S
O1168  H1169   0.990   .     S
O1170  H1171   0.985   .     S
O1172  H1173   0.984   .     S
O1174  H1175   0.986   .     S
H1177  C552    1.081   1_556 S
O1178  H1179   0.991   .     S
O1181  H1182   0.990   .     S
O1183  H1184   0.990   .     S
O1185  H1186   0.992   .     S
O1187  H1188   0.991   .     S
