data_str_m2_o2_o5_pcu_sym.56
_audit_creation_date              2020-01-03
_audit_creation_method            'Materials Studio'
_symmetry_space_group_name_H-M    'P1'
_symmetry_Int_Tables_number       1
_symmetry_cell_setting            triclinic
loop_
_symmetry_equiv_pos_as_xyz
  x,y,z
_cell_length_a                    30.2252
_cell_length_b                    27.8168
_cell_length_c                    27.2496
_cell_angle_alpha                 89.9999
_cell_angle_beta                  90.4735
_cell_angle_gamma                 90.0000
loop_
_atom_site_label
_atom_site_type_symbol
_atom_site_fract_x
_atom_site_fract_y
_atom_site_fract_z
_atom_site_U_iso_or_equiv
_atom_site_adp_type
_atom_site_occupancy
C1     C     0.16497   0.25000   0.16661   0.00000  Uiso   1.00
C2     C     0.27367   0.44587   0.20228   0.00000  Uiso   1.00
C3     C     0.24997   0.25000   0.07354   0.00000  Uiso   1.00
C4     C     0.25003   0.25000   0.25979   0.00000  Uiso   1.00
C5     C     0.25000   0.02737   0.16667   0.00000  Uiso   1.00
C6     C     0.25000   0.47261   0.16667   0.00000  Uiso   1.00
C7     C     0.24999   0.25000   0.02184   0.00000  Uiso   1.00
C8     C     0.25001   0.25000   0.31149   0.00000  Uiso   1.00
C9     C     0.04737   0.28856   0.14564   0.00000  Uiso   1.00
C10    C     0.45230   0.21142   0.14572   0.00000  Uiso   1.00
C11    C     0.45263   0.28855   0.18771   0.00000  Uiso   1.00
C12    C     0.33503   0.25000   0.16672   0.00000  Uiso   1.00
C13    C     0.04770   0.21141   0.18760   0.00000  Uiso   1.00
C14    C     0.09339   0.28873   0.14613   0.00000  Uiso   1.00
C15    C     0.40630   0.21124   0.14628   0.00000  Uiso   1.00
C16    C     0.40661   0.28872   0.18722   0.00000  Uiso   1.00
C17    C     0.09370   0.21124   0.18704   0.00000  Uiso   1.00
C18    C     0.11672   0.24999   0.16659   0.00000  Uiso   1.00
C19    C     0.38328   0.24999   0.16675   0.00000  Uiso   1.00
C20    C     0.02425   0.24999   0.16664   0.00000  Uiso   1.00
C21    C     0.47575   0.24999   0.16669   0.00000  Uiso   1.00
C22    C     0.28147   0.10466   0.19259   0.00000  Uiso   1.00
C23    C     0.22613   0.39532   0.13218   0.00000  Uiso   1.00
C24    C     0.21853   0.10466   0.14074   0.00000  Uiso   1.00
C25    C     0.27387   0.39532   0.20116   0.00000  Uiso   1.00
C26    C     0.28247   0.05412   0.19235   0.00000  Uiso   1.00
C27    C     0.22633   0.44587   0.13106   0.00000  Uiso   1.00
C28    C     0.21753   0.05412   0.14098   0.00000  Uiso   1.00
Cu29   Cu    0.25000   0.29822   0.16667   0.00000  Uiso   1.00
Cu30   Cu    0.25000   0.20179   0.16667   0.00000  Uiso   1.00
F31    F     0.31237   0.12884   0.21911   0.00000  Uiso   1.00
F32    F     0.20178   0.37111   0.09831   0.00000  Uiso   1.00
F33    F     0.18763   0.12884   0.11423   0.00000  Uiso   1.00
F34    F     0.29822   0.37111   0.23502   0.00000  Uiso   1.00
F35    F     0.02541   0.32555   0.12389   0.00000  Uiso   1.00
F36    F     0.47391   0.17444   0.12394   0.00000  Uiso   1.00
F37    F     0.47459   0.32554   0.20946   0.00000  Uiso   1.00
F38    F     0.02609   0.17442   0.20937   0.00000  Uiso   1.00
H39    H     0.11077   0.31868   0.12973   0.00000  Uiso   1.00
H40    H     0.38866   0.18129   0.12990   0.00000  Uiso   1.00
H41    H     0.38923   0.31867   0.20363   0.00000  Uiso   1.00
H42    H     0.11134   0.18128   0.20341   0.00000  Uiso   1.00
H43    H     0.30911   0.03665   0.21206   0.00000  Uiso   1.00
H44    H     0.20815   0.46333   0.10182   0.00000  Uiso   1.00
H45    H     0.19089   0.03665   0.12128   0.00000  Uiso   1.00
H46    H     0.29185   0.46333   0.23151   0.00000  Uiso   1.00
N47    N     0.25000   0.12935   0.16667   0.00000  Uiso   1.00
N48    N     0.25000   0.37066   0.16667   0.00000  Uiso   1.00
O49    O     0.18573   0.29072   0.16667   0.00000  Uiso   1.00
O50    O     0.31427   0.20929   0.16666   0.00000  Uiso   1.00
O51    O     0.31427   0.29072   0.16666   0.00000  Uiso   1.00
O52    O     0.18573   0.20929   0.16667   0.00000  Uiso   1.00
O53    O     0.25000   0.29071   0.09613   0.00000  Uiso   1.00
O54    O     0.25000   0.20929   0.23720   0.00000  Uiso   1.00
O55    O     0.25000   0.29071   0.23720   0.00000  Uiso   1.00
O56    O     0.25000   0.20929   0.09613   0.00000  Uiso   1.00
C57    C     0.66497   0.25000   0.16661   0.00000  Uiso   1.00
C58    C     0.77367   0.44587   0.20228   0.00000  Uiso   1.00
C59    C     0.74997   0.25000   0.07354   0.00000  Uiso   1.00
C60    C     0.75003   0.25000   0.25979   0.00000  Uiso   1.00
C61    C     0.75000   0.02737   0.16667   0.00000  Uiso   1.00
C62    C     0.75000   0.47261   0.16667   0.00000  Uiso   1.00
C63    C     0.74999   0.25000   0.02184   0.00000  Uiso   1.00
C64    C     0.75001   0.25000   0.31149   0.00000  Uiso   1.00
C65    C     0.54737   0.28856   0.14564   0.00000  Uiso   1.00
C66    C     0.95230   0.21142   0.14572   0.00000  Uiso   1.00
C67    C     0.95263   0.28855   0.18771   0.00000  Uiso   1.00
C68    C     0.83503   0.25000   0.16672   0.00000  Uiso   1.00
C69    C     0.54770   0.21141   0.18760   0.00000  Uiso   1.00
C70    C     0.59339   0.28873   0.14613   0.00000  Uiso   1.00
C71    C     0.90630   0.21124   0.14628   0.00000  Uiso   1.00
C72    C     0.90661   0.28872   0.18722   0.00000  Uiso   1.00
C73    C     0.59370   0.21124   0.18704   0.00000  Uiso   1.00
C74    C     0.61672   0.24999   0.16659   0.00000  Uiso   1.00
C75    C     0.88328   0.24999   0.16675   0.00000  Uiso   1.00
C76    C     0.52425   0.24999   0.16664   0.00000  Uiso   1.00
C77    C     0.97575   0.24999   0.16669   0.00000  Uiso   1.00
C78    C     0.78147   0.10466   0.19259   0.00000  Uiso   1.00
C79    C     0.72613   0.39532   0.13218   0.00000  Uiso   1.00
C80    C     0.71853   0.10466   0.14074   0.00000  Uiso   1.00
C81    C     0.77387   0.39532   0.20116   0.00000  Uiso   1.00
C82    C     0.78247   0.05412   0.19235   0.00000  Uiso   1.00
C83    C     0.72633   0.44587   0.13106   0.00000  Uiso   1.00
C84    C     0.71753   0.05412   0.14098   0.00000  Uiso   1.00
Cu85   Cu    0.75000   0.29822   0.16667   0.00000  Uiso   1.00
Cu86   Cu    0.75000   0.20179   0.16667   0.00000  Uiso   1.00
F87    F     0.81237   0.12884   0.21911   0.00000  Uiso   1.00
F88    F     0.70178   0.37111   0.09831   0.00000  Uiso   1.00
F89    F     0.68763   0.12884   0.11423   0.00000  Uiso   1.00
F90    F     0.79822   0.37111   0.23502   0.00000  Uiso   1.00
F91    F     0.52541   0.32555   0.12389   0.00000  Uiso   1.00
F92    F     0.97391   0.17444   0.12394   0.00000  Uiso   1.00
F93    F     0.97459   0.32554   0.20946   0.00000  Uiso   1.00
F94    F     0.52609   0.17442   0.20937   0.00000  Uiso   1.00
H95    H     0.61077   0.31868   0.12973   0.00000  Uiso   1.00
H96    H     0.88866   0.18129   0.12990   0.00000  Uiso   1.00
H97    H     0.88923   0.31867   0.20363   0.00000  Uiso   1.00
H98    H     0.61134   0.18128   0.20341   0.00000  Uiso   1.00
H99    H     0.80911   0.03665   0.21206   0.00000  Uiso   1.00
H100   H     0.70815   0.46333   0.10182   0.00000  Uiso   1.00
H101   H     0.69089   0.03665   0.12128   0.00000  Uiso   1.00
H102   H     0.79185   0.46333   0.23151   0.00000  Uiso   1.00
N103   N     0.75000   0.12935   0.16667   0.00000  Uiso   1.00
N104   N     0.75000   0.37066   0.16667   0.00000  Uiso   1.00
O105   O     0.68573   0.29072   0.16667   0.00000  Uiso   1.00
O106   O     0.81427   0.20929   0.16666   0.00000  Uiso   1.00
O107   O     0.81427   0.29072   0.16666   0.00000  Uiso   1.00
O108   O     0.68573   0.20929   0.16667   0.00000  Uiso   1.00
O109   O     0.75000   0.29071   0.09613   0.00000  Uiso   1.00
O110   O     0.75000   0.20929   0.23720   0.00000  Uiso   1.00
O111   O     0.75000   0.29071   0.23720   0.00000  Uiso   1.00
O112   O     0.75000   0.20929   0.09613   0.00000  Uiso   1.00
C113   C     0.16497   0.75000   0.16661   0.00000  Uiso   1.00
C114   C     0.27367   0.94587   0.20228   0.00000  Uiso   1.00
C115   C     0.24997   0.75000   0.07354   0.00000  Uiso   1.00
C116   C     0.25003   0.75000   0.25979   0.00000  Uiso   1.00
C117   C     0.25000   0.52737   0.16667   0.00000  Uiso   1.00
C118   C     0.25000   0.97261   0.16667   0.00000  Uiso   1.00
C119   C     0.24999   0.75000   0.02184   0.00000  Uiso   1.00
C120   C     0.25001   0.75000   0.31149   0.00000  Uiso   1.00
C121   C     0.04737   0.78856   0.14564   0.00000  Uiso   1.00
C122   C     0.45230   0.71142   0.14572   0.00000  Uiso   1.00
C123   C     0.45263   0.78855   0.18771   0.00000  Uiso   1.00
C124   C     0.33503   0.75000   0.16672   0.00000  Uiso   1.00
C125   C     0.04770   0.71141   0.18760   0.00000  Uiso   1.00
C126   C     0.09339   0.78873   0.14613   0.00000  Uiso   1.00
C127   C     0.40630   0.71124   0.14628   0.00000  Uiso   1.00
C128   C     0.40661   0.78872   0.18722   0.00000  Uiso   1.00
C129   C     0.09370   0.71124   0.18704   0.00000  Uiso   1.00
C130   C     0.11672   0.74999   0.16659   0.00000  Uiso   1.00
C131   C     0.38328   0.74999   0.16675   0.00000  Uiso   1.00
C132   C     0.02425   0.74999   0.16664   0.00000  Uiso   1.00
C133   C     0.47575   0.74999   0.16669   0.00000  Uiso   1.00
C134   C     0.28147   0.60466   0.19259   0.00000  Uiso   1.00
C135   C     0.22613   0.89532   0.13218   0.00000  Uiso   1.00
C136   C     0.21853   0.60466   0.14074   0.00000  Uiso   1.00
C137   C     0.27387   0.89532   0.20116   0.00000  Uiso   1.00
C138   C     0.28247   0.55412   0.19235   0.00000  Uiso   1.00
C139   C     0.22633   0.94587   0.13106   0.00000  Uiso   1.00
C140   C     0.21753   0.55412   0.14098   0.00000  Uiso   1.00
Cu141  Cu    0.25000   0.79822   0.16667   0.00000  Uiso   1.00
Cu142  Cu    0.25000   0.70179   0.16667   0.00000  Uiso   1.00
F143   F     0.31237   0.62884   0.21911   0.00000  Uiso   1.00
F144   F     0.20178   0.87111   0.09831   0.00000  Uiso   1.00
F145   F     0.18763   0.62884   0.11423   0.00000  Uiso   1.00
F146   F     0.29822   0.87111   0.23502   0.00000  Uiso   1.00
F147   F     0.02541   0.82555   0.12389   0.00000  Uiso   1.00
F148   F     0.47391   0.67444   0.12394   0.00000  Uiso   1.00
F149   F     0.47459   0.82554   0.20946   0.00000  Uiso   1.00
F150   F     0.02609   0.67442   0.20937   0.00000  Uiso   1.00
H151   H     0.11077   0.81868   0.12973   0.00000  Uiso   1.00
H152   H     0.38866   0.68129   0.12990   0.00000  Uiso   1.00
H153   H     0.38923   0.81867   0.20363   0.00000  Uiso   1.00
H154   H     0.11134   0.68128   0.20341   0.00000  Uiso   1.00
H155   H     0.30911   0.53665   0.21206   0.00000  Uiso   1.00
H156   H     0.20815   0.96333   0.10182   0.00000  Uiso   1.00
H157   H     0.19089   0.53665   0.12128   0.00000  Uiso   1.00
H158   H     0.29185   0.96333   0.23151   0.00000  Uiso   1.00
N159   N     0.25000   0.62935   0.16667   0.00000  Uiso   1.00
N160   N     0.25000   0.87066   0.16667   0.00000  Uiso   1.00
O161   O     0.18573   0.79072   0.16667   0.00000  Uiso   1.00
O162   O     0.31427   0.70929   0.16666   0.00000  Uiso   1.00
O163   O     0.31427   0.79072   0.16666   0.00000  Uiso   1.00
O164   O     0.18573   0.70929   0.16667   0.00000  Uiso   1.00
O165   O     0.25000   0.79071   0.09613   0.00000  Uiso   1.00
O166   O     0.25000   0.70929   0.23720   0.00000  Uiso   1.00
O167   O     0.25000   0.79071   0.23720   0.00000  Uiso   1.00
O168   O     0.25000   0.70929   0.09613   0.00000  Uiso   1.00
C169   C     0.66497   0.75000   0.16661   0.00000  Uiso   1.00
C170   C     0.77367   0.94587   0.20228   0.00000  Uiso   1.00
C171   C     0.74997   0.75000   0.07354   0.00000  Uiso   1.00
C172   C     0.75003   0.75000   0.25979   0.00000  Uiso   1.00
C173   C     0.75000   0.52737   0.16667   0.00000  Uiso   1.00
C174   C     0.75000   0.97261   0.16667   0.00000  Uiso   1.00
C175   C     0.74999   0.75000   0.02184   0.00000  Uiso   1.00
C176   C     0.75001   0.75000   0.31149   0.00000  Uiso   1.00
C177   C     0.54737   0.78856   0.14564   0.00000  Uiso   1.00
C178   C     0.95230   0.71142   0.14572   0.00000  Uiso   1.00
C179   C     0.95263   0.78855   0.18771   0.00000  Uiso   1.00
C180   C     0.83503   0.75000   0.16672   0.00000  Uiso   1.00
C181   C     0.54770   0.71141   0.18760   0.00000  Uiso   1.00
C182   C     0.59339   0.78873   0.14613   0.00000  Uiso   1.00
C183   C     0.90630   0.71124   0.14628   0.00000  Uiso   1.00
C184   C     0.90661   0.78872   0.18722   0.00000  Uiso   1.00
C185   C     0.59370   0.71124   0.18704   0.00000  Uiso   1.00
C186   C     0.61672   0.74999   0.16659   0.00000  Uiso   1.00
C187   C     0.88328   0.74999   0.16675   0.00000  Uiso   1.00
C188   C     0.52425   0.74999   0.16664   0.00000  Uiso   1.00
C189   C     0.97575   0.74999   0.16669   0.00000  Uiso   1.00
C190   C     0.78147   0.60466   0.19259   0.00000  Uiso   1.00
C191   C     0.72613   0.89532   0.13218   0.00000  Uiso   1.00
C192   C     0.71853   0.60466   0.14074   0.00000  Uiso   1.00
C193   C     0.77387   0.89532   0.20116   0.00000  Uiso   1.00
C194   C     0.78247   0.55412   0.19235   0.00000  Uiso   1.00
C195   C     0.72633   0.94587   0.13106   0.00000  Uiso   1.00
C196   C     0.71753   0.55412   0.14098   0.00000  Uiso   1.00
Cu197  Cu    0.75000   0.79822   0.16667   0.00000  Uiso   1.00
Cu198  Cu    0.75000   0.70179   0.16667   0.00000  Uiso   1.00
F199   F     0.81237   0.62884   0.21911   0.00000  Uiso   1.00
F200   F     0.70178   0.87111   0.09831   0.00000  Uiso   1.00
F201   F     0.68763   0.62884   0.11423   0.00000  Uiso   1.00
F202   F     0.79822   0.87111   0.23502   0.00000  Uiso   1.00
F203   F     0.52541   0.82555   0.12389   0.00000  Uiso   1.00
F204   F     0.97391   0.67444   0.12394   0.00000  Uiso   1.00
F205   F     0.97459   0.82554   0.20946   0.00000  Uiso   1.00
F206   F     0.52609   0.67442   0.20937   0.00000  Uiso   1.00
H207   H     0.61077   0.81868   0.12973   0.00000  Uiso   1.00
H208   H     0.88866   0.68129   0.12990   0.00000  Uiso   1.00
H209   H     0.88923   0.81867   0.20363   0.00000  Uiso   1.00
H210   H     0.61134   0.68128   0.20341   0.00000  Uiso   1.00
H211   H     0.80911   0.53665   0.21206   0.00000  Uiso   1.00
H212   H     0.70815   0.96333   0.10182   0.00000  Uiso   1.00
H213   H     0.69089   0.53665   0.12128   0.00000  Uiso   1.00
H214   H     0.79185   0.96333   0.23151   0.00000  Uiso   1.00
N215   N     0.75000   0.62935   0.16667   0.00000  Uiso   1.00
N216   N     0.75000   0.87066   0.16667   0.00000  Uiso   1.00
O217   O     0.68573   0.79072   0.16667   0.00000  Uiso   1.00
O218   O     0.81427   0.70929   0.16666   0.00000  Uiso   1.00
O219   O     0.81427   0.79072   0.16666   0.00000  Uiso   1.00
O220   O     0.68573   0.70929   0.16667   0.00000  Uiso   1.00
O221   O     0.75000   0.79071   0.09613   0.00000  Uiso   1.00
O222   O     0.75000   0.70929   0.23720   0.00000  Uiso   1.00
O223   O     0.75000   0.79071   0.23720   0.00000  Uiso   1.00
O224   O     0.75000   0.70929   0.09613   0.00000  Uiso   1.00
C225   C     0.16497   0.25000   0.49995   0.00000  Uiso   1.00
C226   C     0.27367   0.44587   0.53561   0.00000  Uiso   1.00
C227   C     0.24997   0.25000   0.40687   0.00000  Uiso   1.00
C228   C     0.25003   0.25000   0.59313   0.00000  Uiso   1.00
C229   C     0.25000   0.02737   0.50000   0.00000  Uiso   1.00
C230   C     0.25000   0.47261   0.50000   0.00000  Uiso   1.00
C231   C     0.24999   0.25000   0.35518   0.00000  Uiso   1.00
C232   C     0.25001   0.25000   0.64482   0.00000  Uiso   1.00
C233   C     0.04737   0.28856   0.47897   0.00000  Uiso   1.00
C234   C     0.45230   0.21142   0.47905   0.00000  Uiso   1.00
C235   C     0.45263   0.28855   0.52104   0.00000  Uiso   1.00
C236   C     0.33503   0.25000   0.50005   0.00000  Uiso   1.00
C237   C     0.04770   0.21141   0.52093   0.00000  Uiso   1.00
C238   C     0.09339   0.28873   0.47946   0.00000  Uiso   1.00
C239   C     0.40630   0.21124   0.47961   0.00000  Uiso   1.00
C240   C     0.40661   0.28872   0.52055   0.00000  Uiso   1.00
C241   C     0.09370   0.21124   0.52037   0.00000  Uiso   1.00
C242   C     0.11672   0.24999   0.49992   0.00000  Uiso   1.00
C243   C     0.38328   0.24999   0.50008   0.00000  Uiso   1.00
C244   C     0.02425   0.24999   0.49998   0.00000  Uiso   1.00
C245   C     0.47575   0.24999   0.50002   0.00000  Uiso   1.00
C246   C     0.28147   0.10466   0.52593   0.00000  Uiso   1.00
C247   C     0.22613   0.39532   0.46551   0.00000  Uiso   1.00
C248   C     0.21853   0.10466   0.47407   0.00000  Uiso   1.00
C249   C     0.27387   0.39532   0.53449   0.00000  Uiso   1.00
C250   C     0.28247   0.05412   0.52568   0.00000  Uiso   1.00
C251   C     0.22633   0.44587   0.46439   0.00000  Uiso   1.00
C252   C     0.21753   0.05412   0.47432   0.00000  Uiso   1.00
Cu253  Cu    0.25000   0.29822   0.50000   0.00000  Uiso   1.00
Cu254  Cu    0.25000   0.20179   0.50000   0.00000  Uiso   1.00
F255   F     0.31237   0.12884   0.55244   0.00000  Uiso   1.00
F256   F     0.20178   0.37111   0.43164   0.00000  Uiso   1.00
F257   F     0.18763   0.12884   0.44756   0.00000  Uiso   1.00
F258   F     0.29822   0.37111   0.56836   0.00000  Uiso   1.00
F259   F     0.02541   0.32555   0.45723   0.00000  Uiso   1.00
F260   F     0.47391   0.17444   0.45727   0.00000  Uiso   1.00
F261   F     0.47459   0.32554   0.54280   0.00000  Uiso   1.00
F262   F     0.02609   0.17442   0.54271   0.00000  Uiso   1.00
H263   H     0.11077   0.31868   0.46306   0.00000  Uiso   1.00
H264   H     0.38866   0.18129   0.46323   0.00000  Uiso   1.00
H265   H     0.38923   0.31867   0.53696   0.00000  Uiso   1.00
H266   H     0.11134   0.18128   0.53675   0.00000  Uiso   1.00
H267   H     0.30911   0.03665   0.54539   0.00000  Uiso   1.00
H268   H     0.20815   0.46333   0.43515   0.00000  Uiso   1.00
H269   H     0.19089   0.03665   0.45461   0.00000  Uiso   1.00
H270   H     0.29185   0.46333   0.56485   0.00000  Uiso   1.00
N271   N     0.25000   0.12935   0.50000   0.00000  Uiso   1.00
N272   N     0.25000   0.37066   0.50000   0.00000  Uiso   1.00
O273   O     0.18573   0.29072   0.50000   0.00000  Uiso   1.00
O274   O     0.31427   0.20929   0.50000   0.00000  Uiso   1.00
O275   O     0.31427   0.29072   0.50000   0.00000  Uiso   1.00
O276   O     0.18573   0.20929   0.50000   0.00000  Uiso   1.00
O277   O     0.25000   0.29071   0.42946   0.00000  Uiso   1.00
O278   O     0.25000   0.20929   0.57054   0.00000  Uiso   1.00
O279   O     0.25000   0.29071   0.57054   0.00000  Uiso   1.00
O280   O     0.25000   0.20929   0.42946   0.00000  Uiso   1.00
C281   C     0.66497   0.25000   0.49995   0.00000  Uiso   1.00
C282   C     0.77367   0.44587   0.53561   0.00000  Uiso   1.00
C283   C     0.74997   0.25000   0.40687   0.00000  Uiso   1.00
C284   C     0.75003   0.25000   0.59313   0.00000  Uiso   1.00
C285   C     0.75000   0.02737   0.50000   0.00000  Uiso   1.00
C286   C     0.75000   0.47261   0.50000   0.00000  Uiso   1.00
C287   C     0.74999   0.25000   0.35518   0.00000  Uiso   1.00
C288   C     0.75001   0.25000   0.64482   0.00000  Uiso   1.00
C289   C     0.54737   0.28856   0.47897   0.00000  Uiso   1.00
C290   C     0.95230   0.21142   0.47905   0.00000  Uiso   1.00
C291   C     0.95263   0.28855   0.52104   0.00000  Uiso   1.00
C292   C     0.83503   0.25000   0.50005   0.00000  Uiso   1.00
C293   C     0.54770   0.21141   0.52093   0.00000  Uiso   1.00
C294   C     0.59339   0.28873   0.47946   0.00000  Uiso   1.00
C295   C     0.90630   0.21124   0.47961   0.00000  Uiso   1.00
C296   C     0.90661   0.28872   0.52055   0.00000  Uiso   1.00
C297   C     0.59370   0.21124   0.52037   0.00000  Uiso   1.00
C298   C     0.61672   0.24999   0.49992   0.00000  Uiso   1.00
C299   C     0.88328   0.24999   0.50008   0.00000  Uiso   1.00
C300   C     0.52425   0.24999   0.49998   0.00000  Uiso   1.00
C301   C     0.97575   0.24999   0.50002   0.00000  Uiso   1.00
C302   C     0.78147   0.10466   0.52593   0.00000  Uiso   1.00
C303   C     0.72613   0.39532   0.46551   0.00000  Uiso   1.00
C304   C     0.71853   0.10466   0.47407   0.00000  Uiso   1.00
C305   C     0.77387   0.39532   0.53449   0.00000  Uiso   1.00
C306   C     0.78247   0.05412   0.52568   0.00000  Uiso   1.00
C307   C     0.72633   0.44587   0.46439   0.00000  Uiso   1.00
C308   C     0.71753   0.05412   0.47432   0.00000  Uiso   1.00
Cu309  Cu    0.75000   0.29822   0.50000   0.00000  Uiso   1.00
Cu310  Cu    0.75000   0.20179   0.50000   0.00000  Uiso   1.00
F311   F     0.81237   0.12884   0.55244   0.00000  Uiso   1.00
F312   F     0.70178   0.37111   0.43164   0.00000  Uiso   1.00
F313   F     0.68763   0.12884   0.44756   0.00000  Uiso   1.00
F314   F     0.79822   0.37111   0.56836   0.00000  Uiso   1.00
F315   F     0.52541   0.32555   0.45723   0.00000  Uiso   1.00
F316   F     0.97391   0.17444   0.45727   0.00000  Uiso   1.00
F317   F     0.97459   0.32554   0.54280   0.00000  Uiso   1.00
F318   F     0.52609   0.17442   0.54271   0.00000  Uiso   1.00
H319   H     0.61077   0.31868   0.46306   0.00000  Uiso   1.00
H320   H     0.88866   0.18129   0.46323   0.00000  Uiso   1.00
H321   H     0.88923   0.31867   0.53696   0.00000  Uiso   1.00
H322   H     0.61134   0.18128   0.53675   0.00000  Uiso   1.00
H323   H     0.80911   0.03665   0.54539   0.00000  Uiso   1.00
H324   H     0.70815   0.46333   0.43515   0.00000  Uiso   1.00
H325   H     0.69089   0.03665   0.45461   0.00000  Uiso   1.00
H326   H     0.79185   0.46333   0.56485   0.00000  Uiso   1.00
N327   N     0.75000   0.12935   0.50000   0.00000  Uiso   1.00
N328   N     0.75000   0.37066   0.50000   0.00000  Uiso   1.00
O329   O     0.68573   0.29072   0.50000   0.00000  Uiso   1.00
O330   O     0.81427   0.20929   0.50000   0.00000  Uiso   1.00
O331   O     0.81427   0.29072   0.50000   0.00000  Uiso   1.00
O332   O     0.68573   0.20929   0.50000   0.00000  Uiso   1.00
O333   O     0.75000   0.29071   0.42946   0.00000  Uiso   1.00
O334   O     0.75000   0.20929   0.57054   0.00000  Uiso   1.00
O335   O     0.75000   0.29071   0.57054   0.00000  Uiso   1.00
O336   O     0.75000   0.20929   0.42946   0.00000  Uiso   1.00
C337   C     0.16497   0.75000   0.49995   0.00000  Uiso   1.00
C338   C     0.27367   0.94587   0.53561   0.00000  Uiso   1.00
C339   C     0.24997   0.75000   0.40687   0.00000  Uiso   1.00
C340   C     0.25003   0.75000   0.59313   0.00000  Uiso   1.00
C341   C     0.25000   0.52737   0.50000   0.00000  Uiso   1.00
C342   C     0.25000   0.97261   0.50000   0.00000  Uiso   1.00
C343   C     0.24999   0.75000   0.35518   0.00000  Uiso   1.00
C344   C     0.25001   0.75000   0.64482   0.00000  Uiso   1.00
C345   C     0.04737   0.78856   0.47897   0.00000  Uiso   1.00
C346   C     0.45230   0.71142   0.47905   0.00000  Uiso   1.00
C347   C     0.45263   0.78855   0.52104   0.00000  Uiso   1.00
C348   C     0.33503   0.75000   0.50005   0.00000  Uiso   1.00
C349   C     0.04770   0.71141   0.52093   0.00000  Uiso   1.00
C350   C     0.09339   0.78873   0.47946   0.00000  Uiso   1.00
C351   C     0.40630   0.71124   0.47961   0.00000  Uiso   1.00
C352   C     0.40661   0.78872   0.52055   0.00000  Uiso   1.00
C353   C     0.09370   0.71124   0.52037   0.00000  Uiso   1.00
C354   C     0.11672   0.74999   0.49992   0.00000  Uiso   1.00
C355   C     0.38328   0.74999   0.50008   0.00000  Uiso   1.00
C356   C     0.02425   0.74999   0.49998   0.00000  Uiso   1.00
C357   C     0.47575   0.74999   0.50002   0.00000  Uiso   1.00
C358   C     0.28147   0.60466   0.52593   0.00000  Uiso   1.00
C359   C     0.22613   0.89532   0.46551   0.00000  Uiso   1.00
C360   C     0.21853   0.60466   0.47407   0.00000  Uiso   1.00
C361   C     0.27387   0.89532   0.53449   0.00000  Uiso   1.00
C362   C     0.28247   0.55412   0.52568   0.00000  Uiso   1.00
C363   C     0.22633   0.94587   0.46439   0.00000  Uiso   1.00
C364   C     0.21753   0.55412   0.47432   0.00000  Uiso   1.00
Cu365  Cu    0.25000   0.79822   0.50000   0.00000  Uiso   1.00
Cu366  Cu    0.25000   0.70179   0.50000   0.00000  Uiso   1.00
F367   F     0.31237   0.62884   0.55244   0.00000  Uiso   1.00
F368   F     0.20178   0.87111   0.43164   0.00000  Uiso   1.00
F369   F     0.18763   0.62884   0.44756   0.00000  Uiso   1.00
F370   F     0.29822   0.87111   0.56836   0.00000  Uiso   1.00
F371   F     0.02541   0.82555   0.45723   0.00000  Uiso   1.00
F372   F     0.47391   0.67444   0.45727   0.00000  Uiso   1.00
F373   F     0.47459   0.82554   0.54280   0.00000  Uiso   1.00
F374   F     0.02609   0.67442   0.54271   0.00000  Uiso   1.00
H375   H     0.11077   0.81868   0.46306   0.00000  Uiso   1.00
H376   H     0.38866   0.68129   0.46323   0.00000  Uiso   1.00
H377   H     0.38923   0.81867   0.53696   0.00000  Uiso   1.00
H378   H     0.11134   0.68128   0.53675   0.00000  Uiso   1.00
H379   H     0.30911   0.53665   0.54539   0.00000  Uiso   1.00
H380   H     0.20815   0.96333   0.43515   0.00000  Uiso   1.00
H381   H     0.19089   0.53665   0.45461   0.00000  Uiso   1.00
H382   H     0.29185   0.96333   0.56485   0.00000  Uiso   1.00
N383   N     0.25000   0.62935   0.50000   0.00000  Uiso   1.00
N384   N     0.25000   0.87066   0.50000   0.00000  Uiso   1.00
O385   O     0.18573   0.79072   0.50000   0.00000  Uiso   1.00
O386   O     0.31427   0.70929   0.50000   0.00000  Uiso   1.00
O387   O     0.31427   0.79072   0.50000   0.00000  Uiso   1.00
O388   O     0.18573   0.70929   0.50000   0.00000  Uiso   1.00
O389   O     0.25000   0.79071   0.42946   0.00000  Uiso   1.00
O390   O     0.25000   0.70929   0.57054   0.00000  Uiso   1.00
O391   O     0.25000   0.79071   0.57054   0.00000  Uiso   1.00
O392   O     0.25000   0.70929   0.42946   0.00000  Uiso   1.00
C393   C     0.66497   0.75000   0.49995   0.00000  Uiso   1.00
C394   C     0.77367   0.94587   0.53561   0.00000  Uiso   1.00
C395   C     0.74997   0.75000   0.40687   0.00000  Uiso   1.00
C396   C     0.75003   0.75000   0.59313   0.00000  Uiso   1.00
C397   C     0.75000   0.52737   0.50000   0.00000  Uiso   1.00
C398   C     0.75000   0.97261   0.50000   0.00000  Uiso   1.00
C399   C     0.74999   0.75000   0.35518   0.00000  Uiso   1.00
C400   C     0.75001   0.75000   0.64482   0.00000  Uiso   1.00
C401   C     0.54737   0.78856   0.47897   0.00000  Uiso   1.00
C402   C     0.95230   0.71142   0.47905   0.00000  Uiso   1.00
C403   C     0.95263   0.78855   0.52104   0.00000  Uiso   1.00
C404   C     0.83503   0.75000   0.50005   0.00000  Uiso   1.00
C405   C     0.54770   0.71141   0.52093   0.00000  Uiso   1.00
C406   C     0.59339   0.78873   0.47946   0.00000  Uiso   1.00
C407   C     0.90630   0.71124   0.47961   0.00000  Uiso   1.00
C408   C     0.90661   0.78872   0.52055   0.00000  Uiso   1.00
C409   C     0.59370   0.71124   0.52037   0.00000  Uiso   1.00
C410   C     0.61672   0.74999   0.49992   0.00000  Uiso   1.00
C411   C     0.88328   0.74999   0.50008   0.00000  Uiso   1.00
C412   C     0.52425   0.74999   0.49998   0.00000  Uiso   1.00
C413   C     0.97575   0.74999   0.50002   0.00000  Uiso   1.00
C414   C     0.78147   0.60466   0.52593   0.00000  Uiso   1.00
C415   C     0.72613   0.89532   0.46551   0.00000  Uiso   1.00
C416   C     0.71853   0.60466   0.47407   0.00000  Uiso   1.00
C417   C     0.77387   0.89532   0.53449   0.00000  Uiso   1.00
C418   C     0.78247   0.55412   0.52568   0.00000  Uiso   1.00
C419   C     0.72633   0.94587   0.46439   0.00000  Uiso   1.00
C420   C     0.71753   0.55412   0.47432   0.00000  Uiso   1.00
Cu421  Cu    0.75000   0.79822   0.50000   0.00000  Uiso   1.00
Cu422  Cu    0.75000   0.70179   0.50000   0.00000  Uiso   1.00
F423   F     0.81237   0.62884   0.55244   0.00000  Uiso   1.00
F424   F     0.70178   0.87111   0.43164   0.00000  Uiso   1.00
F425   F     0.68763   0.62884   0.44756   0.00000  Uiso   1.00
F426   F     0.79822   0.87111   0.56836   0.00000  Uiso   1.00
F427   F     0.52541   0.82555   0.45723   0.00000  Uiso   1.00
F428   F     0.97391   0.67444   0.45727   0.00000  Uiso   1.00
F429   F     0.97459   0.82554   0.54280   0.00000  Uiso   1.00
F430   F     0.52609   0.67442   0.54271   0.00000  Uiso   1.00
H431   H     0.61077   0.81868   0.46306   0.00000  Uiso   1.00
H432   H     0.88866   0.68129   0.46323   0.00000  Uiso   1.00
H433   H     0.88923   0.81867   0.53696   0.00000  Uiso   1.00
H434   H     0.61134   0.68128   0.53675   0.00000  Uiso   1.00
H435   H     0.80911   0.53665   0.54539   0.00000  Uiso   1.00
H436   H     0.70815   0.96333   0.43515   0.00000  Uiso   1.00
H437   H     0.69089   0.53665   0.45461   0.00000  Uiso   1.00
H438   H     0.79185   0.96333   0.56485   0.00000  Uiso   1.00
N439   N     0.75000   0.62935   0.50000   0.00000  Uiso   1.00
N440   N     0.75000   0.87066   0.50000   0.00000  Uiso   1.00
O441   O     0.68573   0.79072   0.50000   0.00000  Uiso   1.00
O442   O     0.81427   0.70929   0.50000   0.00000  Uiso   1.00
O443   O     0.81427   0.79072   0.50000   0.00000  Uiso   1.00
O444   O     0.68573   0.70929   0.50000   0.00000  Uiso   1.00
O445   O     0.75000   0.79071   0.42946   0.00000  Uiso   1.00
O446   O     0.75000   0.70929   0.57054   0.00000  Uiso   1.00
O447   O     0.75000   0.79071   0.57054   0.00000  Uiso   1.00
O448   O     0.75000   0.70929   0.42946   0.00000  Uiso   1.00
C449   C     0.16497   0.25000   0.83328   0.00000  Uiso   1.00
C450   C     0.27367   0.44587   0.86894   0.00000  Uiso   1.00
C451   C     0.24997   0.25000   0.74021   0.00000  Uiso   1.00
C452   C     0.25003   0.25000   0.92646   0.00000  Uiso   1.00
C453   C     0.25000   0.02737   0.83333   0.00000  Uiso   1.00
C454   C     0.25000   0.47261   0.83333   0.00000  Uiso   1.00
C455   C     0.24999   0.25000   0.68851   0.00000  Uiso   1.00
C456   C     0.25001   0.25000   0.97816   0.00000  Uiso   1.00
C457   C     0.04737   0.28856   0.81230   0.00000  Uiso   1.00
C458   C     0.45230   0.21142   0.81239   0.00000  Uiso   1.00
C459   C     0.45263   0.28855   0.85438   0.00000  Uiso   1.00
C460   C     0.33503   0.25000   0.83339   0.00000  Uiso   1.00
C461   C     0.04770   0.21141   0.85427   0.00000  Uiso   1.00
C462   C     0.09339   0.28873   0.81280   0.00000  Uiso   1.00
C463   C     0.40630   0.21124   0.81295   0.00000  Uiso   1.00
C464   C     0.40661   0.28872   0.85388   0.00000  Uiso   1.00
C465   C     0.09370   0.21124   0.85371   0.00000  Uiso   1.00
C466   C     0.11672   0.24999   0.83325   0.00000  Uiso   1.00
C467   C     0.38328   0.24999   0.83341   0.00000  Uiso   1.00
C468   C     0.02425   0.24999   0.83331   0.00000  Uiso   1.00
C469   C     0.47575   0.24999   0.83336   0.00000  Uiso   1.00
C470   C     0.28147   0.10466   0.85926   0.00000  Uiso   1.00
C471   C     0.22613   0.39532   0.79884   0.00000  Uiso   1.00
C472   C     0.21853   0.10466   0.80741   0.00000  Uiso   1.00
C473   C     0.27387   0.39532   0.86782   0.00000  Uiso   1.00
C474   C     0.28247   0.05412   0.85902   0.00000  Uiso   1.00
C475   C     0.22633   0.44587   0.79772   0.00000  Uiso   1.00
C476   C     0.21753   0.05412   0.80765   0.00000  Uiso   1.00
Cu477  Cu    0.25000   0.29822   0.83333   0.00000  Uiso   1.00
Cu478  Cu    0.25000   0.20179   0.83333   0.00000  Uiso   1.00
F479   F     0.31237   0.12884   0.88577   0.00000  Uiso   1.00
F480   F     0.20178   0.37111   0.76498   0.00000  Uiso   1.00
F481   F     0.18763   0.12884   0.78089   0.00000  Uiso   1.00
F482   F     0.29822   0.37111   0.90169   0.00000  Uiso   1.00
F483   F     0.02541   0.32555   0.79056   0.00000  Uiso   1.00
F484   F     0.47391   0.17444   0.79060   0.00000  Uiso   1.00
F485   F     0.47459   0.32554   0.87613   0.00000  Uiso   1.00
F486   F     0.02609   0.17442   0.87604   0.00000  Uiso   1.00
H487   H     0.11077   0.31868   0.79639   0.00000  Uiso   1.00
H488   H     0.38866   0.18129   0.79657   0.00000  Uiso   1.00
H489   H     0.38923   0.31867   0.87029   0.00000  Uiso   1.00
H490   H     0.11134   0.18128   0.87008   0.00000  Uiso   1.00
H491   H     0.30911   0.03665   0.87872   0.00000  Uiso   1.00
H492   H     0.20815   0.46333   0.76849   0.00000  Uiso   1.00
H493   H     0.19089   0.03665   0.78794   0.00000  Uiso   1.00
H494   H     0.29185   0.46333   0.89818   0.00000  Uiso   1.00
N495   N     0.25000   0.12935   0.83333   0.00000  Uiso   1.00
N496   N     0.25000   0.37066   0.83333   0.00000  Uiso   1.00
O497   O     0.18573   0.29072   0.83334   0.00000  Uiso   1.00
O498   O     0.31427   0.20929   0.83333   0.00000  Uiso   1.00
O499   O     0.31427   0.29072   0.83333   0.00000  Uiso   1.00
O500   O     0.18573   0.20929   0.83334   0.00000  Uiso   1.00
O501   O     0.25000   0.29071   0.76280   0.00000  Uiso   1.00
O502   O     0.25000   0.20929   0.90387   0.00000  Uiso   1.00
O503   O     0.25000   0.29071   0.90387   0.00000  Uiso   1.00
O504   O     0.25000   0.20929   0.76280   0.00000  Uiso   1.00
C505   C     0.66497   0.25000   0.83328   0.00000  Uiso   1.00
C506   C     0.77367   0.44587   0.86894   0.00000  Uiso   1.00
C507   C     0.74997   0.25000   0.74021   0.00000  Uiso   1.00
C508   C     0.75003   0.25000   0.92646   0.00000  Uiso   1.00
C509   C     0.75000   0.02737   0.83333   0.00000  Uiso   1.00
C510   C     0.75000   0.47261   0.83333   0.00000  Uiso   1.00
C511   C     0.74999   0.25000   0.68851   0.00000  Uiso   1.00
C512   C     0.75001   0.25000   0.97816   0.00000  Uiso   1.00
C513   C     0.54737   0.28856   0.81230   0.00000  Uiso   1.00
C514   C     0.95230   0.21142   0.81239   0.00000  Uiso   1.00
C515   C     0.95263   0.28855   0.85438   0.00000  Uiso   1.00
C516   C     0.83503   0.25000   0.83339   0.00000  Uiso   1.00
C517   C     0.54770   0.21141   0.85427   0.00000  Uiso   1.00
C518   C     0.59339   0.28873   0.81280   0.00000  Uiso   1.00
C519   C     0.90630   0.21124   0.81295   0.00000  Uiso   1.00
C520   C     0.90661   0.28872   0.85388   0.00000  Uiso   1.00
C521   C     0.59370   0.21124   0.85371   0.00000  Uiso   1.00
C522   C     0.61672   0.24999   0.83325   0.00000  Uiso   1.00
C523   C     0.88328   0.24999   0.83341   0.00000  Uiso   1.00
C524   C     0.52425   0.24999   0.83331   0.00000  Uiso   1.00
C525   C     0.97575   0.24999   0.83336   0.00000  Uiso   1.00
C526   C     0.78147   0.10466   0.85926   0.00000  Uiso   1.00
C527   C     0.72613   0.39532   0.79884   0.00000  Uiso   1.00
C528   C     0.71853   0.10466   0.80741   0.00000  Uiso   1.00
C529   C     0.77387   0.39532   0.86782   0.00000  Uiso   1.00
C530   C     0.78247   0.05412   0.85902   0.00000  Uiso   1.00
C531   C     0.72633   0.44587   0.79772   0.00000  Uiso   1.00
C532   C     0.71753   0.05412   0.80765   0.00000  Uiso   1.00
Cu533  Cu    0.75000   0.29822   0.83333   0.00000  Uiso   1.00
Cu534  Cu    0.75000   0.20179   0.83333   0.00000  Uiso   1.00
F535   F     0.81237   0.12884   0.88577   0.00000  Uiso   1.00
F536   F     0.70178   0.37111   0.76498   0.00000  Uiso   1.00
F537   F     0.68763   0.12884   0.78089   0.00000  Uiso   1.00
F538   F     0.79822   0.37111   0.90169   0.00000  Uiso   1.00
F539   F     0.52541   0.32555   0.79056   0.00000  Uiso   1.00
F540   F     0.97391   0.17444   0.79060   0.00000  Uiso   1.00
F541   F     0.97459   0.32554   0.87613   0.00000  Uiso   1.00
F542   F     0.52609   0.17442   0.87604   0.00000  Uiso   1.00
H543   H     0.61077   0.31868   0.79639   0.00000  Uiso   1.00
H544   H     0.88866   0.18129   0.79657   0.00000  Uiso   1.00
H545   H     0.88923   0.31867   0.87029   0.00000  Uiso   1.00
H546   H     0.61134   0.18128   0.87008   0.00000  Uiso   1.00
H547   H     0.80911   0.03665   0.87872   0.00000  Uiso   1.00
H548   H     0.70815   0.46333   0.76849   0.00000  Uiso   1.00
H549   H     0.69089   0.03665   0.78794   0.00000  Uiso   1.00
H550   H     0.79185   0.46333   0.89818   0.00000  Uiso   1.00
N551   N     0.75000   0.12935   0.83333   0.00000  Uiso   1.00
N552   N     0.75000   0.37066   0.83333   0.00000  Uiso   1.00
O553   O     0.68573   0.29072   0.83334   0.00000  Uiso   1.00
O554   O     0.81427   0.20929   0.83333   0.00000  Uiso   1.00
O555   O     0.81427   0.29072   0.83333   0.00000  Uiso   1.00
O556   O     0.68573   0.20929   0.83334   0.00000  Uiso   1.00
O557   O     0.75000   0.29071   0.76280   0.00000  Uiso   1.00
O558   O     0.75000   0.20929   0.90387   0.00000  Uiso   1.00
O559   O     0.75000   0.29071   0.90387   0.00000  Uiso   1.00
O560   O     0.75000   0.20929   0.76280   0.00000  Uiso   1.00
C561   C     0.16497   0.75000   0.83328   0.00000  Uiso   1.00
C562   C     0.27367   0.94587   0.86894   0.00000  Uiso   1.00
C563   C     0.24997   0.75000   0.74021   0.00000  Uiso   1.00
C564   C     0.25003   0.75000   0.92646   0.00000  Uiso   1.00
C565   C     0.25000   0.52737   0.83333   0.00000  Uiso   1.00
C566   C     0.25000   0.97261   0.83333   0.00000  Uiso   1.00
C567   C     0.24999   0.75000   0.68851   0.00000  Uiso   1.00
C568   C     0.25001   0.75000   0.97816   0.00000  Uiso   1.00
C569   C     0.04737   0.78856   0.81230   0.00000  Uiso   1.00
C570   C     0.45230   0.71142   0.81239   0.00000  Uiso   1.00
C571   C     0.45263   0.78855   0.85438   0.00000  Uiso   1.00
C572   C     0.33503   0.75000   0.83339   0.00000  Uiso   1.00
C573   C     0.04770   0.71141   0.85427   0.00000  Uiso   1.00
C574   C     0.09339   0.78873   0.81280   0.00000  Uiso   1.00
C575   C     0.40630   0.71124   0.81295   0.00000  Uiso   1.00
C576   C     0.40661   0.78872   0.85388   0.00000  Uiso   1.00
C577   C     0.09370   0.71124   0.85371   0.00000  Uiso   1.00
C578   C     0.11672   0.74999   0.83325   0.00000  Uiso   1.00
C579   C     0.38328   0.74999   0.83341   0.00000  Uiso   1.00
C580   C     0.02425   0.74999   0.83331   0.00000  Uiso   1.00
C581   C     0.47575   0.74999   0.83336   0.00000  Uiso   1.00
C582   C     0.28147   0.60466   0.85926   0.00000  Uiso   1.00
C583   C     0.22613   0.89532   0.79884   0.00000  Uiso   1.00
C584   C     0.21853   0.60466   0.80741   0.00000  Uiso   1.00
C585   C     0.27387   0.89532   0.86782   0.00000  Uiso   1.00
C586   C     0.28247   0.55412   0.85902   0.00000  Uiso   1.00
C587   C     0.22633   0.94587   0.79772   0.00000  Uiso   1.00
C588   C     0.21753   0.55412   0.80765   0.00000  Uiso   1.00
Cu589  Cu    0.25000   0.79822   0.83333   0.00000  Uiso   1.00
Cu590  Cu    0.25000   0.70179   0.83333   0.00000  Uiso   1.00
F591   F     0.31237   0.62884   0.88577   0.00000  Uiso   1.00
F592   F     0.20178   0.87111   0.76498   0.00000  Uiso   1.00
F593   F     0.18763   0.62884   0.78089   0.00000  Uiso   1.00
F594   F     0.29822   0.87111   0.90169   0.00000  Uiso   1.00
F595   F     0.02541   0.82555   0.79056   0.00000  Uiso   1.00
F596   F     0.47391   0.67444   0.79060   0.00000  Uiso   1.00
F597   F     0.47459   0.82554   0.87613   0.00000  Uiso   1.00
F598   F     0.02609   0.67442   0.87604   0.00000  Uiso   1.00
H599   H     0.11077   0.81868   0.79639   0.00000  Uiso   1.00
H600   H     0.38866   0.68129   0.79657   0.00000  Uiso   1.00
H601   H     0.38923   0.81867   0.87029   0.00000  Uiso   1.00
H602   H     0.11134   0.68128   0.87008   0.00000  Uiso   1.00
H603   H     0.30911   0.53665   0.87872   0.00000  Uiso   1.00
H604   H     0.20815   0.96333   0.76849   0.00000  Uiso   1.00
H605   H     0.19089   0.53665   0.78794   0.00000  Uiso   1.00
H606   H     0.29185   0.96333   0.89818   0.00000  Uiso   1.00
N607   N     0.25000   0.62935   0.83333   0.00000  Uiso   1.00
N608   N     0.25000   0.87066   0.83333   0.00000  Uiso   1.00
O609   O     0.18573   0.79072   0.83334   0.00000  Uiso   1.00
O610   O     0.31427   0.70929   0.83333   0.00000  Uiso   1.00
O611   O     0.31427   0.79072   0.83333   0.00000  Uiso   1.00
O612   O     0.18573   0.70929   0.83334   0.00000  Uiso   1.00
O613   O     0.25000   0.79071   0.76280   0.00000  Uiso   1.00
O614   O     0.25000   0.70929   0.90387   0.00000  Uiso   1.00
O615   O     0.25000   0.79071   0.90387   0.00000  Uiso   1.00
O616   O     0.25000   0.70929   0.76280   0.00000  Uiso   1.00
C617   C     0.66497   0.75000   0.83328   0.00000  Uiso   1.00
C618   C     0.77367   0.94587   0.86894   0.00000  Uiso   1.00
C619   C     0.74997   0.75000   0.74021   0.00000  Uiso   1.00
C620   C     0.75003   0.75000   0.92646   0.00000  Uiso   1.00
C621   C     0.75000   0.52737   0.83333   0.00000  Uiso   1.00
C622   C     0.75000   0.97261   0.83333   0.00000  Uiso   1.00
C623   C     0.74999   0.75000   0.68851   0.00000  Uiso   1.00
C624   C     0.75001   0.75000   0.97816   0.00000  Uiso   1.00
C625   C     0.54737   0.78856   0.81230   0.00000  Uiso   1.00
C626   C     0.95230   0.71142   0.81239   0.00000  Uiso   1.00
C627   C     0.95263   0.78855   0.85438   0.00000  Uiso   1.00
C628   C     0.83503   0.75000   0.83339   0.00000  Uiso   1.00
C629   C     0.54770   0.71141   0.85427   0.00000  Uiso   1.00
C630   C     0.59339   0.78873   0.81280   0.00000  Uiso   1.00
C631   C     0.90630   0.71124   0.81295   0.00000  Uiso   1.00
C632   C     0.90661   0.78872   0.85388   0.00000  Uiso   1.00
C633   C     0.59370   0.71124   0.85371   0.00000  Uiso   1.00
C634   C     0.61672   0.74999   0.83325   0.00000  Uiso   1.00
C635   C     0.88328   0.74999   0.83341   0.00000  Uiso   1.00
C636   C     0.52425   0.74999   0.83331   0.00000  Uiso   1.00
C637   C     0.97575   0.74999   0.83336   0.00000  Uiso   1.00
C638   C     0.78147   0.60466   0.85926   0.00000  Uiso   1.00
C639   C     0.72613   0.89532   0.79884   0.00000  Uiso   1.00
C640   C     0.71853   0.60466   0.80741   0.00000  Uiso   1.00
C641   C     0.77387   0.89532   0.86782   0.00000  Uiso   1.00
C642   C     0.78247   0.55412   0.85902   0.00000  Uiso   1.00
C643   C     0.72633   0.94587   0.79772   0.00000  Uiso   1.00
C644   C     0.71753   0.55412   0.80765   0.00000  Uiso   1.00
Cu645  Cu    0.75000   0.79822   0.83333   0.00000  Uiso   1.00
Cu646  Cu    0.75000   0.70179   0.83333   0.00000  Uiso   1.00
F647   F     0.81237   0.62884   0.88577   0.00000  Uiso   1.00
F648   F     0.70178   0.87111   0.76498   0.00000  Uiso   1.00
F649   F     0.68763   0.62884   0.78089   0.00000  Uiso   1.00
F650   F     0.79822   0.87111   0.90169   0.00000  Uiso   1.00
F651   F     0.52541   0.82555   0.79056   0.00000  Uiso   1.00
F652   F     0.97391   0.67444   0.79060   0.00000  Uiso   1.00
F653   F     0.97459   0.82554   0.87613   0.00000  Uiso   1.00
F654   F     0.52609   0.67442   0.87604   0.00000  Uiso   1.00
H655   H     0.61077   0.81868   0.79639   0.00000  Uiso   1.00
H656   H     0.88866   0.68129   0.79657   0.00000  Uiso   1.00
H657   H     0.88923   0.81867   0.87029   0.00000  Uiso   1.00
H658   H     0.61134   0.68128   0.87008   0.00000  Uiso   1.00
H659   H     0.80911   0.53665   0.87872   0.00000  Uiso   1.00
H660   H     0.70815   0.96333   0.76849   0.00000  Uiso   1.00
H661   H     0.69089   0.53665   0.78794   0.00000  Uiso   1.00
H662   H     0.79185   0.96333   0.89818   0.00000  Uiso   1.00
N663   N     0.75000   0.62935   0.83333   0.00000  Uiso   1.00
N664   N     0.75000   0.87066   0.83333   0.00000  Uiso   1.00
O665   O     0.68573   0.79072   0.83334   0.00000  Uiso   1.00
O666   O     0.81427   0.70929   0.83333   0.00000  Uiso   1.00
O667   O     0.81427   0.79072   0.83333   0.00000  Uiso   1.00
O668   O     0.68573   0.70929   0.83334   0.00000  Uiso   1.00
O669   O     0.75000   0.79071   0.76280   0.00000  Uiso   1.00
O670   O     0.75000   0.70929   0.90387   0.00000  Uiso   1.00
O671   O     0.75000   0.79071   0.90387   0.00000  Uiso   1.00
O672   O     0.75000   0.70929   0.76280   0.00000  Uiso   1.00
loop_
_geom_bond_atom_site_label_1
_geom_bond_atom_site_label_2
_geom_bond_distance
_geom_bond_site_symmetry_2
_ccdc_geom_bond_type
C1     O52     1.295   .     A
C1     C18     1.459   .     S
C1     O49     1.295   .     A
C2     H46     1.080   .     S
C2     C6      1.413   .     A
C2     C25     1.406   .     A
C3     O53     1.289   .     A
C3     O56     1.289   .     A
C3     C7      1.409   .     S
C4     C8      1.409   .     S
C4     O55     1.289   .     A
C4     O54     1.289   .     A
C5     C28     1.412   .     A
C5     C26     1.412   .     A
C5     C118    1.523   1_545 S
C6     C27     1.413   .     A
C6     C117    1.523   .     S
C7     C456    1.190   1_554 S
C8     C231    1.190   .     S
C9     C14     1.391   .     A
C9     C20     1.405   .     A
C9     F35     1.358   .     S
C10    F36     1.358   .     S
C10    C15     1.391   .     A
C10    C21     1.405   .     A
C11    C16     1.391   .     A
C11    F37     1.358   .     S
C11    C21     1.405   .     A
C12    O50     1.295   .     A
C12    C19     1.459   .     S
C12    O51     1.295   .     A
C13    C17     1.391   .     A
C13    F38     1.358   .     S
C13    C20     1.405   .     A
C14    C18     1.401   .     A
C14    H39     1.083   .     S
C15    C19     1.401   .     A
C15    H40     1.083   .     S
C16    C19     1.401   .     A
C16    H41     1.083   .     S
C17    C18     1.401   .     A
C17    H42     1.083   .     S
C20    C77     1.466   1_455 S
C21    C76     1.466   .     S
C22    N47     1.365   .     A
C22    C26     1.406   .     A
C22    F31     1.355   .     S
C23    C27     1.406   .     A
C23    F32     1.355   .     S
C23    N48     1.365   .     A
C24    F33     1.355   .     S
C24    C28     1.406   .     A
C24    N47     1.365   .     A
C25    F34     1.355   .     S
C25    N48     1.365   .     A
C26    H43     1.080   .     S
C27    H44     1.080   .     S
C28    H45     1.080   .     S
Cu29   Cu30    2.682   .     S
Cu29   O49     1.954   .     S
Cu29   O53     1.933   .     S
Cu29   N48     2.015   .     S
Cu29   O51     1.954   .     S
Cu29   O55     1.933   .     S
Cu30   O50     1.954   .     S
Cu30   O54     1.933   .     S
Cu30   N47     2.015   .     S
Cu30   O52     1.954   .     S
Cu30   O56     1.933   .     S
C57    O108    1.295   .     A
C57    C74     1.459   .     S
C57    O105    1.295   .     A
C58    H102    1.080   .     S
C58    C62     1.413   .     A
C58    C81     1.406   .     A
C59    O109    1.289   .     A
C59    O112    1.289   .     A
C59    C63     1.409   .     S
C60    C64     1.409   .     S
C60    O111    1.289   .     A
C60    O110    1.289   .     A
C61    C84     1.412   .     A
C61    C82     1.412   .     A
C61    C174    1.523   1_545 S
C62    C83     1.413   .     A
C62    C173    1.523   .     S
C63    C512    1.190   1_554 S
C64    C287    1.190   .     S
C65    C70     1.391   .     A
C65    C76     1.405   .     A
C65    F91     1.358   .     S
C66    F92     1.358   .     S
C66    C71     1.391   .     A
C66    C77     1.405   .     A
C67    C72     1.391   .     A
C67    F93     1.358   .     S
C67    C77     1.405   .     A
C68    O106    1.295   .     A
C68    C75     1.459   .     S
C68    O107    1.295   .     A
C69    C73     1.391   .     A
C69    F94     1.358   .     S
C69    C76     1.405   .     A
C70    C74     1.401   .     A
C70    H95     1.083   .     S
C71    C75     1.401   .     A
C71    H96     1.083   .     S
C72    C75     1.401   .     A
C72    H97     1.083   .     S
C73    C74     1.401   .     A
C73    H98     1.083   .     S
C77    C20     1.466   1_655 S
C78    N103    1.365   .     A
C78    C82     1.406   .     A
C78    F87     1.355   .     S
C79    C83     1.406   .     A
C79    F88     1.355   .     S
C79    N104    1.365   .     A
C80    F89     1.355   .     S
C80    C84     1.406   .     A
C80    N103    1.365   .     A
C81    F90     1.355   .     S
C81    N104    1.365   .     A
C82    H99     1.080   .     S
C83    H100    1.080   .     S
C84    H101    1.080   .     S
Cu85   Cu86    2.682   .     S
Cu85   O105    1.954   .     S
Cu85   O109    1.933   .     S
Cu85   N104    2.015   .     S
Cu85   O107    1.954   .     S
Cu85   O111    1.933   .     S
Cu86   O106    1.954   .     S
Cu86   O110    1.933   .     S
Cu86   N103    2.015   .     S
Cu86   O108    1.954   .     S
Cu86   O112    1.933   .     S
C113   O164    1.295   .     A
C113   C130    1.459   .     S
C113   O161    1.295   .     A
C114   H158    1.080   .     S
C114   C118    1.413   .     A
C114   C137    1.406   .     A
C115   O165    1.289   .     A
C115   O168    1.289   .     A
C115   C119    1.409   .     S
C116   C120    1.409   .     S
C116   O167    1.289   .     A
C116   O166    1.289   .     A
C117   C140    1.412   .     A
C117   C138    1.412   .     A
C118   C139    1.413   .     A
C118   C5      1.523   1_565 S
C119   C568    1.190   1_554 S
C120   C343    1.190   .     S
C121   C126    1.391   .     A
C121   C132    1.405   .     A
C121   F147    1.358   .     S
C122   F148    1.358   .     S
C122   C127    1.391   .     A
C122   C133    1.405   .     A
C123   C128    1.391   .     A
C123   F149    1.358   .     S
C123   C133    1.405   .     A
C124   O162    1.295   .     A
C124   C131    1.459   .     S
C124   O163    1.295   .     A
C125   C129    1.391   .     A
C125   F150    1.358   .     S
C125   C132    1.405   .     A
C126   C130    1.401   .     A
C126   H151    1.083   .     S
C127   C131    1.401   .     A
C127   H152    1.083   .     S
C128   C131    1.401   .     A
C128   H153    1.083   .     S
C129   C130    1.401   .     A
C129   H154    1.083   .     S
C132   C189    1.466   1_455 S
C133   C188    1.466   .     S
C134   N159    1.365   .     A
C134   C138    1.406   .     A
C134   F143    1.355   .     S
C135   C139    1.406   .     A
C135   F144    1.355   .     S
C135   N160    1.365   .     A
C136   F145    1.355   .     S
C136   C140    1.406   .     A
C136   N159    1.365   .     A
C137   F146    1.355   .     S
C137   N160    1.365   .     A
C138   H155    1.080   .     S
C139   H156    1.080   .     S
C140   H157    1.080   .     S
Cu141  Cu142   2.682   .     S
Cu141  O161    1.954   .     S
Cu141  O165    1.933   .     S
Cu141  N160    2.015   .     S
Cu141  O163    1.954   .     S
Cu141  O167    1.933   .     S
Cu142  O162    1.954   .     S
Cu142  O166    1.933   .     S
Cu142  N159    2.015   .     S
Cu142  O164    1.954   .     S
Cu142  O168    1.933   .     S
C169   O220    1.295   .     A
C169   C186    1.459   .     S
C169   O217    1.295   .     A
C170   H214    1.080   .     S
C170   C174    1.413   .     A
C170   C193    1.406   .     A
C171   O221    1.289   .     A
C171   O224    1.289   .     A
C171   C175    1.409   .     S
C172   C176    1.409   .     S
C172   O223    1.289   .     A
C172   O222    1.289   .     A
C173   C196    1.412   .     A
C173   C194    1.412   .     A
C174   C195    1.413   .     A
C174   C61     1.523   1_565 S
C175   C624    1.190   1_554 S
C176   C399    1.190   .     S
C177   C182    1.391   .     A
C177   C188    1.405   .     A
C177   F203    1.358   .     S
C178   F204    1.358   .     S
C178   C183    1.391   .     A
C178   C189    1.405   .     A
C179   C184    1.391   .     A
C179   F205    1.358   .     S
C179   C189    1.405   .     A
C180   O218    1.295   .     A
C180   C187    1.459   .     S
C180   O219    1.295   .     A
C181   C185    1.391   .     A
C181   F206    1.358   .     S
C181   C188    1.405   .     A
C182   C186    1.401   .     A
C182   H207    1.083   .     S
C183   C187    1.401   .     A
C183   H208    1.083   .     S
C184   C187    1.401   .     A
C184   H209    1.083   .     S
C185   C186    1.401   .     A
C185   H210    1.083   .     S
C189   C132    1.466   1_655 S
C190   N215    1.365   .     A
C190   C194    1.406   .     A
C190   F199    1.355   .     S
C191   C195    1.406   .     A
C191   F200    1.355   .     S
C191   N216    1.365   .     A
C192   F201    1.355   .     S
C192   C196    1.406   .     A
C192   N215    1.365   .     A
C193   F202    1.355   .     S
C193   N216    1.365   .     A
C194   H211    1.080   .     S
C195   H212    1.080   .     S
C196   H213    1.080   .     S
Cu197  Cu198   2.682   .     S
Cu197  O217    1.954   .     S
Cu197  O221    1.933   .     S
Cu197  N216    2.015   .     S
Cu197  O219    1.954   .     S
Cu197  O223    1.933   .     S
Cu198  O218    1.954   .     S
Cu198  O222    1.933   .     S
Cu198  N215    2.015   .     S
Cu198  O220    1.954   .     S
Cu198  O224    1.933   .     S
C225   O276    1.295   .     A
C225   C242    1.459   .     S
C225   O273    1.295   .     A
C226   H270    1.080   .     S
C226   C230    1.413   .     A
C226   C249    1.406   .     A
C227   O277    1.289   .     A
C227   O280    1.289   .     A
C227   C231    1.409   .     S
C228   C232    1.409   .     S
C228   O279    1.289   .     A
C228   O278    1.289   .     A
C229   C252    1.412   .     A
C229   C250    1.412   .     A
C229   C342    1.523   1_545 S
C230   C251    1.413   .     A
C230   C341    1.523   .     S
C232   C455    1.190   .     S
C233   C238    1.391   .     A
C233   C244    1.405   .     A
C233   F259    1.358   .     S
C234   F260    1.358   .     S
C234   C239    1.391   .     A
C234   C245    1.405   .     A
C235   C240    1.391   .     A
C235   F261    1.358   .     S
C235   C245    1.405   .     A
C236   O274    1.295   .     A
C236   C243    1.459   .     S
C236   O275    1.295   .     A
C237   C241    1.391   .     A
C237   F262    1.358   .     S
C237   C244    1.405   .     A
C238   C242    1.401   .     A
C238   H263    1.083   .     S
C239   C243    1.401   .     A
C239   H264    1.083   .     S
C240   C243    1.401   .     A
C240   H265    1.083   .     S
C241   C242    1.401   .     A
C241   H266    1.083   .     S
C244   C301    1.466   1_455 S
C245   C300    1.466   .     S
C246   N271    1.365   .     A
C246   C250    1.406   .     A
C246   F255    1.355   .     S
C247   C251    1.406   .     A
C247   F256    1.355   .     S
C247   N272    1.365   .     A
C248   F257    1.355   .     S
C248   C252    1.406   .     A
C248   N271    1.365   .     A
C249   F258    1.355   .     S
C249   N272    1.365   .     A
C250   H267    1.080   .     S
C251   H268    1.080   .     S
C252   H269    1.080   .     S
Cu253  Cu254   2.682   .     S
Cu253  O273    1.954   .     S
Cu253  O277    1.933   .     S
Cu253  N272    2.015   .     S
Cu253  O275    1.954   .     S
Cu253  O279    1.933   .     S
Cu254  O274    1.954   .     S
Cu254  O278    1.933   .     S
Cu254  N271    2.015   .     S
Cu254  O276    1.954   .     S
Cu254  O280    1.933   .     S
C281   O332    1.295   .     A
C281   C298    1.459   .     S
C281   O329    1.295   .     A
C282   H326    1.080   .     S
C282   C286    1.413   .     A
C282   C305    1.406   .     A
C283   O333    1.289   .     A
C283   O336    1.289   .     A
C283   C287    1.409   .     S
C284   C288    1.409   .     S
C284   O335    1.289   .     A
C284   O334    1.289   .     A
C285   C308    1.412   .     A
C285   C306    1.412   .     A
C285   C398    1.523   1_545 S
C286   C307    1.413   .     A
C286   C397    1.523   .     S
C288   C511    1.190   .     S
C289   C294    1.391   .     A
C289   C300    1.405   .     A
C289   F315    1.358   .     S
C290   F316    1.358   .     S
C290   C295    1.391   .     A
C290   C301    1.405   .     A
C291   C296    1.391   .     A
C291   F317    1.358   .     S
C291   C301    1.405   .     A
C292   O330    1.295   .     A
C292   C299    1.459   .     S
C292   O331    1.295   .     A
C293   C297    1.391   .     A
C293   F318    1.358   .     S
C293   C300    1.405   .     A
C294   C298    1.401   .     A
C294   H319    1.083   .     S
C295   C299    1.401   .     A
C295   H320    1.083   .     S
C296   C299    1.401   .     A
C296   H321    1.083   .     S
C297   C298    1.401   .     A
C297   H322    1.083   .     S
C301   C244    1.466   1_655 S
C302   N327    1.365   .     A
C302   C306    1.406   .     A
C302   F311    1.355   .     S
C303   C307    1.406   .     A
C303   F312    1.355   .     S
C303   N328    1.365   .     A
C304   F313    1.355   .     S
C304   C308    1.406   .     A
C304   N327    1.365   .     A
C305   F314    1.355   .     S
C305   N328    1.365   .     A
C306   H323    1.080   .     S
C307   H324    1.080   .     S
C308   H325    1.080   .     S
Cu309  Cu310   2.682   .     S
Cu309  O329    1.954   .     S
Cu309  O333    1.933   .     S
Cu309  N328    2.015   .     S
Cu309  O331    1.954   .     S
Cu309  O335    1.933   .     S
Cu310  O330    1.954   .     S
Cu310  O334    1.933   .     S
Cu310  N327    2.015   .     S
Cu310  O332    1.954   .     S
Cu310  O336    1.933   .     S
C337   O388    1.295   .     A
C337   C354    1.459   .     S
C337   O385    1.295   .     A
C338   H382    1.080   .     S
C338   C342    1.413   .     A
C338   C361    1.406   .     A
C339   O389    1.289   .     A
C339   O392    1.289   .     A
C339   C343    1.409   .     S
C340   C344    1.409   .     S
C340   O391    1.289   .     A
C340   O390    1.289   .     A
C341   C364    1.412   .     A
C341   C362    1.412   .     A
C342   C363    1.413   .     A
C342   C229    1.523   1_565 S
C344   C567    1.190   .     S
C345   C350    1.391   .     A
C345   C356    1.405   .     A
C345   F371    1.358   .     S
C346   F372    1.358   .     S
C346   C351    1.391   .     A
C346   C357    1.405   .     A
C347   C352    1.391   .     A
C347   F373    1.358   .     S
C347   C357    1.405   .     A
C348   O386    1.295   .     A
C348   C355    1.459   .     S
C348   O387    1.295   .     A
C349   C353    1.391   .     A
C349   F374    1.358   .     S
C349   C356    1.405   .     A
C350   C354    1.401   .     A
C350   H375    1.083   .     S
C351   C355    1.401   .     A
C351   H376    1.083   .     S
C352   C355    1.401   .     A
C352   H377    1.083   .     S
C353   C354    1.401   .     A
C353   H378    1.083   .     S
C356   C413    1.466   1_455 S
C357   C412    1.466   .     S
C358   N383    1.365   .     A
C358   C362    1.406   .     A
C358   F367    1.355   .     S
C359   C363    1.406   .     A
C359   F368    1.355   .     S
C359   N384    1.365   .     A
C360   F369    1.355   .     S
C360   C364    1.406   .     A
C360   N383    1.365   .     A
C361   F370    1.355   .     S
C361   N384    1.365   .     A
C362   H379    1.080   .     S
C363   H380    1.080   .     S
C364   H381    1.080   .     S
Cu365  Cu366   2.682   .     S
Cu365  O385    1.954   .     S
Cu365  O389    1.933   .     S
Cu365  N384    2.015   .     S
Cu365  O387    1.954   .     S
Cu365  O391    1.933   .     S
Cu366  O386    1.954   .     S
Cu366  O390    1.933   .     S
Cu366  N383    2.015   .     S
Cu366  O388    1.954   .     S
Cu366  O392    1.933   .     S
C393   O444    1.295   .     A
C393   C410    1.459   .     S
C393   O441    1.295   .     A
C394   H438    1.080   .     S
C394   C398    1.413   .     A
C394   C417    1.406   .     A
C395   O445    1.289   .     A
C395   O448    1.289   .     A
C395   C399    1.409   .     S
C396   C400    1.409   .     S
C396   O447    1.289   .     A
C396   O446    1.289   .     A
C397   C420    1.412   .     A
C397   C418    1.412   .     A
C398   C419    1.413   .     A
C398   C285    1.523   1_565 S
C400   C623    1.190   .     S
C401   C406    1.391   .     A
C401   C412    1.405   .     A
C401   F427    1.358   .     S
C402   F428    1.358   .     S
C402   C407    1.391   .     A
C402   C413    1.405   .     A
C403   C408    1.391   .     A
C403   F429    1.358   .     S
C403   C413    1.405   .     A
C404   O442    1.295   .     A
C404   C411    1.459   .     S
C404   O443    1.295   .     A
C405   C409    1.391   .     A
C405   F430    1.358   .     S
C405   C412    1.405   .     A
C406   C410    1.401   .     A
C406   H431    1.083   .     S
C407   C411    1.401   .     A
C407   H432    1.083   .     S
C408   C411    1.401   .     A
C408   H433    1.083   .     S
C409   C410    1.401   .     A
C409   H434    1.083   .     S
C413   C356    1.466   1_655 S
C414   N439    1.365   .     A
C414   C418    1.406   .     A
C414   F423    1.355   .     S
C415   C419    1.406   .     A
C415   F424    1.355   .     S
C415   N440    1.365   .     A
C416   F425    1.355   .     S
C416   C420    1.406   .     A
C416   N439    1.365   .     A
C417   F426    1.355   .     S
C417   N440    1.365   .     A
C418   H435    1.080   .     S
C419   H436    1.080   .     S
C420   H437    1.080   .     S
Cu421  Cu422   2.682   .     S
Cu421  O441    1.954   .     S
Cu421  O445    1.933   .     S
Cu421  N440    2.015   .     S
Cu421  O443    1.954   .     S
Cu421  O447    1.933   .     S
Cu422  O442    1.954   .     S
Cu422  O446    1.933   .     S
Cu422  N439    2.015   .     S
Cu422  O444    1.954   .     S
Cu422  O448    1.933   .     S
C449   O500    1.295   .     A
C449   C466    1.459   .     S
C449   O497    1.295   .     A
C450   H494    1.080   .     S
C450   C454    1.413   .     A
C450   C473    1.406   .     A
C451   O501    1.289   .     A
C451   O504    1.289   .     A
C451   C455    1.409   .     S
C452   C456    1.409   .     S
C452   O503    1.289   .     A
C452   O502    1.289   .     A
C453   C476    1.412   .     A
C453   C474    1.412   .     A
C453   C566    1.523   1_545 S
C454   C475    1.413   .     A
C454   C565    1.523   .     S
C456   C7      1.190   1_556 S
C457   C462    1.391   .     A
C457   C468    1.405   .     A
C457   F483    1.358   .     S
C458   F484    1.358   .     S
C458   C463    1.391   .     A
C458   C469    1.405   .     A
C459   C464    1.391   .     A
C459   F485    1.358   .     S
C459   C469    1.405   .     A
C460   O498    1.295   .     A
C460   C467    1.459   .     S
C460   O499    1.295   .     A
C461   C465    1.391   .     A
C461   F486    1.358   .     S
C461   C468    1.405   .     A
C462   C466    1.401   .     A
C462   H487    1.083   .     S
C463   C467    1.401   .     A
C463   H488    1.083   .     S
C464   C467    1.401   .     A
C464   H489    1.083   .     S
C465   C466    1.401   .     A
C465   H490    1.083   .     S
C468   C525    1.466   1_455 S
C469   C524    1.466   .     S
C470   N495    1.365   .     A
C470   C474    1.406   .     A
C470   F479    1.355   .     S
C471   C475    1.406   .     A
C471   F480    1.355   .     S
C471   N496    1.365   .     A
C472   F481    1.355   .     S
C472   C476    1.406   .     A
C472   N495    1.365   .     A
C473   F482    1.355   .     S
C473   N496    1.365   .     A
C474   H491    1.080   .     S
C475   H492    1.080   .     S
C476   H493    1.080   .     S
Cu477  Cu478   2.682   .     S
Cu477  O497    1.954   .     S
Cu477  O501    1.933   .     S
Cu477  N496    2.015   .     S
Cu477  O499    1.954   .     S
Cu477  O503    1.933   .     S
Cu478  O498    1.954   .     S
Cu478  O502    1.933   .     S
Cu478  N495    2.015   .     S
Cu478  O500    1.954   .     S
Cu478  O504    1.933   .     S
C505   O556    1.295   .     A
C505   C522    1.459   .     S
C505   O553    1.295   .     A
C506   H550    1.080   .     S
C506   C510    1.413   .     A
C506   C529    1.406   .     A
C507   O557    1.289   .     A
C507   O560    1.289   .     A
C507   C511    1.409   .     S
C508   C512    1.409   .     S
C508   O559    1.289   .     A
C508   O558    1.289   .     A
C509   C532    1.412   .     A
C509   C530    1.412   .     A
C509   C622    1.523   1_545 S
C510   C531    1.413   .     A
C510   C621    1.523   .     S
C512   C63     1.190   1_556 S
C513   C518    1.391   .     A
C513   C524    1.405   .     A
C513   F539    1.358   .     S
C514   F540    1.358   .     S
C514   C519    1.391   .     A
C514   C525    1.405   .     A
C515   C520    1.391   .     A
C515   F541    1.358   .     S
C515   C525    1.405   .     A
C516   O554    1.295   .     A
C516   C523    1.459   .     S
C516   O555    1.295   .     A
C517   C521    1.391   .     A
C517   F542    1.358   .     S
C517   C524    1.405   .     A
C518   C522    1.401   .     A
C518   H543    1.083   .     S
C519   C523    1.401   .     A
C519   H544    1.083   .     S
C520   C523    1.401   .     A
C520   H545    1.083   .     S
C521   C522    1.401   .     A
C521   H546    1.083   .     S
C525   C468    1.466   1_655 S
C526   N551    1.365   .     A
C526   C530    1.406   .     A
C526   F535    1.355   .     S
C527   C531    1.406   .     A
C527   F536    1.355   .     S
C527   N552    1.365   .     A
C528   F537    1.355   .     S
C528   C532    1.406   .     A
C528   N551    1.365   .     A
C529   F538    1.355   .     S
C529   N552    1.365   .     A
C530   H547    1.080   .     S
C531   H548    1.080   .     S
C532   H549    1.080   .     S
Cu533  Cu534   2.682   .     S
Cu533  O553    1.954   .     S
Cu533  O557    1.933   .     S
Cu533  N552    2.015   .     S
Cu533  O555    1.954   .     S
Cu533  O559    1.933   .     S
Cu534  O554    1.954   .     S
Cu534  O558    1.933   .     S
Cu534  N551    2.015   .     S
Cu534  O556    1.954   .     S
Cu534  O560    1.933   .     S
C561   O612    1.295   .     A
C561   C578    1.459   .     S
C561   O609    1.295   .     A
C562   H606    1.080   .     S
C562   C566    1.413   .     A
C562   C585    1.406   .     A
C563   O613    1.289   .     A
C563   O616    1.289   .     A
C563   C567    1.409   .     S
C564   C568    1.409   .     S
C564   O615    1.289   .     A
C564   O614    1.289   .     A
C565   C588    1.412   .     A
C565   C586    1.412   .     A
C566   C587    1.413   .     A
C566   C453    1.523   1_565 S
C568   C119    1.190   1_556 S
C569   C574    1.391   .     A
C569   C580    1.405   .     A
C569   F595    1.358   .     S
C570   F596    1.358   .     S
C570   C575    1.391   .     A
C570   C581    1.405   .     A
C571   C576    1.391   .     A
C571   F597    1.358   .     S
C571   C581    1.405   .     A
C572   O610    1.295   .     A
C572   C579    1.459   .     S
C572   O611    1.295   .     A
C573   C577    1.391   .     A
C573   F598    1.358   .     S
C573   C580    1.405   .     A
C574   C578    1.401   .     A
C574   H599    1.083   .     S
C575   C579    1.401   .     A
C575   H600    1.083   .     S
C576   C579    1.401   .     A
C576   H601    1.083   .     S
C577   C578    1.401   .     A
C577   H602    1.083   .     S
C580   C637    1.466   1_455 S
C581   C636    1.466   .     S
C582   N607    1.365   .     A
C582   C586    1.406   .     A
C582   F591    1.355   .     S
C583   C587    1.406   .     A
C583   F592    1.355   .     S
C583   N608    1.365   .     A
C584   F593    1.355   .     S
C584   C588    1.406   .     A
C584   N607    1.365   .     A
C585   F594    1.355   .     S
C585   N608    1.365   .     A
C586   H603    1.080   .     S
C587   H604    1.080   .     S
C588   H605    1.080   .     S
Cu589  Cu590   2.682   .     S
Cu589  O609    1.954   .     S
Cu589  O613    1.933   .     S
Cu589  N608    2.015   .     S
Cu589  O611    1.954   .     S
Cu589  O615    1.933   .     S
Cu590  O610    1.954   .     S
Cu590  O614    1.933   .     S
Cu590  N607    2.015   .     S
Cu590  O612    1.954   .     S
Cu590  O616    1.933   .     S
C617   O668    1.295   .     A
C617   C634    1.459   .     S
C617   O665    1.295   .     A
C618   H662    1.080   .     S
C618   C622    1.413   .     A
C618   C641    1.406   .     A
C619   O669    1.289   .     A
C619   O672    1.289   .     A
C619   C623    1.409   .     S
C620   C624    1.409   .     S
C620   O671    1.289   .     A
C620   O670    1.289   .     A
C621   C644    1.412   .     A
C621   C642    1.412   .     A
C622   C643    1.413   .     A
C622   C509    1.523   1_565 S
C624   C175    1.190   1_556 S
C625   C630    1.391   .     A
C625   C636    1.405   .     A
C625   F651    1.358   .     S
C626   F652    1.358   .     S
C626   C631    1.391   .     A
C626   C637    1.405   .     A
C627   C632    1.391   .     A
C627   F653    1.358   .     S
C627   C637    1.405   .     A
C628   O666    1.295   .     A
C628   C635    1.459   .     S
C628   O667    1.295   .     A
C629   C633    1.391   .     A
C629   F654    1.358   .     S
C629   C636    1.405   .     A
C630   C634    1.401   .     A
C630   H655    1.083   .     S
C631   C635    1.401   .     A
C631   H656    1.083   .     S
C632   C635    1.401   .     A
C632   H657    1.083   .     S
C633   C634    1.401   .     A
C633   H658    1.083   .     S
C637   C580    1.466   1_655 S
C638   N663    1.365   .     A
C638   C642    1.406   .     A
C638   F647    1.355   .     S
C639   C643    1.406   .     A
C639   F648    1.355   .     S
C639   N664    1.365   .     A
C640   F649    1.355   .     S
C640   C644    1.406   .     A
C640   N663    1.365   .     A
C641   F650    1.355   .     S
C641   N664    1.365   .     A
C642   H659    1.080   .     S
C643   H660    1.080   .     S
C644   H661    1.080   .     S
Cu645  Cu646   2.682   .     S
Cu645  O665    1.954   .     S
Cu645  O669    1.933   .     S
Cu645  N664    2.015   .     S
Cu645  O667    1.954   .     S
Cu645  O671    1.933   .     S
Cu646  O666    1.954   .     S
Cu646  O670    1.933   .     S
Cu646  N663    2.015   .     S
Cu646  O668    1.954   .     S
Cu646  O672    1.933   .     S
