data_str_m2_o1_o16_pcu_sym.127
_audit_creation_date              2020-01-03
_audit_creation_method            'Materials Studio'
_symmetry_space_group_name_H-M    'P1'
_symmetry_Int_Tables_number       1
_symmetry_cell_setting            triclinic
loop_
_symmetry_equiv_pos_as_xyz
  x,y,z
_cell_length_a                    28.6748
_cell_length_b                    32.6160
_cell_length_c                    27.1314
_cell_angle_alpha                 92.0576
_cell_angle_beta                  73.2174
_cell_angle_gamma                 89.3718
loop_
_atom_site_label
_atom_site_type_symbol
_atom_site_fract_x
_atom_site_fract_y
_atom_site_fract_z
_atom_site_U_iso_or_equiv
_atom_site_adp_type
_atom_site_occupancy
C1     C     0.16714   0.24575   0.24768   0.00000  Uiso   1.00
C2     C     0.15033   0.16592   0.48670   0.00000  Uiso   1.00
C3     C     0.16233   0.15630   0.43324   0.00000  Uiso   1.00
C4     C     0.18604   0.15995   0.01271   0.00000  Uiso   1.00
C5     C     0.23528   0.15331   0.48434   0.00000  Uiso   1.00
C6     C     0.24656   0.14144   0.43187   0.00000  Uiso   1.00
C7     C     0.20925   0.13920   0.40850   0.00000  Uiso   1.00
C8     C     0.17317   0.15612   0.06636   0.00000  Uiso   1.00
C9     C     0.25833   0.16161   0.06389   0.00000  Uiso   1.00
C10    C     0.12734   0.16455   0.40641   0.00000  Uiso   1.00
C11    C     0.21218   0.31121   0.23272   0.00000  Uiso   1.00
C12    C     0.14108   0.16477   0.34968   0.00000  Uiso   1.00
C13    C     0.21153   0.01996   0.24330   0.00000  Uiso   1.00
C14    C     0.16728   0.04256   0.25344   0.00000  Uiso   1.00
C15    C     0.12339   0.02167   0.26322   0.00000  Uiso   1.00
C16    C     0.12351   0.31253   0.26066   0.00000  Uiso   1.00
C17    C     0.16775   0.29030   0.24548   0.00000  Uiso   1.00
C18    C     0.29867   0.19263   0.28329   0.00000  Uiso   1.00
C19    C     0.01539   0.19234   0.28333   0.00000  Uiso   1.00
C20    C     0.03397   0.14001   0.21809   0.00000  Uiso   1.00
C21    C     0.31764   0.14074   0.21763   0.00000  Uiso   1.00
C22    C     0.16647   0.08741   0.25208   0.00000  Uiso   1.00
C23    C     0.19282   0.16508   0.14995   0.00000  Uiso   1.00
C24    C     0.27116   0.15598   0.01004   0.00000  Uiso   1.00
C25    C     0.20849   0.16159   0.09281   0.00000  Uiso   1.00
C26    C     0.08041   0.17878   0.43414   0.00000  Uiso   1.00
C27    C     0.06914   0.18854   0.48650   0.00000  Uiso   1.00
C28    C     0.10383   0.18305   0.01243   0.00000  Uiso   1.00
Cu29   Cu    0.11978   0.16666   0.25000   0.00000  Uiso   1.00
Cu30   Cu    0.21355   0.16667   0.25000   0.00000  Uiso   1.00
H31    H     0.08885   0.03810   0.27524   0.00000  Uiso   1.00
H32    H     0.08893   0.29717   0.27080   0.00000  Uiso   1.00
H33    H     0.30575   0.12020   0.19184   0.00000  Uiso   1.00
H34    H     0.30922   0.15411   0.48832   0.00000  Uiso   1.00
H35    H     0.05305   0.18480   0.41486   0.00000  Uiso   1.00
H36    H     0.09430   0.19372   0.05235   0.00000  Uiso   1.00
H37    H     0.03383   0.20192   0.00683   0.00000  Uiso   1.00
H38    H     0.21794   0.12394   0.37088   0.00000  Uiso   1.00
N39    N     0.04931   0.16666   0.24999   0.00000  Uiso   1.00
N40    N     0.28402   0.16669   0.24999   0.00000  Uiso   1.00
O41    O     0.12708   0.22678   0.25000   0.00000  Uiso   1.00
O42    O     0.20627   0.22679   0.25000   0.00000  Uiso   1.00
O43    O     0.10775   0.16665   0.32549   0.00000  Uiso   1.00
O44    O     0.18694   0.16666   0.32549   0.00000  Uiso   1.00
O45    O     0.12706   0.10654   0.25000   0.00000  Uiso   1.00
O46    O     0.20625   0.10655   0.24999   0.00000  Uiso   1.00
O47    O     0.14640   0.16667   0.17451   0.00000  Uiso   1.00
O48    O     0.22559   0.16668   0.17451   0.00000  Uiso   1.00
O49    O     0.29431   0.16804   0.08794   0.00000  Uiso   1.00
C50    C     0.32202   0.13146   0.08458   0.00000  Uiso   1.00
H51    H     0.29871   0.10599   0.10321   0.00000  Uiso   1.00
H52    H     0.01643   0.13692   0.10512   0.00000  Uiso   1.00
H53    H     0.00893   0.12226   0.04418   0.00000  Uiso   1.00
C54    C     0.25418   0.03764   0.25288   0.00000  Uiso   1.00
N55    N     0.28756   0.05158   0.26236   0.00000  Uiso   1.00
O56    O     0.26301   0.21483   0.32063   0.00000  Uiso   1.00
C57    C     0.27093   0.25754   0.31873   0.00000  Uiso   1.00
H58    H     0.29924   0.26715   0.28375   0.00000  Uiso   1.00
H59    H     0.28100   0.26821   0.35351   0.00000  Uiso   1.00
H60    H     0.23622   0.27355   0.32021   0.00000  Uiso   1.00
C61    C     0.03033   0.21859   0.31958   0.00000  Uiso   1.00
N62    N     0.04203   0.24003   0.34862   0.00000  Uiso   1.00
O63    O     0.06821   0.11430   0.18457   0.00000  Uiso   1.00
C64    C     0.05471   0.07304   0.19154   0.00000  Uiso   1.00
H65    H     0.04201   0.06609   0.23289   0.00000  Uiso   1.00
H66    H     0.08724   0.05307   0.17391   0.00000  Uiso   1.00
H67    H     0.02690   0.06514   0.17173   0.00000  Uiso   1.00
C68    C     0.29519   0.12834   0.40197   0.00000  Uiso   1.00
N69    N     0.00070   0.11780   0.37796   0.00000  Uiso   1.00
O70    O     0.12789   0.14119   0.09160   0.00000  Uiso   1.00
C71    C     0.12704   0.09903   0.07729   0.00000  Uiso   1.00
H72    H     0.14849   0.08052   0.09705   0.00000  Uiso   1.00
H73    H     0.14053   0.09232   0.03500   0.00000  Uiso   1.00
H74    H     0.08887   0.08884   0.08890   0.00000  Uiso   1.00
C75    C     0.25832   0.29056   0.20660   0.00000  Uiso   1.00
N76    N     0.29506   0.27421   0.18543   0.00000  Uiso   1.00
C77    C     0.50047   0.24575   0.24768   0.00000  Uiso   1.00
C78    C     0.48366   0.16592   0.48670   0.00000  Uiso   1.00
C79    C     0.49567   0.15630   0.43324   0.00000  Uiso   1.00
C80    C     0.51938   0.15995   0.01271   0.00000  Uiso   1.00
C81    C     0.56861   0.15331   0.48434   0.00000  Uiso   1.00
C82    C     0.57989   0.14144   0.43187   0.00000  Uiso   1.00
C83    C     0.54258   0.13920   0.40850   0.00000  Uiso   1.00
C84    C     0.50651   0.15612   0.06636   0.00000  Uiso   1.00
C85    C     0.59166   0.16161   0.06389   0.00000  Uiso   1.00
C86    C     0.46067   0.16455   0.40641   0.00000  Uiso   1.00
C87    C     0.54551   0.31121   0.23272   0.00000  Uiso   1.00
C88    C     0.47441   0.16477   0.34968   0.00000  Uiso   1.00
C89    C     0.54487   0.01996   0.24330   0.00000  Uiso   1.00
C90    C     0.50062   0.04256   0.25344   0.00000  Uiso   1.00
C91    C     0.45673   0.02167   0.26322   0.00000  Uiso   1.00
C92    C     0.45684   0.31253   0.26066   0.00000  Uiso   1.00
C93    C     0.50108   0.29030   0.24548   0.00000  Uiso   1.00
C94    C     0.63201   0.19263   0.28329   0.00000  Uiso   1.00
C95    C     0.34872   0.19234   0.28333   0.00000  Uiso   1.00
C96    C     0.36730   0.14001   0.21809   0.00000  Uiso   1.00
C97    C     0.65097   0.14074   0.21763   0.00000  Uiso   1.00
C98    C     0.49981   0.08741   0.25208   0.00000  Uiso   1.00
C99    C     0.52615   0.16508   0.14995   0.00000  Uiso   1.00
C100   C     0.60450   0.15598   0.01004   0.00000  Uiso   1.00
C101   C     0.54182   0.16159   0.09281   0.00000  Uiso   1.00
C102   C     0.41374   0.17878   0.43414   0.00000  Uiso   1.00
C103   C     0.40248   0.18854   0.48650   0.00000  Uiso   1.00
C104   C     0.43716   0.18305   0.01243   0.00000  Uiso   1.00
Cu105  Cu    0.45311   0.16666   0.25000   0.00000  Uiso   1.00
Cu106  Cu    0.54689   0.16667   0.25000   0.00000  Uiso   1.00
H107   H     0.42219   0.03810   0.27524   0.00000  Uiso   1.00
H108   H     0.42227   0.29717   0.27080   0.00000  Uiso   1.00
H109   H     0.63909   0.12020   0.19184   0.00000  Uiso   1.00
H110   H     0.64256   0.15411   0.48832   0.00000  Uiso   1.00
H111   H     0.38639   0.18480   0.41486   0.00000  Uiso   1.00
H112   H     0.42764   0.19372   0.05235   0.00000  Uiso   1.00
H113   H     0.36717   0.20192   0.00683   0.00000  Uiso   1.00
H114   H     0.55127   0.12394   0.37088   0.00000  Uiso   1.00
N115   N     0.38265   0.16666   0.24999   0.00000  Uiso   1.00
N116   N     0.61735   0.16669   0.24999   0.00000  Uiso   1.00
O117   O     0.46042   0.22678   0.25000   0.00000  Uiso   1.00
O118   O     0.53961   0.22679   0.25000   0.00000  Uiso   1.00
O119   O     0.44108   0.16665   0.32549   0.00000  Uiso   1.00
O120   O     0.52027   0.16666   0.32549   0.00000  Uiso   1.00
O121   O     0.46039   0.10654   0.25000   0.00000  Uiso   1.00
O122   O     0.53958   0.10655   0.24999   0.00000  Uiso   1.00
O123   O     0.47973   0.16667   0.17451   0.00000  Uiso   1.00
O124   O     0.55892   0.16668   0.17451   0.00000  Uiso   1.00
O125   O     0.62764   0.16804   0.08794   0.00000  Uiso   1.00
C126   C     0.65535   0.13146   0.08458   0.00000  Uiso   1.00
H127   H     0.63205   0.10599   0.10321   0.00000  Uiso   1.00
H128   H     0.34976   0.13692   0.10512   0.00000  Uiso   1.00
H129   H     0.34226   0.12226   0.04418   0.00000  Uiso   1.00
C130   C     0.58751   0.03764   0.25288   0.00000  Uiso   1.00
N131   N     0.62089   0.05158   0.26236   0.00000  Uiso   1.00
O132   O     0.59634   0.21483   0.32063   0.00000  Uiso   1.00
C133   C     0.60426   0.25754   0.31873   0.00000  Uiso   1.00
H134   H     0.63257   0.26715   0.28375   0.00000  Uiso   1.00
H135   H     0.61433   0.26821   0.35351   0.00000  Uiso   1.00
H136   H     0.56955   0.27355   0.32021   0.00000  Uiso   1.00
C137   C     0.36366   0.21859   0.31958   0.00000  Uiso   1.00
N138   N     0.37536   0.24003   0.34862   0.00000  Uiso   1.00
O139   O     0.40154   0.11430   0.18457   0.00000  Uiso   1.00
C140   C     0.38804   0.07304   0.19154   0.00000  Uiso   1.00
H141   H     0.37535   0.06609   0.23289   0.00000  Uiso   1.00
H142   H     0.42057   0.05307   0.17391   0.00000  Uiso   1.00
H143   H     0.36023   0.06514   0.17173   0.00000  Uiso   1.00
C144   C     0.62852   0.12834   0.40197   0.00000  Uiso   1.00
N145   N     0.33403   0.11780   0.37796   0.00000  Uiso   1.00
O146   O     0.46122   0.14119   0.09160   0.00000  Uiso   1.00
C147   C     0.46037   0.09903   0.07729   0.00000  Uiso   1.00
H148   H     0.48182   0.08052   0.09705   0.00000  Uiso   1.00
H149   H     0.47386   0.09232   0.03500   0.00000  Uiso   1.00
H150   H     0.42220   0.08884   0.08890   0.00000  Uiso   1.00
C151   C     0.59166   0.29056   0.20660   0.00000  Uiso   1.00
N152   N     0.62840   0.27421   0.18543   0.00000  Uiso   1.00
C153   C     0.83380   0.24575   0.24768   0.00000  Uiso   1.00
C154   C     0.81699   0.16592   0.48670   0.00000  Uiso   1.00
C155   C     0.82900   0.15630   0.43324   0.00000  Uiso   1.00
C156   C     0.85271   0.15995   0.01271   0.00000  Uiso   1.00
C157   C     0.90194   0.15331   0.48434   0.00000  Uiso   1.00
C158   C     0.91323   0.14144   0.43187   0.00000  Uiso   1.00
C159   C     0.87591   0.13920   0.40850   0.00000  Uiso   1.00
C160   C     0.83984   0.15612   0.06636   0.00000  Uiso   1.00
C161   C     0.92499   0.16161   0.06389   0.00000  Uiso   1.00
C162   C     0.79400   0.16455   0.40641   0.00000  Uiso   1.00
C163   C     0.87884   0.31121   0.23272   0.00000  Uiso   1.00
C164   C     0.80774   0.16477   0.34968   0.00000  Uiso   1.00
C165   C     0.87820   0.01996   0.24330   0.00000  Uiso   1.00
C166   C     0.83395   0.04256   0.25344   0.00000  Uiso   1.00
C167   C     0.79006   0.02167   0.26322   0.00000  Uiso   1.00
C168   C     0.79018   0.31253   0.26066   0.00000  Uiso   1.00
C169   C     0.83442   0.29030   0.24548   0.00000  Uiso   1.00
C170   C     0.96534   0.19263   0.28329   0.00000  Uiso   1.00
C171   C     0.68206   0.19234   0.28333   0.00000  Uiso   1.00
C172   C     0.70064   0.14001   0.21809   0.00000  Uiso   1.00
C173   C     0.98430   0.14074   0.21763   0.00000  Uiso   1.00
C174   C     0.83314   0.08741   0.25208   0.00000  Uiso   1.00
C175   C     0.85949   0.16508   0.14995   0.00000  Uiso   1.00
C176   C     0.93783   0.15598   0.01004   0.00000  Uiso   1.00
C177   C     0.87516   0.16159   0.09281   0.00000  Uiso   1.00
C178   C     0.74707   0.17878   0.43414   0.00000  Uiso   1.00
C179   C     0.73581   0.18854   0.48650   0.00000  Uiso   1.00
C180   C     0.77050   0.18305   0.01243   0.00000  Uiso   1.00
Cu181  Cu    0.78645   0.16666   0.25000   0.00000  Uiso   1.00
Cu182  Cu    0.88022   0.16667   0.25000   0.00000  Uiso   1.00
H183   H     0.75552   0.03810   0.27524   0.00000  Uiso   1.00
H184   H     0.75560   0.29717   0.27080   0.00000  Uiso   1.00
H185   H     0.97242   0.12020   0.19184   0.00000  Uiso   1.00
H186   H     0.97589   0.15411   0.48832   0.00000  Uiso   1.00
H187   H     0.71972   0.18480   0.41486   0.00000  Uiso   1.00
H188   H     0.76097   0.19372   0.05235   0.00000  Uiso   1.00
H189   H     0.70050   0.20192   0.00683   0.00000  Uiso   1.00
H190   H     0.88460   0.12394   0.37088   0.00000  Uiso   1.00
N191   N     0.71598   0.16666   0.24999   0.00000  Uiso   1.00
N192   N     0.95069   0.16669   0.24999   0.00000  Uiso   1.00
O193   O     0.79375   0.22678   0.25000   0.00000  Uiso   1.00
O194   O     0.87294   0.22679   0.25000   0.00000  Uiso   1.00
O195   O     0.77441   0.16665   0.32549   0.00000  Uiso   1.00
O196   O     0.85360   0.16666   0.32549   0.00000  Uiso   1.00
O197   O     0.79373   0.10654   0.25000   0.00000  Uiso   1.00
O198   O     0.87292   0.10655   0.24999   0.00000  Uiso   1.00
O199   O     0.81306   0.16667   0.17451   0.00000  Uiso   1.00
O200   O     0.89225   0.16668   0.17451   0.00000  Uiso   1.00
O201   O     0.96097   0.16804   0.08794   0.00000  Uiso   1.00
C202   C     0.98868   0.13146   0.08458   0.00000  Uiso   1.00
H203   H     0.96538   0.10599   0.10321   0.00000  Uiso   1.00
H204   H     0.68310   0.13692   0.10512   0.00000  Uiso   1.00
H205   H     0.67559   0.12226   0.04418   0.00000  Uiso   1.00
C206   C     0.92084   0.03764   0.25288   0.00000  Uiso   1.00
N207   N     0.95422   0.05158   0.26236   0.00000  Uiso   1.00
O208   O     0.92968   0.21483   0.32063   0.00000  Uiso   1.00
C209   C     0.93760   0.25754   0.31873   0.00000  Uiso   1.00
H210   H     0.96590   0.26715   0.28375   0.00000  Uiso   1.00
H211   H     0.94767   0.26821   0.35351   0.00000  Uiso   1.00
H212   H     0.90288   0.27355   0.32021   0.00000  Uiso   1.00
C213   C     0.69700   0.21859   0.31958   0.00000  Uiso   1.00
N214   N     0.70870   0.24003   0.34862   0.00000  Uiso   1.00
O215   O     0.73487   0.11430   0.18457   0.00000  Uiso   1.00
C216   C     0.72137   0.07304   0.19154   0.00000  Uiso   1.00
H217   H     0.70868   0.06609   0.23289   0.00000  Uiso   1.00
H218   H     0.75390   0.05307   0.17391   0.00000  Uiso   1.00
H219   H     0.69357   0.06514   0.17173   0.00000  Uiso   1.00
C220   C     0.96186   0.12834   0.40197   0.00000  Uiso   1.00
N221   N     0.66737   0.11780   0.37796   0.00000  Uiso   1.00
O222   O     0.79455   0.14119   0.09160   0.00000  Uiso   1.00
C223   C     0.79371   0.09903   0.07729   0.00000  Uiso   1.00
H224   H     0.81515   0.08052   0.09705   0.00000  Uiso   1.00
H225   H     0.80720   0.09232   0.03500   0.00000  Uiso   1.00
H226   H     0.75553   0.08884   0.08890   0.00000  Uiso   1.00
C227   C     0.92499   0.29056   0.20660   0.00000  Uiso   1.00
N228   N     0.96173   0.27421   0.18543   0.00000  Uiso   1.00
C229   C     0.16714   0.57909   0.24768   0.00000  Uiso   1.00
C230   C     0.15033   0.49925   0.48670   0.00000  Uiso   1.00
C231   C     0.16233   0.48963   0.43324   0.00000  Uiso   1.00
C232   C     0.18604   0.49329   0.01271   0.00000  Uiso   1.00
C233   C     0.23528   0.48665   0.48434   0.00000  Uiso   1.00
C234   C     0.24656   0.47477   0.43187   0.00000  Uiso   1.00
C235   C     0.20925   0.47253   0.40850   0.00000  Uiso   1.00
C236   C     0.17317   0.48945   0.06636   0.00000  Uiso   1.00
C237   C     0.25833   0.49494   0.06389   0.00000  Uiso   1.00
C238   C     0.12734   0.49788   0.40641   0.00000  Uiso   1.00
C239   C     0.21218   0.64454   0.23272   0.00000  Uiso   1.00
C240   C     0.14108   0.49811   0.34968   0.00000  Uiso   1.00
C241   C     0.21153   0.35329   0.24330   0.00000  Uiso   1.00
C242   C     0.16728   0.37589   0.25344   0.00000  Uiso   1.00
C243   C     0.12339   0.35501   0.26322   0.00000  Uiso   1.00
C244   C     0.12351   0.64587   0.26066   0.00000  Uiso   1.00
C245   C     0.16775   0.62364   0.24548   0.00000  Uiso   1.00
C246   C     0.29867   0.52597   0.28329   0.00000  Uiso   1.00
C247   C     0.01539   0.52568   0.28333   0.00000  Uiso   1.00
C248   C     0.03397   0.47334   0.21809   0.00000  Uiso   1.00
C249   C     0.31764   0.47407   0.21763   0.00000  Uiso   1.00
C250   C     0.16647   0.42075   0.25208   0.00000  Uiso   1.00
C251   C     0.19282   0.49841   0.14995   0.00000  Uiso   1.00
C252   C     0.27116   0.48931   0.01004   0.00000  Uiso   1.00
C253   C     0.20849   0.49492   0.09281   0.00000  Uiso   1.00
C254   C     0.08041   0.51212   0.43414   0.00000  Uiso   1.00
C255   C     0.06914   0.52187   0.48650   0.00000  Uiso   1.00
C256   C     0.10383   0.51638   0.01243   0.00000  Uiso   1.00
Cu257  Cu    0.11978   0.49999   0.25000   0.00000  Uiso   1.00
Cu258  Cu    0.21355   0.50001   0.25000   0.00000  Uiso   1.00
H259   H     0.08885   0.37143   0.27524   0.00000  Uiso   1.00
H260   H     0.08893   0.63051   0.27080   0.00000  Uiso   1.00
H261   H     0.30575   0.45353   0.19184   0.00000  Uiso   1.00
H262   H     0.30922   0.48744   0.48832   0.00000  Uiso   1.00
H263   H     0.05305   0.51813   0.41486   0.00000  Uiso   1.00
H264   H     0.09430   0.52705   0.05235   0.00000  Uiso   1.00
H265   H     0.03383   0.53525   0.00683   0.00000  Uiso   1.00
H266   H     0.21794   0.45727   0.37088   0.00000  Uiso   1.00
N267   N     0.04931   0.49999   0.24999   0.00000  Uiso   1.00
N268   N     0.28402   0.50002   0.24999   0.00000  Uiso   1.00
O269   O     0.12708   0.56011   0.25000   0.00000  Uiso   1.00
O270   O     0.20627   0.56012   0.25000   0.00000  Uiso   1.00
O271   O     0.10775   0.49998   0.32549   0.00000  Uiso   1.00
O272   O     0.18694   0.49999   0.32549   0.00000  Uiso   1.00
O273   O     0.12706   0.43988   0.25000   0.00000  Uiso   1.00
O274   O     0.20625   0.43989   0.24999   0.00000  Uiso   1.00
O275   O     0.14640   0.50001   0.17451   0.00000  Uiso   1.00
O276   O     0.22559   0.50002   0.17451   0.00000  Uiso   1.00
O277   O     0.29431   0.50137   0.08794   0.00000  Uiso   1.00
C278   C     0.32202   0.46479   0.08458   0.00000  Uiso   1.00
H279   H     0.29871   0.43932   0.10321   0.00000  Uiso   1.00
H280   H     0.01643   0.47026   0.10512   0.00000  Uiso   1.00
H281   H     0.00893   0.45560   0.04418   0.00000  Uiso   1.00
C282   C     0.25418   0.37098   0.25288   0.00000  Uiso   1.00
N283   N     0.28756   0.38491   0.26236   0.00000  Uiso   1.00
O284   O     0.26301   0.54816   0.32063   0.00000  Uiso   1.00
C285   C     0.27093   0.59087   0.31873   0.00000  Uiso   1.00
H286   H     0.29924   0.60048   0.28375   0.00000  Uiso   1.00
H287   H     0.28100   0.60155   0.35351   0.00000  Uiso   1.00
H288   H     0.23622   0.60688   0.32021   0.00000  Uiso   1.00
C289   C     0.03033   0.55193   0.31958   0.00000  Uiso   1.00
N290   N     0.04203   0.57336   0.34862   0.00000  Uiso   1.00
O291   O     0.06821   0.44763   0.18457   0.00000  Uiso   1.00
C292   C     0.05471   0.40637   0.19154   0.00000  Uiso   1.00
H293   H     0.04201   0.39942   0.23289   0.00000  Uiso   1.00
H294   H     0.08724   0.38640   0.17391   0.00000  Uiso   1.00
H295   H     0.02690   0.39847   0.17173   0.00000  Uiso   1.00
C296   C     0.29519   0.46167   0.40197   0.00000  Uiso   1.00
N297   N     0.00070   0.45114   0.37796   0.00000  Uiso   1.00
O298   O     0.12789   0.47452   0.09160   0.00000  Uiso   1.00
C299   C     0.12704   0.43237   0.07729   0.00000  Uiso   1.00
H300   H     0.14849   0.41385   0.09705   0.00000  Uiso   1.00
H301   H     0.14053   0.42565   0.03500   0.00000  Uiso   1.00
H302   H     0.08887   0.42217   0.08890   0.00000  Uiso   1.00
C303   C     0.25832   0.62389   0.20660   0.00000  Uiso   1.00
N304   N     0.29506   0.60754   0.18543   0.00000  Uiso   1.00
C305   C     0.50047   0.57909   0.24768   0.00000  Uiso   1.00
C306   C     0.48366   0.49925   0.48670   0.00000  Uiso   1.00
C307   C     0.49567   0.48963   0.43324   0.00000  Uiso   1.00
C308   C     0.51938   0.49329   0.01271   0.00000  Uiso   1.00
C309   C     0.56861   0.48665   0.48434   0.00000  Uiso   1.00
C310   C     0.57989   0.47477   0.43187   0.00000  Uiso   1.00
C311   C     0.54258   0.47253   0.40850   0.00000  Uiso   1.00
C312   C     0.50651   0.48945   0.06636   0.00000  Uiso   1.00
C313   C     0.59166   0.49494   0.06389   0.00000  Uiso   1.00
C314   C     0.46067   0.49788   0.40641   0.00000  Uiso   1.00
C315   C     0.54551   0.64454   0.23272   0.00000  Uiso   1.00
C316   C     0.47441   0.49811   0.34968   0.00000  Uiso   1.00
C317   C     0.54487   0.35329   0.24330   0.00000  Uiso   1.00
C318   C     0.50062   0.37589   0.25344   0.00000  Uiso   1.00
C319   C     0.45673   0.35501   0.26322   0.00000  Uiso   1.00
C320   C     0.45684   0.64587   0.26066   0.00000  Uiso   1.00
C321   C     0.50108   0.62364   0.24548   0.00000  Uiso   1.00
C322   C     0.63201   0.52597   0.28329   0.00000  Uiso   1.00
C323   C     0.34872   0.52568   0.28333   0.00000  Uiso   1.00
C324   C     0.36730   0.47334   0.21809   0.00000  Uiso   1.00
C325   C     0.65097   0.47407   0.21763   0.00000  Uiso   1.00
C326   C     0.49981   0.42075   0.25208   0.00000  Uiso   1.00
C327   C     0.52615   0.49841   0.14995   0.00000  Uiso   1.00
C328   C     0.60450   0.48931   0.01004   0.00000  Uiso   1.00
C329   C     0.54182   0.49492   0.09281   0.00000  Uiso   1.00
C330   C     0.41374   0.51212   0.43414   0.00000  Uiso   1.00
C331   C     0.40248   0.52187   0.48650   0.00000  Uiso   1.00
C332   C     0.43716   0.51638   0.01243   0.00000  Uiso   1.00
Cu333  Cu    0.45311   0.49999   0.25000   0.00000  Uiso   1.00
Cu334  Cu    0.54689   0.50001   0.25000   0.00000  Uiso   1.00
H335   H     0.42219   0.37143   0.27524   0.00000  Uiso   1.00
H336   H     0.42227   0.63051   0.27080   0.00000  Uiso   1.00
H337   H     0.63909   0.45353   0.19184   0.00000  Uiso   1.00
H338   H     0.64256   0.48744   0.48832   0.00000  Uiso   1.00
H339   H     0.38639   0.51813   0.41486   0.00000  Uiso   1.00
H340   H     0.42764   0.52705   0.05235   0.00000  Uiso   1.00
H341   H     0.36717   0.53525   0.00683   0.00000  Uiso   1.00
H342   H     0.55127   0.45727   0.37088   0.00000  Uiso   1.00
N343   N     0.38265   0.49999   0.24999   0.00000  Uiso   1.00
N344   N     0.61735   0.50002   0.24999   0.00000  Uiso   1.00
O345   O     0.46042   0.56011   0.25000   0.00000  Uiso   1.00
O346   O     0.53961   0.56012   0.25000   0.00000  Uiso   1.00
O347   O     0.44108   0.49998   0.32549   0.00000  Uiso   1.00
O348   O     0.52027   0.49999   0.32549   0.00000  Uiso   1.00
O349   O     0.46039   0.43988   0.25000   0.00000  Uiso   1.00
O350   O     0.53958   0.43989   0.24999   0.00000  Uiso   1.00
O351   O     0.47973   0.50001   0.17451   0.00000  Uiso   1.00
O352   O     0.55892   0.50002   0.17451   0.00000  Uiso   1.00
O353   O     0.62764   0.50137   0.08794   0.00000  Uiso   1.00
C354   C     0.65535   0.46479   0.08458   0.00000  Uiso   1.00
H355   H     0.63205   0.43932   0.10321   0.00000  Uiso   1.00
H356   H     0.34976   0.47026   0.10512   0.00000  Uiso   1.00
H357   H     0.34226   0.45560   0.04418   0.00000  Uiso   1.00
C358   C     0.58751   0.37098   0.25288   0.00000  Uiso   1.00
N359   N     0.62089   0.38491   0.26236   0.00000  Uiso   1.00
O360   O     0.59634   0.54816   0.32063   0.00000  Uiso   1.00
C361   C     0.60426   0.59087   0.31873   0.00000  Uiso   1.00
H362   H     0.63257   0.60048   0.28375   0.00000  Uiso   1.00
H363   H     0.61433   0.60155   0.35351   0.00000  Uiso   1.00
H364   H     0.56955   0.60688   0.32021   0.00000  Uiso   1.00
C365   C     0.36366   0.55193   0.31958   0.00000  Uiso   1.00
N366   N     0.37536   0.57336   0.34862   0.00000  Uiso   1.00
O367   O     0.40154   0.44763   0.18457   0.00000  Uiso   1.00
C368   C     0.38804   0.40637   0.19154   0.00000  Uiso   1.00
H369   H     0.37535   0.39942   0.23289   0.00000  Uiso   1.00
H370   H     0.42057   0.38640   0.17391   0.00000  Uiso   1.00
H371   H     0.36023   0.39847   0.17173   0.00000  Uiso   1.00
C372   C     0.62852   0.46167   0.40197   0.00000  Uiso   1.00
N373   N     0.33403   0.45114   0.37796   0.00000  Uiso   1.00
O374   O     0.46122   0.47452   0.09160   0.00000  Uiso   1.00
C375   C     0.46037   0.43237   0.07729   0.00000  Uiso   1.00
H376   H     0.48182   0.41385   0.09705   0.00000  Uiso   1.00
H377   H     0.47386   0.42565   0.03500   0.00000  Uiso   1.00
H378   H     0.42220   0.42217   0.08890   0.00000  Uiso   1.00
C379   C     0.59166   0.62389   0.20660   0.00000  Uiso   1.00
N380   N     0.62840   0.60754   0.18543   0.00000  Uiso   1.00
C381   C     0.83380   0.57909   0.24768   0.00000  Uiso   1.00
C382   C     0.81699   0.49925   0.48670   0.00000  Uiso   1.00
C383   C     0.82900   0.48963   0.43324   0.00000  Uiso   1.00
C384   C     0.85271   0.49329   0.01271   0.00000  Uiso   1.00
C385   C     0.90194   0.48665   0.48434   0.00000  Uiso   1.00
C386   C     0.91323   0.47477   0.43187   0.00000  Uiso   1.00
C387   C     0.87591   0.47253   0.40850   0.00000  Uiso   1.00
C388   C     0.83984   0.48945   0.06636   0.00000  Uiso   1.00
C389   C     0.92499   0.49494   0.06389   0.00000  Uiso   1.00
C390   C     0.79400   0.49788   0.40641   0.00000  Uiso   1.00
C391   C     0.87884   0.64454   0.23272   0.00000  Uiso   1.00
C392   C     0.80774   0.49811   0.34968   0.00000  Uiso   1.00
C393   C     0.87820   0.35329   0.24330   0.00000  Uiso   1.00
C394   C     0.83395   0.37589   0.25344   0.00000  Uiso   1.00
C395   C     0.79006   0.35501   0.26322   0.00000  Uiso   1.00
C396   C     0.79018   0.64587   0.26066   0.00000  Uiso   1.00
C397   C     0.83442   0.62364   0.24548   0.00000  Uiso   1.00
C398   C     0.96534   0.52597   0.28329   0.00000  Uiso   1.00
C399   C     0.68206   0.52568   0.28333   0.00000  Uiso   1.00
C400   C     0.70064   0.47334   0.21809   0.00000  Uiso   1.00
C401   C     0.98430   0.47407   0.21763   0.00000  Uiso   1.00
C402   C     0.83314   0.42075   0.25208   0.00000  Uiso   1.00
C403   C     0.85949   0.49841   0.14995   0.00000  Uiso   1.00
C404   C     0.93783   0.48931   0.01004   0.00000  Uiso   1.00
C405   C     0.87516   0.49492   0.09281   0.00000  Uiso   1.00
C406   C     0.74707   0.51212   0.43414   0.00000  Uiso   1.00
C407   C     0.73581   0.52187   0.48650   0.00000  Uiso   1.00
C408   C     0.77050   0.51638   0.01243   0.00000  Uiso   1.00
Cu409  Cu    0.78645   0.49999   0.25000   0.00000  Uiso   1.00
Cu410  Cu    0.88022   0.50001   0.25000   0.00000  Uiso   1.00
H411   H     0.75552   0.37143   0.27524   0.00000  Uiso   1.00
H412   H     0.75560   0.63051   0.27080   0.00000  Uiso   1.00
H413   H     0.97242   0.45353   0.19184   0.00000  Uiso   1.00
H414   H     0.97589   0.48744   0.48832   0.00000  Uiso   1.00
H415   H     0.71972   0.51813   0.41486   0.00000  Uiso   1.00
H416   H     0.76097   0.52705   0.05235   0.00000  Uiso   1.00
H417   H     0.70050   0.53525   0.00683   0.00000  Uiso   1.00
H418   H     0.88460   0.45727   0.37088   0.00000  Uiso   1.00
N419   N     0.71598   0.49999   0.24999   0.00000  Uiso   1.00
N420   N     0.95069   0.50002   0.24999   0.00000  Uiso   1.00
O421   O     0.79375   0.56011   0.25000   0.00000  Uiso   1.00
O422   O     0.87294   0.56012   0.25000   0.00000  Uiso   1.00
O423   O     0.77441   0.49998   0.32549   0.00000  Uiso   1.00
O424   O     0.85360   0.49999   0.32549   0.00000  Uiso   1.00
O425   O     0.79373   0.43988   0.25000   0.00000  Uiso   1.00
O426   O     0.87292   0.43989   0.24999   0.00000  Uiso   1.00
O427   O     0.81306   0.50001   0.17451   0.00000  Uiso   1.00
O428   O     0.89225   0.50002   0.17451   0.00000  Uiso   1.00
O429   O     0.96097   0.50137   0.08794   0.00000  Uiso   1.00
C430   C     0.98868   0.46479   0.08458   0.00000  Uiso   1.00
H431   H     0.96538   0.43932   0.10321   0.00000  Uiso   1.00
H432   H     0.68310   0.47026   0.10512   0.00000  Uiso   1.00
H433   H     0.67559   0.45560   0.04418   0.00000  Uiso   1.00
C434   C     0.92084   0.37098   0.25288   0.00000  Uiso   1.00
N435   N     0.95422   0.38491   0.26236   0.00000  Uiso   1.00
O436   O     0.92968   0.54816   0.32063   0.00000  Uiso   1.00
C437   C     0.93760   0.59087   0.31873   0.00000  Uiso   1.00
H438   H     0.96590   0.60048   0.28375   0.00000  Uiso   1.00
H439   H     0.94767   0.60155   0.35351   0.00000  Uiso   1.00
H440   H     0.90288   0.60688   0.32021   0.00000  Uiso   1.00
C441   C     0.69700   0.55193   0.31958   0.00000  Uiso   1.00
N442   N     0.70870   0.57336   0.34862   0.00000  Uiso   1.00
O443   O     0.73487   0.44763   0.18457   0.00000  Uiso   1.00
C444   C     0.72137   0.40637   0.19154   0.00000  Uiso   1.00
H445   H     0.70868   0.39942   0.23289   0.00000  Uiso   1.00
H446   H     0.75390   0.38640   0.17391   0.00000  Uiso   1.00
H447   H     0.69357   0.39847   0.17173   0.00000  Uiso   1.00
C448   C     0.96186   0.46167   0.40197   0.00000  Uiso   1.00
N449   N     0.66737   0.45114   0.37796   0.00000  Uiso   1.00
O450   O     0.79455   0.47452   0.09160   0.00000  Uiso   1.00
C451   C     0.79371   0.43237   0.07729   0.00000  Uiso   1.00
H452   H     0.81515   0.41385   0.09705   0.00000  Uiso   1.00
H453   H     0.80720   0.42565   0.03500   0.00000  Uiso   1.00
H454   H     0.75553   0.42217   0.08890   0.00000  Uiso   1.00
C455   C     0.92499   0.62389   0.20660   0.00000  Uiso   1.00
N456   N     0.96173   0.60754   0.18543   0.00000  Uiso   1.00
C457   C     0.16714   0.91242   0.24768   0.00000  Uiso   1.00
C458   C     0.15033   0.83258   0.48670   0.00000  Uiso   1.00
C459   C     0.16233   0.82297   0.43324   0.00000  Uiso   1.00
C460   C     0.18604   0.82662   0.01271   0.00000  Uiso   1.00
C461   C     0.23528   0.81998   0.48434   0.00000  Uiso   1.00
C462   C     0.24656   0.80811   0.43187   0.00000  Uiso   1.00
C463   C     0.20925   0.80587   0.40850   0.00000  Uiso   1.00
C464   C     0.17317   0.82278   0.06636   0.00000  Uiso   1.00
C465   C     0.25833   0.82828   0.06389   0.00000  Uiso   1.00
C466   C     0.12734   0.83122   0.40641   0.00000  Uiso   1.00
C467   C     0.21218   0.97787   0.23272   0.00000  Uiso   1.00
C468   C     0.14108   0.83144   0.34968   0.00000  Uiso   1.00
C469   C     0.21153   0.68663   0.24330   0.00000  Uiso   1.00
C470   C     0.16728   0.70922   0.25344   0.00000  Uiso   1.00
C471   C     0.12339   0.68834   0.26322   0.00000  Uiso   1.00
C472   C     0.12351   0.97920   0.26066   0.00000  Uiso   1.00
C473   C     0.16775   0.95697   0.24548   0.00000  Uiso   1.00
C474   C     0.29867   0.85930   0.28329   0.00000  Uiso   1.00
C475   C     0.01539   0.85901   0.28333   0.00000  Uiso   1.00
C476   C     0.03397   0.80668   0.21809   0.00000  Uiso   1.00
C477   C     0.31764   0.80740   0.21763   0.00000  Uiso   1.00
C478   C     0.16647   0.75408   0.25208   0.00000  Uiso   1.00
C479   C     0.19282   0.83175   0.14995   0.00000  Uiso   1.00
C480   C     0.27116   0.82264   0.01004   0.00000  Uiso   1.00
C481   C     0.20849   0.82825   0.09281   0.00000  Uiso   1.00
C482   C     0.08041   0.84545   0.43414   0.00000  Uiso   1.00
C483   C     0.06914   0.85520   0.48650   0.00000  Uiso   1.00
C484   C     0.10383   0.84971   0.01243   0.00000  Uiso   1.00
Cu485  Cu    0.11978   0.83333   0.25000   0.00000  Uiso   1.00
Cu486  Cu    0.21355   0.83334   0.25000   0.00000  Uiso   1.00
H487   H     0.08885   0.70477   0.27524   0.00000  Uiso   1.00
H488   H     0.08893   0.96384   0.27080   0.00000  Uiso   1.00
H489   H     0.30575   0.78687   0.19184   0.00000  Uiso   1.00
H490   H     0.30922   0.82078   0.48832   0.00000  Uiso   1.00
H491   H     0.05305   0.85147   0.41486   0.00000  Uiso   1.00
H492   H     0.09430   0.86039   0.05235   0.00000  Uiso   1.00
H493   H     0.03383   0.86858   0.00683   0.00000  Uiso   1.00
H494   H     0.21794   0.79061   0.37088   0.00000  Uiso   1.00
N495   N     0.04931   0.83332   0.24999   0.00000  Uiso   1.00
N496   N     0.28402   0.83335   0.24999   0.00000  Uiso   1.00
O497   O     0.12708   0.89345   0.25000   0.00000  Uiso   1.00
O498   O     0.20627   0.89346   0.25000   0.00000  Uiso   1.00
O499   O     0.10775   0.83332   0.32549   0.00000  Uiso   1.00
O500   O     0.18694   0.83333   0.32549   0.00000  Uiso   1.00
O501   O     0.12706   0.77321   0.25000   0.00000  Uiso   1.00
O502   O     0.20625   0.77322   0.24999   0.00000  Uiso   1.00
O503   O     0.14640   0.83334   0.17451   0.00000  Uiso   1.00
O504   O     0.22559   0.83335   0.17451   0.00000  Uiso   1.00
O505   O     0.29431   0.83471   0.08794   0.00000  Uiso   1.00
C506   C     0.32202   0.79812   0.08458   0.00000  Uiso   1.00
H507   H     0.29871   0.77265   0.10321   0.00000  Uiso   1.00
H508   H     0.01643   0.80359   0.10512   0.00000  Uiso   1.00
H509   H     0.00893   0.78893   0.04418   0.00000  Uiso   1.00
C510   C     0.25418   0.70431   0.25288   0.00000  Uiso   1.00
N511   N     0.28756   0.71825   0.26236   0.00000  Uiso   1.00
O512   O     0.26301   0.88150   0.32063   0.00000  Uiso   1.00
C513   C     0.27093   0.92420   0.31873   0.00000  Uiso   1.00
H514   H     0.29924   0.93382   0.28375   0.00000  Uiso   1.00
H515   H     0.28100   0.93488   0.35351   0.00000  Uiso   1.00
H516   H     0.23622   0.94021   0.32021   0.00000  Uiso   1.00
C517   C     0.03033   0.88526   0.31958   0.00000  Uiso   1.00
N518   N     0.04203   0.90670   0.34862   0.00000  Uiso   1.00
O519   O     0.06821   0.78097   0.18457   0.00000  Uiso   1.00
C520   C     0.05471   0.73970   0.19154   0.00000  Uiso   1.00
H521   H     0.04201   0.73276   0.23289   0.00000  Uiso   1.00
H522   H     0.08724   0.71973   0.17391   0.00000  Uiso   1.00
H523   H     0.02690   0.73181   0.17173   0.00000  Uiso   1.00
C524   C     0.29519   0.79500   0.40197   0.00000  Uiso   1.00
N525   N     0.00070   0.78447   0.37796   0.00000  Uiso   1.00
O526   O     0.12789   0.80786   0.09160   0.00000  Uiso   1.00
C527   C     0.12704   0.76570   0.07729   0.00000  Uiso   1.00
H528   H     0.14849   0.74718   0.09705   0.00000  Uiso   1.00
H529   H     0.14053   0.75898   0.03500   0.00000  Uiso   1.00
H530   H     0.08887   0.75551   0.08890   0.00000  Uiso   1.00
C531   C     0.25832   0.95722   0.20660   0.00000  Uiso   1.00
N532   N     0.29506   0.94088   0.18543   0.00000  Uiso   1.00
C533   C     0.50047   0.91242   0.24768   0.00000  Uiso   1.00
C534   C     0.48366   0.83258   0.48670   0.00000  Uiso   1.00
C535   C     0.49567   0.82297   0.43324   0.00000  Uiso   1.00
C536   C     0.51938   0.82662   0.01271   0.00000  Uiso   1.00
C537   C     0.56861   0.81998   0.48434   0.00000  Uiso   1.00
C538   C     0.57989   0.80811   0.43187   0.00000  Uiso   1.00
C539   C     0.54258   0.80587   0.40850   0.00000  Uiso   1.00
C540   C     0.50651   0.82278   0.06636   0.00000  Uiso   1.00
C541   C     0.59166   0.82828   0.06389   0.00000  Uiso   1.00
C542   C     0.46067   0.83122   0.40641   0.00000  Uiso   1.00
C543   C     0.54551   0.97787   0.23272   0.00000  Uiso   1.00
C544   C     0.47441   0.83144   0.34968   0.00000  Uiso   1.00
C545   C     0.54487   0.68663   0.24330   0.00000  Uiso   1.00
C546   C     0.50062   0.70922   0.25344   0.00000  Uiso   1.00
C547   C     0.45673   0.68834   0.26322   0.00000  Uiso   1.00
C548   C     0.45684   0.97920   0.26066   0.00000  Uiso   1.00
C549   C     0.50108   0.95697   0.24548   0.00000  Uiso   1.00
C550   C     0.63201   0.85930   0.28329   0.00000  Uiso   1.00
C551   C     0.34872   0.85901   0.28333   0.00000  Uiso   1.00
C552   C     0.36730   0.80668   0.21809   0.00000  Uiso   1.00
C553   C     0.65097   0.80740   0.21763   0.00000  Uiso   1.00
C554   C     0.49981   0.75408   0.25208   0.00000  Uiso   1.00
C555   C     0.52615   0.83175   0.14995   0.00000  Uiso   1.00
C556   C     0.60450   0.82264   0.01004   0.00000  Uiso   1.00
C557   C     0.54182   0.82825   0.09281   0.00000  Uiso   1.00
C558   C     0.41374   0.84545   0.43414   0.00000  Uiso   1.00
C559   C     0.40248   0.85520   0.48650   0.00000  Uiso   1.00
C560   C     0.43716   0.84971   0.01243   0.00000  Uiso   1.00
Cu561  Cu    0.45311   0.83333   0.25000   0.00000  Uiso   1.00
Cu562  Cu    0.54689   0.83334   0.25000   0.00000  Uiso   1.00
H563   H     0.42219   0.70477   0.27524   0.00000  Uiso   1.00
H564   H     0.42227   0.96384   0.27080   0.00000  Uiso   1.00
H565   H     0.63909   0.78687   0.19184   0.00000  Uiso   1.00
H566   H     0.64256   0.82078   0.48832   0.00000  Uiso   1.00
H567   H     0.38639   0.85147   0.41486   0.00000  Uiso   1.00
H568   H     0.42764   0.86039   0.05235   0.00000  Uiso   1.00
H569   H     0.36717   0.86858   0.00683   0.00000  Uiso   1.00
H570   H     0.55127   0.79061   0.37088   0.00000  Uiso   1.00
N571   N     0.38265   0.83332   0.24999   0.00000  Uiso   1.00
N572   N     0.61735   0.83335   0.24999   0.00000  Uiso   1.00
O573   O     0.46042   0.89345   0.25000   0.00000  Uiso   1.00
O574   O     0.53961   0.89346   0.25000   0.00000  Uiso   1.00
O575   O     0.44108   0.83332   0.32549   0.00000  Uiso   1.00
O576   O     0.52027   0.83333   0.32549   0.00000  Uiso   1.00
O577   O     0.46039   0.77321   0.25000   0.00000  Uiso   1.00
O578   O     0.53958   0.77322   0.24999   0.00000  Uiso   1.00
O579   O     0.47973   0.83334   0.17451   0.00000  Uiso   1.00
O580   O     0.55892   0.83335   0.17451   0.00000  Uiso   1.00
O581   O     0.62764   0.83471   0.08794   0.00000  Uiso   1.00
C582   C     0.65535   0.79812   0.08458   0.00000  Uiso   1.00
H583   H     0.63205   0.77265   0.10321   0.00000  Uiso   1.00
H584   H     0.34976   0.80359   0.10512   0.00000  Uiso   1.00
H585   H     0.34226   0.78893   0.04418   0.00000  Uiso   1.00
C586   C     0.58751   0.70431   0.25288   0.00000  Uiso   1.00
N587   N     0.62089   0.71825   0.26236   0.00000  Uiso   1.00
O588   O     0.59634   0.88150   0.32063   0.00000  Uiso   1.00
C589   C     0.60426   0.92420   0.31873   0.00000  Uiso   1.00
H590   H     0.63257   0.93382   0.28375   0.00000  Uiso   1.00
H591   H     0.61433   0.93488   0.35351   0.00000  Uiso   1.00
H592   H     0.56955   0.94021   0.32021   0.00000  Uiso   1.00
C593   C     0.36366   0.88526   0.31958   0.00000  Uiso   1.00
N594   N     0.37536   0.90670   0.34862   0.00000  Uiso   1.00
O595   O     0.40154   0.78097   0.18457   0.00000  Uiso   1.00
C596   C     0.38804   0.73970   0.19154   0.00000  Uiso   1.00
H597   H     0.37535   0.73276   0.23289   0.00000  Uiso   1.00
H598   H     0.42057   0.71973   0.17391   0.00000  Uiso   1.00
H599   H     0.36023   0.73181   0.17173   0.00000  Uiso   1.00
C600   C     0.62852   0.79500   0.40197   0.00000  Uiso   1.00
N601   N     0.33403   0.78447   0.37796   0.00000  Uiso   1.00
O602   O     0.46122   0.80786   0.09160   0.00000  Uiso   1.00
C603   C     0.46037   0.76570   0.07729   0.00000  Uiso   1.00
H604   H     0.48182   0.74718   0.09705   0.00000  Uiso   1.00
H605   H     0.47386   0.75898   0.03500   0.00000  Uiso   1.00
H606   H     0.42220   0.75551   0.08890   0.00000  Uiso   1.00
C607   C     0.59166   0.95722   0.20660   0.00000  Uiso   1.00
N608   N     0.62840   0.94088   0.18543   0.00000  Uiso   1.00
C609   C     0.83380   0.91242   0.24768   0.00000  Uiso   1.00
C610   C     0.81699   0.83258   0.48670   0.00000  Uiso   1.00
C611   C     0.82900   0.82297   0.43324   0.00000  Uiso   1.00
C612   C     0.85271   0.82662   0.01271   0.00000  Uiso   1.00
C613   C     0.90194   0.81998   0.48434   0.00000  Uiso   1.00
C614   C     0.91323   0.80811   0.43187   0.00000  Uiso   1.00
C615   C     0.87591   0.80587   0.40850   0.00000  Uiso   1.00
C616   C     0.83984   0.82278   0.06636   0.00000  Uiso   1.00
C617   C     0.92499   0.82828   0.06389   0.00000  Uiso   1.00
C618   C     0.79400   0.83122   0.40641   0.00000  Uiso   1.00
C619   C     0.87884   0.97787   0.23272   0.00000  Uiso   1.00
C620   C     0.80774   0.83144   0.34968   0.00000  Uiso   1.00
C621   C     0.87820   0.68663   0.24330   0.00000  Uiso   1.00
C622   C     0.83395   0.70922   0.25344   0.00000  Uiso   1.00
C623   C     0.79006   0.68834   0.26322   0.00000  Uiso   1.00
C624   C     0.79018   0.97920   0.26066   0.00000  Uiso   1.00
C625   C     0.83442   0.95697   0.24548   0.00000  Uiso   1.00
C626   C     0.96534   0.85930   0.28329   0.00000  Uiso   1.00
C627   C     0.68206   0.85901   0.28333   0.00000  Uiso   1.00
C628   C     0.70064   0.80668   0.21809   0.00000  Uiso   1.00
C629   C     0.98430   0.80740   0.21763   0.00000  Uiso   1.00
C630   C     0.83314   0.75408   0.25208   0.00000  Uiso   1.00
C631   C     0.85949   0.83175   0.14995   0.00000  Uiso   1.00
C632   C     0.93783   0.82264   0.01004   0.00000  Uiso   1.00
C633   C     0.87516   0.82825   0.09281   0.00000  Uiso   1.00
C634   C     0.74707   0.84545   0.43414   0.00000  Uiso   1.00
C635   C     0.73581   0.85520   0.48650   0.00000  Uiso   1.00
C636   C     0.77050   0.84971   0.01243   0.00000  Uiso   1.00
Cu637  Cu    0.78645   0.83333   0.25000   0.00000  Uiso   1.00
Cu638  Cu    0.88022   0.83334   0.25000   0.00000  Uiso   1.00
H639   H     0.75552   0.70477   0.27524   0.00000  Uiso   1.00
H640   H     0.75560   0.96384   0.27080   0.00000  Uiso   1.00
H641   H     0.97242   0.78687   0.19184   0.00000  Uiso   1.00
H642   H     0.97589   0.82078   0.48832   0.00000  Uiso   1.00
H643   H     0.71972   0.85147   0.41486   0.00000  Uiso   1.00
H644   H     0.76097   0.86039   0.05235   0.00000  Uiso   1.00
H645   H     0.70050   0.86858   0.00683   0.00000  Uiso   1.00
H646   H     0.88460   0.79061   0.37088   0.00000  Uiso   1.00
N647   N     0.71598   0.83332   0.24999   0.00000  Uiso   1.00
N648   N     0.95069   0.83335   0.24999   0.00000  Uiso   1.00
O649   O     0.79375   0.89345   0.25000   0.00000  Uiso   1.00
O650   O     0.87294   0.89346   0.25000   0.00000  Uiso   1.00
O651   O     0.77441   0.83332   0.32549   0.00000  Uiso   1.00
O652   O     0.85360   0.83333   0.32549   0.00000  Uiso   1.00
O653   O     0.79373   0.77321   0.25000   0.00000  Uiso   1.00
O654   O     0.87292   0.77322   0.24999   0.00000  Uiso   1.00
O655   O     0.81306   0.83334   0.17451   0.00000  Uiso   1.00
O656   O     0.89225   0.83335   0.17451   0.00000  Uiso   1.00
O657   O     0.96097   0.83471   0.08794   0.00000  Uiso   1.00
C658   C     0.98868   0.79812   0.08458   0.00000  Uiso   1.00
H659   H     0.96538   0.77265   0.10321   0.00000  Uiso   1.00
H660   H     0.68310   0.80359   0.10512   0.00000  Uiso   1.00
H661   H     0.67559   0.78893   0.04418   0.00000  Uiso   1.00
C662   C     0.92084   0.70431   0.25288   0.00000  Uiso   1.00
N663   N     0.95422   0.71825   0.26236   0.00000  Uiso   1.00
O664   O     0.92968   0.88150   0.32063   0.00000  Uiso   1.00
C665   C     0.93760   0.92420   0.31873   0.00000  Uiso   1.00
H666   H     0.96590   0.93382   0.28375   0.00000  Uiso   1.00
H667   H     0.94767   0.93488   0.35351   0.00000  Uiso   1.00
H668   H     0.90288   0.94021   0.32021   0.00000  Uiso   1.00
C669   C     0.69700   0.88526   0.31958   0.00000  Uiso   1.00
N670   N     0.70870   0.90670   0.34862   0.00000  Uiso   1.00
O671   O     0.73487   0.78097   0.18457   0.00000  Uiso   1.00
C672   C     0.72137   0.73970   0.19154   0.00000  Uiso   1.00
H673   H     0.70868   0.73276   0.23289   0.00000  Uiso   1.00
H674   H     0.75390   0.71973   0.17391   0.00000  Uiso   1.00
H675   H     0.69357   0.73181   0.17173   0.00000  Uiso   1.00
C676   C     0.96186   0.79500   0.40197   0.00000  Uiso   1.00
N677   N     0.66737   0.78447   0.37796   0.00000  Uiso   1.00
O678   O     0.79455   0.80786   0.09160   0.00000  Uiso   1.00
C679   C     0.79371   0.76570   0.07729   0.00000  Uiso   1.00
H680   H     0.81515   0.74718   0.09705   0.00000  Uiso   1.00
H681   H     0.80720   0.75898   0.03500   0.00000  Uiso   1.00
H682   H     0.75553   0.75551   0.08890   0.00000  Uiso   1.00
C683   C     0.92499   0.95722   0.20660   0.00000  Uiso   1.00
N684   N     0.96173   0.94088   0.18543   0.00000  Uiso   1.00
C685   C     0.16714   0.24575   0.74768   0.00000  Uiso   1.00
C686   C     0.15033   0.16592   0.98670   0.00000  Uiso   1.00
C687   C     0.16233   0.15630   0.93324   0.00000  Uiso   1.00
C688   C     0.18604   0.15995   0.51271   0.00000  Uiso   1.00
C689   C     0.23528   0.15331   0.98434   0.00000  Uiso   1.00
C690   C     0.24656   0.14144   0.93187   0.00000  Uiso   1.00
C691   C     0.20925   0.13920   0.90850   0.00000  Uiso   1.00
C692   C     0.17317   0.15612   0.56636   0.00000  Uiso   1.00
C693   C     0.25833   0.16161   0.56389   0.00000  Uiso   1.00
C694   C     0.12734   0.16455   0.90641   0.00000  Uiso   1.00
C695   C     0.21218   0.31121   0.73272   0.00000  Uiso   1.00
C696   C     0.14108   0.16477   0.84968   0.00000  Uiso   1.00
C697   C     0.21153   0.01996   0.74330   0.00000  Uiso   1.00
C698   C     0.16728   0.04256   0.75344   0.00000  Uiso   1.00
C699   C     0.12339   0.02167   0.76322   0.00000  Uiso   1.00
C700   C     0.12351   0.31253   0.76066   0.00000  Uiso   1.00
C701   C     0.16775   0.29030   0.74548   0.00000  Uiso   1.00
C702   C     0.29867   0.19263   0.78329   0.00000  Uiso   1.00
C703   C     0.01539   0.19234   0.78333   0.00000  Uiso   1.00
C704   C     0.03397   0.14001   0.71809   0.00000  Uiso   1.00
C705   C     0.31764   0.14074   0.71763   0.00000  Uiso   1.00
C706   C     0.16647   0.08741   0.75208   0.00000  Uiso   1.00
C707   C     0.19282   0.16508   0.64995   0.00000  Uiso   1.00
C708   C     0.27116   0.15598   0.51004   0.00000  Uiso   1.00
C709   C     0.20849   0.16159   0.59281   0.00000  Uiso   1.00
C710   C     0.08041   0.17878   0.93414   0.00000  Uiso   1.00
C711   C     0.06914   0.18854   0.98650   0.00000  Uiso   1.00
C712   C     0.10383   0.18305   0.51243   0.00000  Uiso   1.00
Cu713  Cu    0.11978   0.16666   0.75000   0.00000  Uiso   1.00
Cu714  Cu    0.21355   0.16667   0.75000   0.00000  Uiso   1.00
H715   H     0.08885   0.03810   0.77524   0.00000  Uiso   1.00
H716   H     0.08893   0.29717   0.77080   0.00000  Uiso   1.00
H717   H     0.30575   0.12020   0.69184   0.00000  Uiso   1.00
H718   H     0.30922   0.15411   0.98832   0.00000  Uiso   1.00
H719   H     0.05305   0.18480   0.91486   0.00000  Uiso   1.00
H720   H     0.09430   0.19372   0.55235   0.00000  Uiso   1.00
H721   H     0.03383   0.20192   0.50683   0.00000  Uiso   1.00
H722   H     0.21794   0.12394   0.87088   0.00000  Uiso   1.00
N723   N     0.04931   0.16666   0.74999   0.00000  Uiso   1.00
N724   N     0.28402   0.16669   0.74999   0.00000  Uiso   1.00
O725   O     0.12708   0.22678   0.75000   0.00000  Uiso   1.00
O726   O     0.20627   0.22679   0.75000   0.00000  Uiso   1.00
O727   O     0.10775   0.16665   0.82549   0.00000  Uiso   1.00
O728   O     0.18694   0.16666   0.82549   0.00000  Uiso   1.00
O729   O     0.12706   0.10654   0.75000   0.00000  Uiso   1.00
O730   O     0.20625   0.10655   0.74999   0.00000  Uiso   1.00
O731   O     0.14640   0.16667   0.67451   0.00000  Uiso   1.00
O732   O     0.22559   0.16668   0.67451   0.00000  Uiso   1.00
O733   O     0.29431   0.16804   0.58794   0.00000  Uiso   1.00
C734   C     0.32202   0.13146   0.58458   0.00000  Uiso   1.00
H735   H     0.29871   0.10599   0.60321   0.00000  Uiso   1.00
H736   H     0.01643   0.13692   0.60512   0.00000  Uiso   1.00
H737   H     0.00893   0.12226   0.54418   0.00000  Uiso   1.00
C738   C     0.25418   0.03764   0.75288   0.00000  Uiso   1.00
N739   N     0.28756   0.05158   0.76236   0.00000  Uiso   1.00
O740   O     0.26301   0.21483   0.82063   0.00000  Uiso   1.00
C741   C     0.27093   0.25754   0.81873   0.00000  Uiso   1.00
H742   H     0.29924   0.26715   0.78375   0.00000  Uiso   1.00
H743   H     0.28100   0.26821   0.85351   0.00000  Uiso   1.00
H744   H     0.23622   0.27355   0.82021   0.00000  Uiso   1.00
C745   C     0.03033   0.21859   0.81958   0.00000  Uiso   1.00
N746   N     0.04203   0.24003   0.84862   0.00000  Uiso   1.00
O747   O     0.06821   0.11430   0.68457   0.00000  Uiso   1.00
C748   C     0.05471   0.07304   0.69154   0.00000  Uiso   1.00
H749   H     0.04201   0.06609   0.73289   0.00000  Uiso   1.00
H750   H     0.08724   0.05307   0.67391   0.00000  Uiso   1.00
H751   H     0.02690   0.06514   0.67173   0.00000  Uiso   1.00
C752   C     0.29519   0.12834   0.90197   0.00000  Uiso   1.00
N753   N     0.00070   0.11780   0.87796   0.00000  Uiso   1.00
O754   O     0.12789   0.14119   0.59160   0.00000  Uiso   1.00
C755   C     0.12704   0.09903   0.57729   0.00000  Uiso   1.00
H756   H     0.14849   0.08052   0.59705   0.00000  Uiso   1.00
H757   H     0.14053   0.09232   0.53500   0.00000  Uiso   1.00
H758   H     0.08887   0.08884   0.58890   0.00000  Uiso   1.00
C759   C     0.25832   0.29056   0.70660   0.00000  Uiso   1.00
N760   N     0.29506   0.27421   0.68543   0.00000  Uiso   1.00
C761   C     0.50047   0.24575   0.74768   0.00000  Uiso   1.00
C762   C     0.48366   0.16592   0.98670   0.00000  Uiso   1.00
C763   C     0.49567   0.15630   0.93324   0.00000  Uiso   1.00
C764   C     0.51938   0.15995   0.51271   0.00000  Uiso   1.00
C765   C     0.56861   0.15331   0.98434   0.00000  Uiso   1.00
C766   C     0.57989   0.14144   0.93187   0.00000  Uiso   1.00
C767   C     0.54258   0.13920   0.90850   0.00000  Uiso   1.00
C768   C     0.50651   0.15612   0.56636   0.00000  Uiso   1.00
C769   C     0.59166   0.16161   0.56389   0.00000  Uiso   1.00
C770   C     0.46067   0.16455   0.90641   0.00000  Uiso   1.00
C771   C     0.54551   0.31121   0.73272   0.00000  Uiso   1.00
C772   C     0.47441   0.16477   0.84968   0.00000  Uiso   1.00
C773   C     0.54487   0.01996   0.74330   0.00000  Uiso   1.00
C774   C     0.50062   0.04256   0.75344   0.00000  Uiso   1.00
C775   C     0.45673   0.02167   0.76322   0.00000  Uiso   1.00
C776   C     0.45684   0.31253   0.76066   0.00000  Uiso   1.00
C777   C     0.50108   0.29030   0.74548   0.00000  Uiso   1.00
C778   C     0.63201   0.19263   0.78329   0.00000  Uiso   1.00
C779   C     0.34872   0.19234   0.78333   0.00000  Uiso   1.00
C780   C     0.36730   0.14001   0.71809   0.00000  Uiso   1.00
C781   C     0.65097   0.14074   0.71763   0.00000  Uiso   1.00
C782   C     0.49981   0.08741   0.75208   0.00000  Uiso   1.00
C783   C     0.52615   0.16508   0.64995   0.00000  Uiso   1.00
C784   C     0.60450   0.15598   0.51004   0.00000  Uiso   1.00
C785   C     0.54182   0.16159   0.59281   0.00000  Uiso   1.00
C786   C     0.41374   0.17878   0.93414   0.00000  Uiso   1.00
C787   C     0.40248   0.18854   0.98650   0.00000  Uiso   1.00
C788   C     0.43716   0.18305   0.51243   0.00000  Uiso   1.00
Cu789  Cu    0.45311   0.16666   0.75000   0.00000  Uiso   1.00
Cu790  Cu    0.54689   0.16667   0.75000   0.00000  Uiso   1.00
H791   H     0.42219   0.03810   0.77524   0.00000  Uiso   1.00
H792   H     0.42227   0.29717   0.77080   0.00000  Uiso   1.00
H793   H     0.63909   0.12020   0.69184   0.00000  Uiso   1.00
H794   H     0.64256   0.15411   0.98832   0.00000  Uiso   1.00
H795   H     0.38639   0.18480   0.91486   0.00000  Uiso   1.00
H796   H     0.42764   0.19372   0.55235   0.00000  Uiso   1.00
H797   H     0.36717   0.20192   0.50683   0.00000  Uiso   1.00
H798   H     0.55127   0.12394   0.87088   0.00000  Uiso   1.00
N799   N     0.38265   0.16666   0.74999   0.00000  Uiso   1.00
N800   N     0.61735   0.16669   0.74999   0.00000  Uiso   1.00
O801   O     0.46042   0.22678   0.75000   0.00000  Uiso   1.00
O802   O     0.53961   0.22679   0.75000   0.00000  Uiso   1.00
O803   O     0.44108   0.16665   0.82549   0.00000  Uiso   1.00
O804   O     0.52027   0.16666   0.82549   0.00000  Uiso   1.00
O805   O     0.46039   0.10654   0.75000   0.00000  Uiso   1.00
O806   O     0.53958   0.10655   0.74999   0.00000  Uiso   1.00
O807   O     0.47973   0.16667   0.67451   0.00000  Uiso   1.00
O808   O     0.55892   0.16668   0.67451   0.00000  Uiso   1.00
O809   O     0.62764   0.16804   0.58794   0.00000  Uiso   1.00
C810   C     0.65535   0.13146   0.58458   0.00000  Uiso   1.00
H811   H     0.63205   0.10599   0.60321   0.00000  Uiso   1.00
H812   H     0.34976   0.13692   0.60512   0.00000  Uiso   1.00
H813   H     0.34226   0.12226   0.54418   0.00000  Uiso   1.00
C814   C     0.58751   0.03764   0.75288   0.00000  Uiso   1.00
N815   N     0.62089   0.05158   0.76236   0.00000  Uiso   1.00
O816   O     0.59634   0.21483   0.82063   0.00000  Uiso   1.00
C817   C     0.60426   0.25754   0.81873   0.00000  Uiso   1.00
H818   H     0.63257   0.26715   0.78375   0.00000  Uiso   1.00
H819   H     0.61433   0.26821   0.85351   0.00000  Uiso   1.00
H820   H     0.56955   0.27355   0.82021   0.00000  Uiso   1.00
C821   C     0.36366   0.21859   0.81958   0.00000  Uiso   1.00
N822   N     0.37536   0.24003   0.84862   0.00000  Uiso   1.00
O823   O     0.40154   0.11430   0.68457   0.00000  Uiso   1.00
C824   C     0.38804   0.07304   0.69154   0.00000  Uiso   1.00
H825   H     0.37535   0.06609   0.73289   0.00000  Uiso   1.00
H826   H     0.42057   0.05307   0.67391   0.00000  Uiso   1.00
H827   H     0.36023   0.06514   0.67173   0.00000  Uiso   1.00
C828   C     0.62852   0.12834   0.90197   0.00000  Uiso   1.00
N829   N     0.33403   0.11780   0.87796   0.00000  Uiso   1.00
O830   O     0.46122   0.14119   0.59160   0.00000  Uiso   1.00
C831   C     0.46037   0.09903   0.57729   0.00000  Uiso   1.00
H832   H     0.48182   0.08052   0.59705   0.00000  Uiso   1.00
H833   H     0.47386   0.09232   0.53500   0.00000  Uiso   1.00
H834   H     0.42220   0.08884   0.58890   0.00000  Uiso   1.00
C835   C     0.59166   0.29056   0.70660   0.00000  Uiso   1.00
N836   N     0.62840   0.27421   0.68543   0.00000  Uiso   1.00
C837   C     0.83380   0.24575   0.74768   0.00000  Uiso   1.00
C838   C     0.81699   0.16592   0.98670   0.00000  Uiso   1.00
C839   C     0.82900   0.15630   0.93324   0.00000  Uiso   1.00
C840   C     0.85271   0.15995   0.51271   0.00000  Uiso   1.00
C841   C     0.90194   0.15331   0.98434   0.00000  Uiso   1.00
C842   C     0.91323   0.14144   0.93187   0.00000  Uiso   1.00
C843   C     0.87591   0.13920   0.90850   0.00000  Uiso   1.00
C844   C     0.83984   0.15612   0.56636   0.00000  Uiso   1.00
C845   C     0.92499   0.16161   0.56389   0.00000  Uiso   1.00
C846   C     0.79400   0.16455   0.90641   0.00000  Uiso   1.00
C847   C     0.87884   0.31121   0.73272   0.00000  Uiso   1.00
C848   C     0.80774   0.16477   0.84968   0.00000  Uiso   1.00
C849   C     0.87820   0.01996   0.74330   0.00000  Uiso   1.00
C850   C     0.83395   0.04256   0.75344   0.00000  Uiso   1.00
C851   C     0.79006   0.02167   0.76322   0.00000  Uiso   1.00
C852   C     0.79018   0.31253   0.76066   0.00000  Uiso   1.00
C853   C     0.83442   0.29030   0.74548   0.00000  Uiso   1.00
C854   C     0.96534   0.19263   0.78329   0.00000  Uiso   1.00
C855   C     0.68206   0.19234   0.78333   0.00000  Uiso   1.00
C856   C     0.70064   0.14001   0.71809   0.00000  Uiso   1.00
C857   C     0.98430   0.14074   0.71763   0.00000  Uiso   1.00
C858   C     0.83314   0.08741   0.75208   0.00000  Uiso   1.00
C859   C     0.85949   0.16508   0.64995   0.00000  Uiso   1.00
C860   C     0.93783   0.15598   0.51004   0.00000  Uiso   1.00
C861   C     0.87516   0.16159   0.59281   0.00000  Uiso   1.00
C862   C     0.74707   0.17878   0.93414   0.00000  Uiso   1.00
C863   C     0.73581   0.18854   0.98650   0.00000  Uiso   1.00
C864   C     0.77050   0.18305   0.51243   0.00000  Uiso   1.00
Cu865  Cu    0.78645   0.16666   0.75000   0.00000  Uiso   1.00
Cu866  Cu    0.88022   0.16667   0.75000   0.00000  Uiso   1.00
H867   H     0.75552   0.03810   0.77524   0.00000  Uiso   1.00
H868   H     0.75560   0.29717   0.77080   0.00000  Uiso   1.00
H869   H     0.97242   0.12020   0.69184   0.00000  Uiso   1.00
H870   H     0.97589   0.15411   0.98832   0.00000  Uiso   1.00
H871   H     0.71972   0.18480   0.91486   0.00000  Uiso   1.00
H872   H     0.76097   0.19372   0.55235   0.00000  Uiso   1.00
H873   H     0.70050   0.20192   0.50683   0.00000  Uiso   1.00
H874   H     0.88460   0.12394   0.87088   0.00000  Uiso   1.00
N875   N     0.71598   0.16666   0.74999   0.00000  Uiso   1.00
N876   N     0.95069   0.16669   0.74999   0.00000  Uiso   1.00
O877   O     0.79375   0.22678   0.75000   0.00000  Uiso   1.00
O878   O     0.87294   0.22679   0.75000   0.00000  Uiso   1.00
O879   O     0.77441   0.16665   0.82549   0.00000  Uiso   1.00
O880   O     0.85360   0.16666   0.82549   0.00000  Uiso   1.00
O881   O     0.79373   0.10654   0.75000   0.00000  Uiso   1.00
O882   O     0.87292   0.10655   0.74999   0.00000  Uiso   1.00
O883   O     0.81306   0.16667   0.67451   0.00000  Uiso   1.00
O884   O     0.89225   0.16668   0.67451   0.00000  Uiso   1.00
O885   O     0.96097   0.16804   0.58794   0.00000  Uiso   1.00
C886   C     0.98868   0.13146   0.58458   0.00000  Uiso   1.00
H887   H     0.96538   0.10599   0.60321   0.00000  Uiso   1.00
H888   H     0.68310   0.13692   0.60512   0.00000  Uiso   1.00
H889   H     0.67559   0.12226   0.54418   0.00000  Uiso   1.00
C890   C     0.92084   0.03764   0.75288   0.00000  Uiso   1.00
N891   N     0.95422   0.05158   0.76236   0.00000  Uiso   1.00
O892   O     0.92968   0.21483   0.82063   0.00000  Uiso   1.00
C893   C     0.93760   0.25754   0.81873   0.00000  Uiso   1.00
H894   H     0.96590   0.26715   0.78375   0.00000  Uiso   1.00
H895   H     0.94767   0.26821   0.85351   0.00000  Uiso   1.00
H896   H     0.90288   0.27355   0.82021   0.00000  Uiso   1.00
C897   C     0.69700   0.21859   0.81958   0.00000  Uiso   1.00
N898   N     0.70870   0.24003   0.84862   0.00000  Uiso   1.00
O899   O     0.73487   0.11430   0.68457   0.00000  Uiso   1.00
C900   C     0.72137   0.07304   0.69154   0.00000  Uiso   1.00
H901   H     0.70868   0.06609   0.73289   0.00000  Uiso   1.00
H902   H     0.75390   0.05307   0.67391   0.00000  Uiso   1.00
H903   H     0.69357   0.06514   0.67173   0.00000  Uiso   1.00
C904   C     0.96186   0.12834   0.90197   0.00000  Uiso   1.00
N905   N     0.66737   0.11780   0.87796   0.00000  Uiso   1.00
O906   O     0.79455   0.14119   0.59160   0.00000  Uiso   1.00
C907   C     0.79371   0.09903   0.57729   0.00000  Uiso   1.00
H908   H     0.81515   0.08052   0.59705   0.00000  Uiso   1.00
H909   H     0.80720   0.09232   0.53500   0.00000  Uiso   1.00
H910   H     0.75553   0.08884   0.58890   0.00000  Uiso   1.00
C911   C     0.92499   0.29056   0.70660   0.00000  Uiso   1.00
N912   N     0.96173   0.27421   0.68543   0.00000  Uiso   1.00
C913   C     0.16714   0.57909   0.74768   0.00000  Uiso   1.00
C914   C     0.15033   0.49925   0.98670   0.00000  Uiso   1.00
C915   C     0.16233   0.48963   0.93324   0.00000  Uiso   1.00
C916   C     0.18604   0.49329   0.51271   0.00000  Uiso   1.00
C917   C     0.23528   0.48665   0.98434   0.00000  Uiso   1.00
C918   C     0.24656   0.47477   0.93187   0.00000  Uiso   1.00
C919   C     0.20925   0.47253   0.90850   0.00000  Uiso   1.00
C920   C     0.17317   0.48945   0.56636   0.00000  Uiso   1.00
C921   C     0.25833   0.49494   0.56389   0.00000  Uiso   1.00
C922   C     0.12734   0.49788   0.90641   0.00000  Uiso   1.00
C923   C     0.21218   0.64454   0.73272   0.00000  Uiso   1.00
C924   C     0.14108   0.49811   0.84968   0.00000  Uiso   1.00
C925   C     0.21153   0.35329   0.74330   0.00000  Uiso   1.00
C926   C     0.16728   0.37589   0.75344   0.00000  Uiso   1.00
C927   C     0.12339   0.35501   0.76322   0.00000  Uiso   1.00
C928   C     0.12351   0.64587   0.76066   0.00000  Uiso   1.00
C929   C     0.16775   0.62364   0.74548   0.00000  Uiso   1.00
C930   C     0.29867   0.52597   0.78329   0.00000  Uiso   1.00
C931   C     0.01539   0.52568   0.78333   0.00000  Uiso   1.00
C932   C     0.03397   0.47334   0.71809   0.00000  Uiso   1.00
C933   C     0.31764   0.47407   0.71763   0.00000  Uiso   1.00
C934   C     0.16647   0.42075   0.75208   0.00000  Uiso   1.00
C935   C     0.19282   0.49841   0.64995   0.00000  Uiso   1.00
C936   C     0.27116   0.48931   0.51004   0.00000  Uiso   1.00
C937   C     0.20849   0.49492   0.59281   0.00000  Uiso   1.00
C938   C     0.08041   0.51212   0.93414   0.00000  Uiso   1.00
C939   C     0.06914   0.52187   0.98650   0.00000  Uiso   1.00
C940   C     0.10383   0.51638   0.51243   0.00000  Uiso   1.00
Cu941  Cu    0.11978   0.49999   0.75000   0.00000  Uiso   1.00
Cu942  Cu    0.21355   0.50001   0.75000   0.00000  Uiso   1.00
H943   H     0.08885   0.37143   0.77524   0.00000  Uiso   1.00
H944   H     0.08893   0.63051   0.77080   0.00000  Uiso   1.00
H945   H     0.30575   0.45353   0.69184   0.00000  Uiso   1.00
H946   H     0.30922   0.48744   0.98832   0.00000  Uiso   1.00
H947   H     0.05305   0.51813   0.91486   0.00000  Uiso   1.00
H948   H     0.09430   0.52705   0.55235   0.00000  Uiso   1.00
H949   H     0.03383   0.53525   0.50683   0.00000  Uiso   1.00
H950   H     0.21794   0.45727   0.87088   0.00000  Uiso   1.00
N951   N     0.04931   0.49999   0.74999   0.00000  Uiso   1.00
N952   N     0.28402   0.50002   0.74999   0.00000  Uiso   1.00
O953   O     0.12708   0.56011   0.75000   0.00000  Uiso   1.00
O954   O     0.20627   0.56012   0.75000   0.00000  Uiso   1.00
O955   O     0.10775   0.49998   0.82549   0.00000  Uiso   1.00
O956   O     0.18694   0.49999   0.82549   0.00000  Uiso   1.00
O957   O     0.12706   0.43988   0.75000   0.00000  Uiso   1.00
O958   O     0.20625   0.43989   0.74999   0.00000  Uiso   1.00
O959   O     0.14640   0.50001   0.67451   0.00000  Uiso   1.00
O960   O     0.22559   0.50002   0.67451   0.00000  Uiso   1.00
O961   O     0.29431   0.50137   0.58794   0.00000  Uiso   1.00
C962   C     0.32202   0.46479   0.58458   0.00000  Uiso   1.00
H963   H     0.29871   0.43932   0.60321   0.00000  Uiso   1.00
H964   H     0.01643   0.47026   0.60512   0.00000  Uiso   1.00
H965   H     0.00893   0.45560   0.54418   0.00000  Uiso   1.00
C966   C     0.25418   0.37098   0.75288   0.00000  Uiso   1.00
N967   N     0.28756   0.38491   0.76236   0.00000  Uiso   1.00
O968   O     0.26301   0.54816   0.82063   0.00000  Uiso   1.00
C969   C     0.27093   0.59087   0.81873   0.00000  Uiso   1.00
H970   H     0.29924   0.60048   0.78375   0.00000  Uiso   1.00
H971   H     0.28100   0.60155   0.85351   0.00000  Uiso   1.00
H972   H     0.23622   0.60688   0.82021   0.00000  Uiso   1.00
C973   C     0.03033   0.55193   0.81958   0.00000  Uiso   1.00
N974   N     0.04203   0.57336   0.84862   0.00000  Uiso   1.00
O975   O     0.06821   0.44763   0.68457   0.00000  Uiso   1.00
C976   C     0.05471   0.40637   0.69154   0.00000  Uiso   1.00
H977   H     0.04201   0.39942   0.73289   0.00000  Uiso   1.00
H978   H     0.08724   0.38640   0.67391   0.00000  Uiso   1.00
H979   H     0.02690   0.39847   0.67173   0.00000  Uiso   1.00
C980   C     0.29519   0.46167   0.90197   0.00000  Uiso   1.00
N981   N     0.00070   0.45114   0.87796   0.00000  Uiso   1.00
O982   O     0.12789   0.47452   0.59160   0.00000  Uiso   1.00
C983   C     0.12704   0.43237   0.57729   0.00000  Uiso   1.00
H984   H     0.14849   0.41385   0.59705   0.00000  Uiso   1.00
H985   H     0.14053   0.42565   0.53500   0.00000  Uiso   1.00
H986   H     0.08887   0.42217   0.58890   0.00000  Uiso   1.00
C987   C     0.25832   0.62389   0.70660   0.00000  Uiso   1.00
N988   N     0.29506   0.60754   0.68543   0.00000  Uiso   1.00
C989   C     0.50047   0.57909   0.74768   0.00000  Uiso   1.00
C990   C     0.48366   0.49925   0.98670   0.00000  Uiso   1.00
C991   C     0.49567   0.48963   0.93324   0.00000  Uiso   1.00
C992   C     0.51938   0.49329   0.51271   0.00000  Uiso   1.00
C993   C     0.56861   0.48665   0.98434   0.00000  Uiso   1.00
C994   C     0.57989   0.47477   0.93187   0.00000  Uiso   1.00
C995   C     0.54258   0.47253   0.90850   0.00000  Uiso   1.00
C996   C     0.50651   0.48945   0.56636   0.00000  Uiso   1.00
C997   C     0.59166   0.49494   0.56389   0.00000  Uiso   1.00
C998   C     0.46067   0.49788   0.90641   0.00000  Uiso   1.00
C999   C     0.54551   0.64454   0.73272   0.00000  Uiso   1.00
C1000  C     0.47441   0.49811   0.84968   0.00000  Uiso   1.00
C1001  C     0.54487   0.35329   0.74330   0.00000  Uiso   1.00
C1002  C     0.50062   0.37589   0.75344   0.00000  Uiso   1.00
C1003  C     0.45673   0.35501   0.76322   0.00000  Uiso   1.00
C1004  C     0.45684   0.64587   0.76066   0.00000  Uiso   1.00
C1005  C     0.50108   0.62364   0.74548   0.00000  Uiso   1.00
C1006  C     0.63201   0.52597   0.78329   0.00000  Uiso   1.00
C1007  C     0.34872   0.52568   0.78333   0.00000  Uiso   1.00
C1008  C     0.36730   0.47334   0.71809   0.00000  Uiso   1.00
C1009  C     0.65097   0.47407   0.71763   0.00000  Uiso   1.00
C1010  C     0.49981   0.42075   0.75208   0.00000  Uiso   1.00
C1011  C     0.52615   0.49841   0.64995   0.00000  Uiso   1.00
C1012  C     0.60450   0.48931   0.51004   0.00000  Uiso   1.00
C1013  C     0.54182   0.49492   0.59281   0.00000  Uiso   1.00
C1014  C     0.41374   0.51212   0.93414   0.00000  Uiso   1.00
C1015  C     0.40248   0.52187   0.98650   0.00000  Uiso   1.00
C1016  C     0.43716   0.51638   0.51243   0.00000  Uiso   1.00
Cu1017 Cu    0.45311   0.49999   0.75000   0.00000  Uiso   1.00
Cu1018 Cu    0.54689   0.50001   0.75000   0.00000  Uiso   1.00
H1019  H     0.42219   0.37143   0.77524   0.00000  Uiso   1.00
H1020  H     0.42227   0.63051   0.77080   0.00000  Uiso   1.00
H1021  H     0.63909   0.45353   0.69184   0.00000  Uiso   1.00
H1022  H     0.64256   0.48744   0.98832   0.00000  Uiso   1.00
H1023  H     0.38639   0.51813   0.91486   0.00000  Uiso   1.00
H1024  H     0.42764   0.52705   0.55235   0.00000  Uiso   1.00
H1025  H     0.36717   0.53525   0.50683   0.00000  Uiso   1.00
H1026  H     0.55127   0.45727   0.87088   0.00000  Uiso   1.00
N1027  N     0.38265   0.49999   0.74999   0.00000  Uiso   1.00
N1028  N     0.61735   0.50002   0.74999   0.00000  Uiso   1.00
O1029  O     0.46042   0.56011   0.75000   0.00000  Uiso   1.00
O1030  O     0.53961   0.56012   0.75000   0.00000  Uiso   1.00
O1031  O     0.44108   0.49998   0.82549   0.00000  Uiso   1.00
O1032  O     0.52027   0.49999   0.82549   0.00000  Uiso   1.00
O1033  O     0.46039   0.43988   0.75000   0.00000  Uiso   1.00
O1034  O     0.53958   0.43989   0.74999   0.00000  Uiso   1.00
O1035  O     0.47973   0.50001   0.67451   0.00000  Uiso   1.00
O1036  O     0.55892   0.50002   0.67451   0.00000  Uiso   1.00
O1037  O     0.62764   0.50137   0.58794   0.00000  Uiso   1.00
C1038  C     0.65535   0.46479   0.58458   0.00000  Uiso   1.00
H1039  H     0.63205   0.43932   0.60321   0.00000  Uiso   1.00
H1040  H     0.34976   0.47026   0.60512   0.00000  Uiso   1.00
H1041  H     0.34226   0.45560   0.54418   0.00000  Uiso   1.00
C1042  C     0.58751   0.37098   0.75288   0.00000  Uiso   1.00
N1043  N     0.62089   0.38491   0.76236   0.00000  Uiso   1.00
O1044  O     0.59634   0.54816   0.82063   0.00000  Uiso   1.00
C1045  C     0.60426   0.59087   0.81873   0.00000  Uiso   1.00
H1046  H     0.63257   0.60048   0.78375   0.00000  Uiso   1.00
H1047  H     0.61433   0.60155   0.85351   0.00000  Uiso   1.00
H1048  H     0.56955   0.60688   0.82021   0.00000  Uiso   1.00
C1049  C     0.36366   0.55193   0.81958   0.00000  Uiso   1.00
N1050  N     0.37536   0.57336   0.84862   0.00000  Uiso   1.00
O1051  O     0.40154   0.44763   0.68457   0.00000  Uiso   1.00
C1052  C     0.38804   0.40637   0.69154   0.00000  Uiso   1.00
H1053  H     0.37535   0.39942   0.73289   0.00000  Uiso   1.00
H1054  H     0.42057   0.38640   0.67391   0.00000  Uiso   1.00
H1055  H     0.36023   0.39847   0.67173   0.00000  Uiso   1.00
C1056  C     0.62852   0.46167   0.90197   0.00000  Uiso   1.00
N1057  N     0.33403   0.45114   0.87796   0.00000  Uiso   1.00
O1058  O     0.46122   0.47452   0.59160   0.00000  Uiso   1.00
C1059  C     0.46037   0.43237   0.57729   0.00000  Uiso   1.00
H1060  H     0.48182   0.41385   0.59705   0.00000  Uiso   1.00
H1061  H     0.47386   0.42565   0.53500   0.00000  Uiso   1.00
H1062  H     0.42220   0.42217   0.58890   0.00000  Uiso   1.00
C1063  C     0.59166   0.62389   0.70660   0.00000  Uiso   1.00
N1064  N     0.62840   0.60754   0.68543   0.00000  Uiso   1.00
C1065  C     0.83380   0.57909   0.74768   0.00000  Uiso   1.00
C1066  C     0.81699   0.49925   0.98670   0.00000  Uiso   1.00
C1067  C     0.82900   0.48963   0.93324   0.00000  Uiso   1.00
C1068  C     0.85271   0.49329   0.51271   0.00000  Uiso   1.00
C1069  C     0.90194   0.48665   0.98434   0.00000  Uiso   1.00
C1070  C     0.91323   0.47477   0.93187   0.00000  Uiso   1.00
C1071  C     0.87591   0.47253   0.90850   0.00000  Uiso   1.00
C1072  C     0.83984   0.48945   0.56636   0.00000  Uiso   1.00
C1073  C     0.92499   0.49494   0.56389   0.00000  Uiso   1.00
C1074  C     0.79400   0.49788   0.90641   0.00000  Uiso   1.00
C1075  C     0.87884   0.64454   0.73272   0.00000  Uiso   1.00
C1076  C     0.80774   0.49811   0.84968   0.00000  Uiso   1.00
C1077  C     0.87820   0.35329   0.74330   0.00000  Uiso   1.00
C1078  C     0.83395   0.37589   0.75344   0.00000  Uiso   1.00
C1079  C     0.79006   0.35501   0.76322   0.00000  Uiso   1.00
C1080  C     0.79018   0.64587   0.76066   0.00000  Uiso   1.00
C1081  C     0.83442   0.62364   0.74548   0.00000  Uiso   1.00
C1082  C     0.96534   0.52597   0.78329   0.00000  Uiso   1.00
C1083  C     0.68206   0.52568   0.78333   0.00000  Uiso   1.00
C1084  C     0.70064   0.47334   0.71809   0.00000  Uiso   1.00
C1085  C     0.98430   0.47407   0.71763   0.00000  Uiso   1.00
C1086  C     0.83314   0.42075   0.75208   0.00000  Uiso   1.00
C1087  C     0.85949   0.49841   0.64995   0.00000  Uiso   1.00
C1088  C     0.93783   0.48931   0.51004   0.00000  Uiso   1.00
C1089  C     0.87516   0.49492   0.59281   0.00000  Uiso   1.00
C1090  C     0.74707   0.51212   0.93414   0.00000  Uiso   1.00
C1091  C     0.73581   0.52187   0.98650   0.00000  Uiso   1.00
C1092  C     0.77050   0.51638   0.51243   0.00000  Uiso   1.00
Cu1093 Cu    0.78645   0.49999   0.75000   0.00000  Uiso   1.00
Cu1094 Cu    0.88022   0.50001   0.75000   0.00000  Uiso   1.00
H1095  H     0.75552   0.37143   0.77524   0.00000  Uiso   1.00
H1096  H     0.75560   0.63051   0.77080   0.00000  Uiso   1.00
H1097  H     0.97242   0.45353   0.69184   0.00000  Uiso   1.00
H1098  H     0.97589   0.48744   0.98832   0.00000  Uiso   1.00
H1099  H     0.71972   0.51813   0.91486   0.00000  Uiso   1.00
H1100  H     0.76097   0.52705   0.55235   0.00000  Uiso   1.00
H1101  H     0.70050   0.53525   0.50683   0.00000  Uiso   1.00
H1102  H     0.88460   0.45727   0.87088   0.00000  Uiso   1.00
N1103  N     0.71598   0.49999   0.74999   0.00000  Uiso   1.00
N1104  N     0.95069   0.50002   0.74999   0.00000  Uiso   1.00
O1105  O     0.79375   0.56011   0.75000   0.00000  Uiso   1.00
O1106  O     0.87294   0.56012   0.75000   0.00000  Uiso   1.00
O1107  O     0.77441   0.49998   0.82549   0.00000  Uiso   1.00
O1108  O     0.85360   0.49999   0.82549   0.00000  Uiso   1.00
O1109  O     0.79373   0.43988   0.75000   0.00000  Uiso   1.00
O1110  O     0.87292   0.43989   0.74999   0.00000  Uiso   1.00
O1111  O     0.81306   0.50001   0.67451   0.00000  Uiso   1.00
O1112  O     0.89225   0.50002   0.67451   0.00000  Uiso   1.00
O1113  O     0.96097   0.50137   0.58794   0.00000  Uiso   1.00
C1114  C     0.98868   0.46479   0.58458   0.00000  Uiso   1.00
H1115  H     0.96538   0.43932   0.60321   0.00000  Uiso   1.00
H1116  H     0.68310   0.47026   0.60512   0.00000  Uiso   1.00
H1117  H     0.67559   0.45560   0.54418   0.00000  Uiso   1.00
C1118  C     0.92084   0.37098   0.75288   0.00000  Uiso   1.00
N1119  N     0.95422   0.38491   0.76236   0.00000  Uiso   1.00
O1120  O     0.92968   0.54816   0.82063   0.00000  Uiso   1.00
C1121  C     0.93760   0.59087   0.81873   0.00000  Uiso   1.00
H1122  H     0.96590   0.60048   0.78375   0.00000  Uiso   1.00
H1123  H     0.94767   0.60155   0.85351   0.00000  Uiso   1.00
H1124  H     0.90288   0.60688   0.82021   0.00000  Uiso   1.00
C1125  C     0.69700   0.55193   0.81958   0.00000  Uiso   1.00
N1126  N     0.70870   0.57336   0.84862   0.00000  Uiso   1.00
O1127  O     0.73487   0.44763   0.68457   0.00000  Uiso   1.00
C1128  C     0.72137   0.40637   0.69154   0.00000  Uiso   1.00
H1129  H     0.70868   0.39942   0.73289   0.00000  Uiso   1.00
H1130  H     0.75390   0.38640   0.67391   0.00000  Uiso   1.00
H1131  H     0.69357   0.39847   0.67173   0.00000  Uiso   1.00
C1132  C     0.96186   0.46167   0.90197   0.00000  Uiso   1.00
N1133  N     0.66737   0.45114   0.87796   0.00000  Uiso   1.00
O1134  O     0.79455   0.47452   0.59160   0.00000  Uiso   1.00
C1135  C     0.79371   0.43237   0.57729   0.00000  Uiso   1.00
H1136  H     0.81515   0.41385   0.59705   0.00000  Uiso   1.00
H1137  H     0.80720   0.42565   0.53500   0.00000  Uiso   1.00
H1138  H     0.75553   0.42217   0.58890   0.00000  Uiso   1.00
C1139  C     0.92499   0.62389   0.70660   0.00000  Uiso   1.00
N1140  N     0.96173   0.60754   0.68543   0.00000  Uiso   1.00
C1141  C     0.16714   0.91242   0.74768   0.00000  Uiso   1.00
C1142  C     0.15033   0.83258   0.98670   0.00000  Uiso   1.00
C1143  C     0.16233   0.82297   0.93324   0.00000  Uiso   1.00
C1144  C     0.18604   0.82662   0.51271   0.00000  Uiso   1.00
C1145  C     0.23528   0.81998   0.98434   0.00000  Uiso   1.00
C1146  C     0.24656   0.80811   0.93187   0.00000  Uiso   1.00
C1147  C     0.20925   0.80587   0.90850   0.00000  Uiso   1.00
C1148  C     0.17317   0.82278   0.56636   0.00000  Uiso   1.00
C1149  C     0.25833   0.82828   0.56389   0.00000  Uiso   1.00
C1150  C     0.12734   0.83122   0.90641   0.00000  Uiso   1.00
C1151  C     0.21218   0.97787   0.73272   0.00000  Uiso   1.00
C1152  C     0.14108   0.83144   0.84968   0.00000  Uiso   1.00
C1153  C     0.21153   0.68663   0.74330   0.00000  Uiso   1.00
C1154  C     0.16728   0.70922   0.75344   0.00000  Uiso   1.00
C1155  C     0.12339   0.68834   0.76322   0.00000  Uiso   1.00
C1156  C     0.12351   0.97920   0.76066   0.00000  Uiso   1.00
C1157  C     0.16775   0.95697   0.74548   0.00000  Uiso   1.00
C1158  C     0.29867   0.85930   0.78329   0.00000  Uiso   1.00
C1159  C     0.01539   0.85901   0.78333   0.00000  Uiso   1.00
C1160  C     0.03397   0.80668   0.71809   0.00000  Uiso   1.00
C1161  C     0.31764   0.80740   0.71763   0.00000  Uiso   1.00
C1162  C     0.16647   0.75408   0.75208   0.00000  Uiso   1.00
C1163  C     0.19282   0.83175   0.64995   0.00000  Uiso   1.00
C1164  C     0.27116   0.82264   0.51004   0.00000  Uiso   1.00
C1165  C     0.20849   0.82825   0.59281   0.00000  Uiso   1.00
C1166  C     0.08041   0.84545   0.93414   0.00000  Uiso   1.00
C1167  C     0.06914   0.85520   0.98650   0.00000  Uiso   1.00
C1168  C     0.10383   0.84971   0.51243   0.00000  Uiso   1.00
Cu1169 Cu    0.11978   0.83333   0.75000   0.00000  Uiso   1.00
Cu1170 Cu    0.21355   0.83334   0.75000   0.00000  Uiso   1.00
H1171  H     0.08885   0.70477   0.77524   0.00000  Uiso   1.00
H1172  H     0.08893   0.96384   0.77080   0.00000  Uiso   1.00
H1173  H     0.30575   0.78687   0.69184   0.00000  Uiso   1.00
H1174  H     0.30922   0.82078   0.98832   0.00000  Uiso   1.00
H1175  H     0.05305   0.85147   0.91486   0.00000  Uiso   1.00
H1176  H     0.09430   0.86039   0.55235   0.00000  Uiso   1.00
H1177  H     0.03383   0.86858   0.50683   0.00000  Uiso   1.00
H1178  H     0.21794   0.79061   0.87088   0.00000  Uiso   1.00
N1179  N     0.04931   0.83332   0.74999   0.00000  Uiso   1.00
N1180  N     0.28402   0.83335   0.74999   0.00000  Uiso   1.00
O1181  O     0.12708   0.89345   0.75000   0.00000  Uiso   1.00
O1182  O     0.20627   0.89346   0.75000   0.00000  Uiso   1.00
O1183  O     0.10775   0.83332   0.82549   0.00000  Uiso   1.00
O1184  O     0.18694   0.83333   0.82549   0.00000  Uiso   1.00
O1185  O     0.12706   0.77321   0.75000   0.00000  Uiso   1.00
O1186  O     0.20625   0.77322   0.74999   0.00000  Uiso   1.00
O1187  O     0.14640   0.83334   0.67451   0.00000  Uiso   1.00
O1188  O     0.22559   0.83335   0.67451   0.00000  Uiso   1.00
O1189  O     0.29431   0.83471   0.58794   0.00000  Uiso   1.00
C1190  C     0.32202   0.79812   0.58458   0.00000  Uiso   1.00
H1191  H     0.29871   0.77265   0.60321   0.00000  Uiso   1.00
H1192  H     0.01643   0.80359   0.60512   0.00000  Uiso   1.00
H1193  H     0.00893   0.78893   0.54418   0.00000  Uiso   1.00
C1194  C     0.25418   0.70431   0.75288   0.00000  Uiso   1.00
N1195  N     0.28756   0.71825   0.76236   0.00000  Uiso   1.00
O1196  O     0.26301   0.88150   0.82063   0.00000  Uiso   1.00
C1197  C     0.27093   0.92420   0.81873   0.00000  Uiso   1.00
H1198  H     0.29924   0.93382   0.78375   0.00000  Uiso   1.00
H1199  H     0.28100   0.93488   0.85351   0.00000  Uiso   1.00
H1200  H     0.23622   0.94021   0.82021   0.00000  Uiso   1.00
C1201  C     0.03033   0.88526   0.81958   0.00000  Uiso   1.00
N1202  N     0.04203   0.90670   0.84862   0.00000  Uiso   1.00
O1203  O     0.06821   0.78097   0.68457   0.00000  Uiso   1.00
C1204  C     0.05471   0.73970   0.69154   0.00000  Uiso   1.00
H1205  H     0.04201   0.73276   0.73289   0.00000  Uiso   1.00
H1206  H     0.08724   0.71973   0.67391   0.00000  Uiso   1.00
H1207  H     0.02690   0.73181   0.67173   0.00000  Uiso   1.00
C1208  C     0.29519   0.79500   0.90197   0.00000  Uiso   1.00
N1209  N     0.00070   0.78447   0.87796   0.00000  Uiso   1.00
O1210  O     0.12789   0.80786   0.59160   0.00000  Uiso   1.00
C1211  C     0.12704   0.76570   0.57729   0.00000  Uiso   1.00
H1212  H     0.14849   0.74718   0.59705   0.00000  Uiso   1.00
H1213  H     0.14053   0.75898   0.53500   0.00000  Uiso   1.00
H1214  H     0.08887   0.75551   0.58890   0.00000  Uiso   1.00
C1215  C     0.25832   0.95722   0.70660   0.00000  Uiso   1.00
N1216  N     0.29506   0.94088   0.68543   0.00000  Uiso   1.00
C1217  C     0.50047   0.91242   0.74768   0.00000  Uiso   1.00
C1218  C     0.48366   0.83258   0.98670   0.00000  Uiso   1.00
C1219  C     0.49567   0.82297   0.93324   0.00000  Uiso   1.00
C1220  C     0.51938   0.82662   0.51271   0.00000  Uiso   1.00
C1221  C     0.56861   0.81998   0.98434   0.00000  Uiso   1.00
C1222  C     0.57989   0.80811   0.93187   0.00000  Uiso   1.00
C1223  C     0.54258   0.80587   0.90850   0.00000  Uiso   1.00
C1224  C     0.50651   0.82278   0.56636   0.00000  Uiso   1.00
C1225  C     0.59166   0.82828   0.56389   0.00000  Uiso   1.00
C1226  C     0.46067   0.83122   0.90641   0.00000  Uiso   1.00
C1227  C     0.54551   0.97787   0.73272   0.00000  Uiso   1.00
C1228  C     0.47441   0.83144   0.84968   0.00000  Uiso   1.00
C1229  C     0.54487   0.68663   0.74330   0.00000  Uiso   1.00
C1230  C     0.50062   0.70922   0.75344   0.00000  Uiso   1.00
C1231  C     0.45673   0.68834   0.76322   0.00000  Uiso   1.00
C1232  C     0.45684   0.97920   0.76066   0.00000  Uiso   1.00
C1233  C     0.50108   0.95697   0.74548   0.00000  Uiso   1.00
C1234  C     0.63201   0.85930   0.78329   0.00000  Uiso   1.00
C1235  C     0.34872   0.85901   0.78333   0.00000  Uiso   1.00
C1236  C     0.36730   0.80668   0.71809   0.00000  Uiso   1.00
C1237  C     0.65097   0.80740   0.71763   0.00000  Uiso   1.00
C1238  C     0.49981   0.75408   0.75208   0.00000  Uiso   1.00
C1239  C     0.52615   0.83175   0.64995   0.00000  Uiso   1.00
C1240  C     0.60450   0.82264   0.51004   0.00000  Uiso   1.00
C1241  C     0.54182   0.82825   0.59281   0.00000  Uiso   1.00
C1242  C     0.41374   0.84545   0.93414   0.00000  Uiso   1.00
C1243  C     0.40248   0.85520   0.98650   0.00000  Uiso   1.00
C1244  C     0.43716   0.84971   0.51243   0.00000  Uiso   1.00
Cu1245 Cu    0.45311   0.83333   0.75000   0.00000  Uiso   1.00
Cu1246 Cu    0.54689   0.83334   0.75000   0.00000  Uiso   1.00
H1247  H     0.42219   0.70477   0.77524   0.00000  Uiso   1.00
H1248  H     0.42227   0.96384   0.77080   0.00000  Uiso   1.00
H1249  H     0.63909   0.78687   0.69184   0.00000  Uiso   1.00
H1250  H     0.64256   0.82078   0.98832   0.00000  Uiso   1.00
H1251  H     0.38639   0.85147   0.91486   0.00000  Uiso   1.00
H1252  H     0.42764   0.86039   0.55235   0.00000  Uiso   1.00
H1253  H     0.36717   0.86858   0.50683   0.00000  Uiso   1.00
H1254  H     0.55127   0.79061   0.87088   0.00000  Uiso   1.00
N1255  N     0.38265   0.83332   0.74999   0.00000  Uiso   1.00
N1256  N     0.61735   0.83335   0.74999   0.00000  Uiso   1.00
O1257  O     0.46042   0.89345   0.75000   0.00000  Uiso   1.00
O1258  O     0.53961   0.89346   0.75000   0.00000  Uiso   1.00
O1259  O     0.44108   0.83332   0.82549   0.00000  Uiso   1.00
O1260  O     0.52027   0.83333   0.82549   0.00000  Uiso   1.00
O1261  O     0.46039   0.77321   0.75000   0.00000  Uiso   1.00
O1262  O     0.53958   0.77322   0.74999   0.00000  Uiso   1.00
O1263  O     0.47973   0.83334   0.67451   0.00000  Uiso   1.00
O1264  O     0.55892   0.83335   0.67451   0.00000  Uiso   1.00
O1265  O     0.62764   0.83471   0.58794   0.00000  Uiso   1.00
C1266  C     0.65535   0.79812   0.58458   0.00000  Uiso   1.00
H1267  H     0.63205   0.77265   0.60321   0.00000  Uiso   1.00
H1268  H     0.34976   0.80359   0.60512   0.00000  Uiso   1.00
H1269  H     0.34226   0.78893   0.54418   0.00000  Uiso   1.00
C1270  C     0.58751   0.70431   0.75288   0.00000  Uiso   1.00
N1271  N     0.62089   0.71825   0.76236   0.00000  Uiso   1.00
O1272  O     0.59634   0.88150   0.82063   0.00000  Uiso   1.00
C1273  C     0.60426   0.92420   0.81873   0.00000  Uiso   1.00
H1274  H     0.63257   0.93382   0.78375   0.00000  Uiso   1.00
H1275  H     0.61433   0.93488   0.85351   0.00000  Uiso   1.00
H1276  H     0.56955   0.94021   0.82021   0.00000  Uiso   1.00
C1277  C     0.36366   0.88526   0.81958   0.00000  Uiso   1.00
N1278  N     0.37536   0.90670   0.84862   0.00000  Uiso   1.00
O1279  O     0.40154   0.78097   0.68457   0.00000  Uiso   1.00
C1280  C     0.38804   0.73970   0.69154   0.00000  Uiso   1.00
H1281  H     0.37535   0.73276   0.73289   0.00000  Uiso   1.00
H1282  H     0.42057   0.71973   0.67391   0.00000  Uiso   1.00
H1283  H     0.36023   0.73181   0.67173   0.00000  Uiso   1.00
C1284  C     0.62852   0.79500   0.90197   0.00000  Uiso   1.00
N1285  N     0.33403   0.78447   0.87796   0.00000  Uiso   1.00
O1286  O     0.46122   0.80786   0.59160   0.00000  Uiso   1.00
C1287  C     0.46037   0.76570   0.57729   0.00000  Uiso   1.00
H1288  H     0.48182   0.74718   0.59705   0.00000  Uiso   1.00
H1289  H     0.47386   0.75898   0.53500   0.00000  Uiso   1.00
H1290  H     0.42220   0.75551   0.58890   0.00000  Uiso   1.00
C1291  C     0.59166   0.95722   0.70660   0.00000  Uiso   1.00
N1292  N     0.62840   0.94088   0.68543   0.00000  Uiso   1.00
C1293  C     0.83380   0.91242   0.74768   0.00000  Uiso   1.00
C1294  C     0.81699   0.83258   0.98670   0.00000  Uiso   1.00
C1295  C     0.82900   0.82297   0.93324   0.00000  Uiso   1.00
C1296  C     0.85271   0.82662   0.51271   0.00000  Uiso   1.00
C1297  C     0.90194   0.81998   0.98434   0.00000  Uiso   1.00
C1298  C     0.91323   0.80811   0.93187   0.00000  Uiso   1.00
C1299  C     0.87591   0.80587   0.90850   0.00000  Uiso   1.00
C1300  C     0.83984   0.82278   0.56636   0.00000  Uiso   1.00
C1301  C     0.92499   0.82828   0.56389   0.00000  Uiso   1.00
C1302  C     0.79400   0.83122   0.90641   0.00000  Uiso   1.00
C1303  C     0.87884   0.97787   0.73272   0.00000  Uiso   1.00
C1304  C     0.80774   0.83144   0.84968   0.00000  Uiso   1.00
C1305  C     0.87820   0.68663   0.74330   0.00000  Uiso   1.00
C1306  C     0.83395   0.70922   0.75344   0.00000  Uiso   1.00
C1307  C     0.79006   0.68834   0.76322   0.00000  Uiso   1.00
C1308  C     0.79018   0.97920   0.76066   0.00000  Uiso   1.00
C1309  C     0.83442   0.95697   0.74548   0.00000  Uiso   1.00
C1310  C     0.96534   0.85930   0.78329   0.00000  Uiso   1.00
C1311  C     0.68206   0.85901   0.78333   0.00000  Uiso   1.00
C1312  C     0.70064   0.80668   0.71809   0.00000  Uiso   1.00
C1313  C     0.98430   0.80740   0.71763   0.00000  Uiso   1.00
C1314  C     0.83314   0.75408   0.75208   0.00000  Uiso   1.00
C1315  C     0.85949   0.83175   0.64995   0.00000  Uiso   1.00
C1316  C     0.93783   0.82264   0.51004   0.00000  Uiso   1.00
C1317  C     0.87516   0.82825   0.59281   0.00000  Uiso   1.00
C1318  C     0.74707   0.84545   0.93414   0.00000  Uiso   1.00
C1319  C     0.73581   0.85520   0.98650   0.00000  Uiso   1.00
C1320  C     0.77050   0.84971   0.51243   0.00000  Uiso   1.00
Cu1321 Cu    0.78645   0.83333   0.75000   0.00000  Uiso   1.00
Cu1322 Cu    0.88022   0.83334   0.75000   0.00000  Uiso   1.00
H1323  H     0.75552   0.70477   0.77524   0.00000  Uiso   1.00
H1324  H     0.75560   0.96384   0.77080   0.00000  Uiso   1.00
H1325  H     0.97242   0.78687   0.69184   0.00000  Uiso   1.00
H1326  H     0.97589   0.82078   0.98832   0.00000  Uiso   1.00
H1327  H     0.71972   0.85147   0.91486   0.00000  Uiso   1.00
H1328  H     0.76097   0.86039   0.55235   0.00000  Uiso   1.00
H1329  H     0.70050   0.86858   0.50683   0.00000  Uiso   1.00
H1330  H     0.88460   0.79061   0.87088   0.00000  Uiso   1.00
N1331  N     0.71598   0.83332   0.74999   0.00000  Uiso   1.00
N1332  N     0.95069   0.83335   0.74999   0.00000  Uiso   1.00
O1333  O     0.79375   0.89345   0.75000   0.00000  Uiso   1.00
O1334  O     0.87294   0.89346   0.75000   0.00000  Uiso   1.00
O1335  O     0.77441   0.83332   0.82549   0.00000  Uiso   1.00
O1336  O     0.85360   0.83333   0.82549   0.00000  Uiso   1.00
O1337  O     0.79373   0.77321   0.75000   0.00000  Uiso   1.00
O1338  O     0.87292   0.77322   0.74999   0.00000  Uiso   1.00
O1339  O     0.81306   0.83334   0.67451   0.00000  Uiso   1.00
O1340  O     0.89225   0.83335   0.67451   0.00000  Uiso   1.00
O1341  O     0.96097   0.83471   0.58794   0.00000  Uiso   1.00
C1342  C     0.98868   0.79812   0.58458   0.00000  Uiso   1.00
H1343  H     0.96538   0.77265   0.60321   0.00000  Uiso   1.00
H1344  H     0.68310   0.80359   0.60512   0.00000  Uiso   1.00
H1345  H     0.67559   0.78893   0.54418   0.00000  Uiso   1.00
C1346  C     0.92084   0.70431   0.75288   0.00000  Uiso   1.00
N1347  N     0.95422   0.71825   0.76236   0.00000  Uiso   1.00
O1348  O     0.92968   0.88150   0.82063   0.00000  Uiso   1.00
C1349  C     0.93760   0.92420   0.81873   0.00000  Uiso   1.00
H1350  H     0.96590   0.93382   0.78375   0.00000  Uiso   1.00
H1351  H     0.94767   0.93488   0.85351   0.00000  Uiso   1.00
H1352  H     0.90288   0.94021   0.82021   0.00000  Uiso   1.00
C1353  C     0.69700   0.88526   0.81958   0.00000  Uiso   1.00
N1354  N     0.70870   0.90670   0.84862   0.00000  Uiso   1.00
O1355  O     0.73487   0.78097   0.68457   0.00000  Uiso   1.00
C1356  C     0.72137   0.73970   0.69154   0.00000  Uiso   1.00
H1357  H     0.70868   0.73276   0.73289   0.00000  Uiso   1.00
H1358  H     0.75390   0.71973   0.67391   0.00000  Uiso   1.00
H1359  H     0.69357   0.73181   0.67173   0.00000  Uiso   1.00
C1360  C     0.96186   0.79500   0.90197   0.00000  Uiso   1.00
N1361  N     0.66737   0.78447   0.87796   0.00000  Uiso   1.00
O1362  O     0.79455   0.80786   0.59160   0.00000  Uiso   1.00
C1363  C     0.79371   0.76570   0.57729   0.00000  Uiso   1.00
H1364  H     0.81515   0.74718   0.59705   0.00000  Uiso   1.00
H1365  H     0.80720   0.75898   0.53500   0.00000  Uiso   1.00
H1366  H     0.75553   0.75551   0.58890   0.00000  Uiso   1.00
C1367  C     0.92499   0.95722   0.70660   0.00000  Uiso   1.00
N1368  N     0.96173   0.94088   0.68543   0.00000  Uiso   1.00
loop_
_geom_bond_atom_site_label_1
_geom_bond_atom_site_label_2
_geom_bond_distance
_geom_bond_site_symmetry_2
_ccdc_geom_bond_type
C1     O42     1.294   .     A
C1     O41     1.297   .     A
C1     C17     1.456   .     S
C2     C3      1.413   .     A
C2     C688    1.417   .     S
C2     C712    1.413   .     S
C3     C7      1.416   .     A
C3     C10     1.428   .     A
C4     C8      1.405   .     A
C4     C686    1.417   1_554 S
C4     C689    1.409   1_554 S
C5     C6      1.405   .     A
C5     C688    1.409   .     S
C5     C708    1.402   .     S
C6     C68     1.447   .     S
C6     C7      1.394   .     A
C7     H38     1.080   .     S
C8     C25     1.409   .     A
C8     O70     1.384   .     S
C9     C25     1.418   .     A
C9     O49     1.385   .     S
C9     C24     1.405   .     A
C10    C26     1.403   .     A
C10    C12     1.475   .     S
C11    C17     1.410   .     A
C11    C75     1.453   .     S
C11    C241    1.391   .     S
C12    O43     1.308   .     A
C12    O44     1.292   .     A
C13    C14     1.411   .     A
C13    C54     1.443   .     S
C13    C467    1.391   1_545 S
C14    C22     1.465   .     S
C14    C15     1.399   .     A
C15    H31     1.079   .     S
C15    C472    1.384   1_545 S
C16    C17     1.400   .     A
C16    H32     1.083   .     S
C16    C243    1.384   .     S
C18    N40     1.371   .     A
C18    O56     1.389   .     S
C18    C95     1.435   .     S
C19    N39     1.373   .     A
C19    C61     1.441   .     S
C19    C170    1.435   1_455 S
C20    N39     1.368   .     A
C20    O63     1.381   .     S
C20    C173    1.428   1_455 S
C21    H33     1.079   .     S
C21    N40     1.363   .     A
C21    C96     1.428   .     S
C22    O46     1.294   .     A
C22    O45     1.301   .     A
C23    O47     1.305   .     A
C23    O48     1.300   .     A
C23    C25     1.484   .     S
C24    C689    1.402   1_554 S
C24    H718    1.080   1_554 S
C26    C27     1.387   .     A
C26    H35     1.081   .     S
C27    C712    1.387   .     S
C27    H721    1.082   .     S
C28    H36     1.081   .     S
C28    C686    1.413   1_554 S
C28    C711    1.387   1_554 S
Cu29   O47     1.968   .     S
Cu29   O43     1.976   .     S
Cu29   O45     1.970   .     S
Cu29   Cu30    2.689   .     S
Cu29   N39     2.021   .     S
Cu29   O41     1.974   .     S
Cu30   O48     1.976   .     S
Cu30   O44     1.968   .     S
Cu30   N40     2.021   .     S
Cu30   O46     1.974   .     S
Cu30   O42     1.970   .     S
H34    C708    1.080   .     S
H37    C711    1.082   1_554 S
O49    C50     1.412   .     S
C50    H51     1.113   .     S
C50    H128    1.108   .     S
C50    H129    1.111   .     S
H52    C202    1.108   1_455 S
H53    C202    1.111   1_455 S
C54    N55     1.154   .     T
O56    C57     1.414   .     S
C57    H59     1.109   .     S
C57    H60     1.109   .     S
C57    H58     1.114   .     S
C61    N62     1.158   .     T
O63    C64     1.409   .     S
C64    H67     1.110   .     S
C64    H66     1.109   .     S
C64    H65     1.108   .     S
C68    N145    1.157   .     S
N69    C220    1.157   1_455 S
O70    C71     1.418   .     S
C71    H73     1.113   .     S
C71    H74     1.107   .     S
C71    H72     1.112   .     S
C75    N76     1.158   .     T
C77    O118    1.294   .     A
C77    O117    1.297   .     A
C77    C93     1.456   .     S
C78    C79     1.413   .     A
C78    C764    1.417   .     S
C78    C788    1.413   .     S
C79    C83     1.416   .     A
C79    C86     1.428   .     A
C80    C84     1.405   .     A
C80    C762    1.417   1_554 S
C80    C765    1.409   1_554 S
C81    C82     1.405   .     A
C81    C764    1.409   .     S
C81    C784    1.402   .     S
C82    C144    1.447   .     S
C82    C83     1.394   .     A
C83    H114    1.080   .     S
C84    C101    1.409   .     A
C84    O146    1.384   .     S
C85    C101    1.418   .     A
C85    O125    1.385   .     S
C85    C100    1.405   .     A
C86    C102    1.403   .     A
C86    C88     1.475   .     S
C87    C93     1.410   .     A
C87    C151    1.453   .     S
C87    C317    1.391   .     S
C88    O119    1.308   .     A
C88    O120    1.292   .     A
C89    C90     1.411   .     A
C89    C130    1.443   .     S
C89    C543    1.391   1_545 S
C90    C98     1.465   .     S
C90    C91     1.399   .     A
C91    H107    1.079   .     S
C91    C548    1.384   1_545 S
C92    C93     1.400   .     A
C92    H108    1.083   .     S
C92    C319    1.384   .     S
C94    N116    1.371   .     A
C94    O132    1.389   .     S
C94    C171    1.435   .     S
C95    N115    1.373   .     A
C95    C137    1.441   .     S
C96    N115    1.368   .     A
C96    O139    1.381   .     S
C97    H109    1.079   .     S
C97    N116    1.363   .     A
C97    C172    1.428   .     S
C98    O122    1.294   .     A
C98    O121    1.301   .     A
C99    O123    1.305   .     A
C99    O124    1.300   .     A
C99    C101    1.484   .     S
C100   C765    1.402   1_554 S
C100   H794    1.080   1_554 S
C102   C103    1.387   .     A
C102   H111    1.081   .     S
C103   C788    1.387   .     S
C103   H797    1.082   .     S
C104   H112    1.081   .     S
C104   C762    1.413   1_554 S
C104   C787    1.387   1_554 S
Cu105  O123    1.968   .     S
Cu105  O119    1.976   .     S
Cu105  O121    1.970   .     S
Cu105  Cu106   2.689   .     S
Cu105  N115    2.021   .     S
Cu105  O117    1.974   .     S
Cu106  O124    1.976   .     S
Cu106  O120    1.968   .     S
Cu106  N116    2.021   .     S
Cu106  O122    1.974   .     S
Cu106  O118    1.970   .     S
H110   C784    1.080   .     S
H113   C787    1.082   1_554 S
O125   C126    1.412   .     S
C126   H127    1.113   .     S
C126   H204    1.108   .     S
C126   H205    1.111   .     S
C130   N131    1.154   .     T
O132   C133    1.414   .     S
C133   H135    1.109   .     S
C133   H136    1.109   .     S
C133   H134    1.114   .     S
C137   N138    1.158   .     T
O139   C140    1.409   .     S
C140   H143    1.110   .     S
C140   H142    1.109   .     S
C140   H141    1.108   .     S
C144   N221    1.157   .     S
O146   C147    1.418   .     S
C147   H149    1.113   .     S
C147   H150    1.107   .     S
C147   H148    1.112   .     S
C151   N152    1.158   .     T
C153   O194    1.294   .     A
C153   O193    1.297   .     A
C153   C169    1.456   .     S
C154   C155    1.413   .     A
C154   C840    1.417   .     S
C154   C864    1.413   .     S
C155   C159    1.416   .     A
C155   C162    1.428   .     A
C156   C160    1.405   .     A
C156   C838    1.417   1_554 S
C156   C841    1.409   1_554 S
C157   C158    1.405   .     A
C157   C840    1.409   .     S
C157   C860    1.402   .     S
C158   C220    1.447   .     S
C158   C159    1.394   .     A
C159   H190    1.080   .     S
C160   C177    1.409   .     A
C160   O222    1.384   .     S
C161   C177    1.418   .     A
C161   O201    1.385   .     S
C161   C176    1.405   .     A
C162   C178    1.403   .     A
C162   C164    1.475   .     S
C163   C169    1.410   .     A
C163   C227    1.453   .     S
C163   C393    1.391   .     S
C164   O195    1.308   .     A
C164   O196    1.292   .     A
C165   C166    1.411   .     A
C165   C206    1.443   .     S
C165   C619    1.391   1_545 S
C166   C174    1.465   .     S
C166   C167    1.399   .     A
C167   H183    1.079   .     S
C167   C624    1.384   1_545 S
C168   C169    1.400   .     A
C168   H184    1.083   .     S
C168   C395    1.384   .     S
C170   N192    1.371   .     A
C170   O208    1.389   .     S
C170   C19     1.435   1_655 S
C171   N191    1.373   .     A
C171   C213    1.441   .     S
C172   N191    1.368   .     A
C172   O215    1.381   .     S
C173   H185    1.079   .     S
C173   N192    1.363   .     A
C173   C20     1.428   1_655 S
C174   O198    1.294   .     A
C174   O197    1.301   .     A
C175   O199    1.305   .     A
C175   O200    1.300   .     A
C175   C177    1.484   .     S
C176   C841    1.402   1_554 S
C176   H870    1.080   1_554 S
C178   C179    1.387   .     A
C178   H187    1.081   .     S
C179   C864    1.387   .     S
C179   H873    1.082   .     S
C180   H188    1.081   .     S
C180   C838    1.413   1_554 S
C180   C863    1.387   1_554 S
Cu181  O199    1.968   .     S
Cu181  O195    1.976   .     S
Cu181  O197    1.970   .     S
Cu181  Cu182   2.689   .     S
Cu181  N191    2.021   .     S
Cu181  O193    1.974   .     S
Cu182  O200    1.976   .     S
Cu182  O196    1.968   .     S
Cu182  N192    2.021   .     S
Cu182  O198    1.974   .     S
Cu182  O194    1.970   .     S
H186   C860    1.080   .     S
H189   C863    1.082   1_554 S
O201   C202    1.412   .     S
C202   H203    1.113   .     S
C202   H52     1.108   1_655 S
C202   H53     1.111   1_655 S
C206   N207    1.154   .     T
O208   C209    1.414   .     S
C209   H211    1.109   .     S
C209   H212    1.109   .     S
C209   H210    1.114   .     S
C213   N214    1.158   .     T
O215   C216    1.409   .     S
C216   H219    1.110   .     S
C216   H218    1.109   .     S
C216   H217    1.108   .     S
C220   N69     1.157   1_655 S
O222   C223    1.418   .     S
C223   H225    1.113   .     S
C223   H226    1.107   .     S
C223   H224    1.112   .     S
C227   N228    1.158   .     T
C229   O270    1.294   .     A
C229   O269    1.297   .     A
C229   C245    1.456   .     S
C230   C231    1.413   .     A
C230   C916    1.417   .     S
C230   C940    1.413   .     S
C231   C235    1.416   .     A
C231   C238    1.428   .     A
C232   C236    1.405   .     A
C232   C914    1.417   1_554 S
C232   C917    1.409   1_554 S
C233   C234    1.405   .     A
C233   C916    1.409   .     S
C233   C936    1.402   .     S
C234   C296    1.447   .     S
C234   C235    1.394   .     A
C235   H266    1.080   .     S
C236   C253    1.409   .     A
C236   O298    1.384   .     S
C237   C253    1.418   .     A
C237   O277    1.385   .     S
C237   C252    1.405   .     A
C238   C254    1.403   .     A
C238   C240    1.475   .     S
C239   C245    1.410   .     A
C239   C303    1.453   .     S
C239   C469    1.391   .     S
C240   O271    1.308   .     A
C240   O272    1.292   .     A
C241   C242    1.411   .     A
C241   C282    1.443   .     S
C242   C250    1.465   .     S
C242   C243    1.399   .     A
C243   H259    1.079   .     S
C244   C245    1.400   .     A
C244   H260    1.083   .     S
C244   C471    1.384   .     S
C246   N268    1.371   .     A
C246   O284    1.389   .     S
C246   C323    1.435   .     S
C247   N267    1.373   .     A
C247   C289    1.441   .     S
C247   C398    1.435   1_455 S
C248   N267    1.368   .     A
C248   O291    1.381   .     S
C248   C401    1.428   1_455 S
C249   H261    1.079   .     S
C249   N268    1.363   .     A
C249   C324    1.428   .     S
C250   O274    1.294   .     A
C250   O273    1.301   .     A
C251   O275    1.305   .     A
C251   O276    1.300   .     A
C251   C253    1.484   .     S
C252   C917    1.402   1_554 S
C252   H946    1.080   1_554 S
C254   C255    1.387   .     A
C254   H263    1.081   .     S
C255   C940    1.387   .     S
C255   H949    1.082   .     S
C256   H264    1.081   .     S
C256   C914    1.413   1_554 S
C256   C939    1.387   1_554 S
Cu257  O275    1.968   .     S
Cu257  O271    1.976   .     S
Cu257  O273    1.970   .     S
Cu257  Cu258   2.689   .     S
Cu257  N267    2.021   .     S
Cu257  O269    1.974   .     S
Cu258  O276    1.976   .     S
Cu258  O272    1.968   .     S
Cu258  N268    2.021   .     S
Cu258  O274    1.974   .     S
Cu258  O270    1.970   .     S
H262   C936    1.080   .     S
H265   C939    1.082   1_554 S
O277   C278    1.412   .     S
C278   H279    1.113   .     S
C278   H356    1.108   .     S
C278   H357    1.111   .     S
H280   C430    1.108   1_455 S
H281   C430    1.111   1_455 S
C282   N283    1.154   .     T
O284   C285    1.414   .     S
C285   H287    1.109   .     S
C285   H288    1.109   .     S
C285   H286    1.114   .     S
C289   N290    1.158   .     T
O291   C292    1.409   .     S
C292   H295    1.110   .     S
C292   H294    1.109   .     S
C292   H293    1.108   .     S
C296   N373    1.157   .     S
N297   C448    1.157   1_455 S
O298   C299    1.418   .     S
C299   H301    1.113   .     S
C299   H302    1.107   .     S
C299   H300    1.112   .     S
C303   N304    1.158   .     T
C305   O346    1.294   .     A
C305   O345    1.297   .     A
C305   C321    1.456   .     S
C306   C307    1.413   .     A
C306   C992    1.417   .     S
C306   C1016   1.413   .     S
C307   C311    1.416   .     A
C307   C314    1.428   .     A
C308   C312    1.405   .     A
C308   C990    1.417   1_554 S
C308   C993    1.409   1_554 S
C309   C310    1.405   .     A
C309   C992    1.409   .     S
C309   C1012   1.402   .     S
C310   C372    1.447   .     S
C310   C311    1.394   .     A
C311   H342    1.080   .     S
C312   C329    1.409   .     A
C312   O374    1.384   .     S
C313   C329    1.418   .     A
C313   O353    1.385   .     S
C313   C328    1.405   .     A
C314   C330    1.403   .     A
C314   C316    1.475   .     S
C315   C321    1.410   .     A
C315   C379    1.453   .     S
C315   C545    1.391   .     S
C316   O347    1.308   .     A
C316   O348    1.292   .     A
C317   C318    1.411   .     A
C317   C358    1.443   .     S
C318   C326    1.465   .     S
C318   C319    1.399   .     A
C319   H335    1.079   .     S
C320   C321    1.400   .     A
C320   H336    1.083   .     S
C320   C547    1.384   .     S
C322   N344    1.371   .     A
C322   O360    1.389   .     S
C322   C399    1.435   .     S
C323   N343    1.373   .     A
C323   C365    1.441   .     S
C324   N343    1.368   .     A
C324   O367    1.381   .     S
C325   H337    1.079   .     S
C325   N344    1.363   .     A
C325   C400    1.428   .     S
C326   O350    1.294   .     A
C326   O349    1.301   .     A
C327   O351    1.305   .     A
C327   O352    1.300   .     A
C327   C329    1.484   .     S
C328   C993    1.402   1_554 S
C328   H1022   1.080   1_554 S
C330   C331    1.387   .     A
C330   H339    1.081   .     S
C331   C1016   1.387   .     S
C331   H1025   1.082   .     S
C332   H340    1.081   .     S
C332   C990    1.413   1_554 S
C332   C1015   1.387   1_554 S
Cu333  O351    1.968   .     S
Cu333  O347    1.976   .     S
Cu333  O349    1.970   .     S
Cu333  Cu334   2.689   .     S
Cu333  N343    2.021   .     S
Cu333  O345    1.974   .     S
Cu334  O352    1.976   .     S
Cu334  O348    1.968   .     S
Cu334  N344    2.021   .     S
Cu334  O350    1.974   .     S
Cu334  O346    1.970   .     S
H338   C1012   1.080   .     S
H341   C1015   1.082   1_554 S
O353   C354    1.412   .     S
C354   H355    1.113   .     S
C354   H432    1.108   .     S
C354   H433    1.111   .     S
C358   N359    1.154   .     T
O360   C361    1.414   .     S
C361   H363    1.109   .     S
C361   H364    1.109   .     S
C361   H362    1.114   .     S
C365   N366    1.158   .     T
O367   C368    1.409   .     S
C368   H371    1.110   .     S
C368   H370    1.109   .     S
C368   H369    1.108   .     S
C372   N449    1.157   .     S
O374   C375    1.418   .     S
C375   H377    1.113   .     S
C375   H378    1.107   .     S
C375   H376    1.112   .     S
C379   N380    1.158   .     T
C381   O422    1.294   .     A
C381   O421    1.297   .     A
C381   C397    1.456   .     S
C382   C383    1.413   .     A
C382   C1068   1.417   .     S
C382   C1092   1.413   .     S
C383   C387    1.416   .     A
C383   C390    1.428   .     A
C384   C388    1.405   .     A
C384   C1066   1.417   1_554 S
C384   C1069   1.409   1_554 S
C385   C386    1.405   .     A
C385   C1068   1.409   .     S
C385   C1088   1.402   .     S
C386   C448    1.447   .     S
C386   C387    1.394   .     A
C387   H418    1.080   .     S
C388   C405    1.409   .     A
C388   O450    1.384   .     S
C389   C405    1.418   .     A
C389   O429    1.385   .     S
C389   C404    1.405   .     A
C390   C406    1.403   .     A
C390   C392    1.475   .     S
C391   C397    1.410   .     A
C391   C455    1.453   .     S
C391   C621    1.391   .     S
C392   O423    1.308   .     A
C392   O424    1.292   .     A
C393   C394    1.411   .     A
C393   C434    1.443   .     S
C394   C402    1.465   .     S
C394   C395    1.399   .     A
C395   H411    1.079   .     S
C396   C397    1.400   .     A
C396   H412    1.083   .     S
C396   C623    1.384   .     S
C398   N420    1.371   .     A
C398   O436    1.389   .     S
C398   C247    1.435   1_655 S
C399   N419    1.373   .     A
C399   C441    1.441   .     S
C400   N419    1.368   .     A
C400   O443    1.381   .     S
C401   H413    1.079   .     S
C401   N420    1.363   .     A
C401   C248    1.428   1_655 S
C402   O426    1.294   .     A
C402   O425    1.301   .     A
C403   O427    1.305   .     A
C403   O428    1.300   .     A
C403   C405    1.484   .     S
C404   C1069   1.402   1_554 S
C404   H1098   1.080   1_554 S
C406   C407    1.387   .     A
C406   H415    1.081   .     S
C407   C1092   1.387   .     S
C407   H1101   1.082   .     S
C408   H416    1.081   .     S
C408   C1066   1.413   1_554 S
C408   C1091   1.387   1_554 S
Cu409  O427    1.968   .     S
Cu409  O423    1.976   .     S
Cu409  O425    1.970   .     S
Cu409  Cu410   2.689   .     S
Cu409  N419    2.021   .     S
Cu409  O421    1.974   .     S
Cu410  O428    1.976   .     S
Cu410  O424    1.968   .     S
Cu410  N420    2.021   .     S
Cu410  O426    1.974   .     S
Cu410  O422    1.970   .     S
H414   C1088   1.080   .     S
H417   C1091   1.082   1_554 S
O429   C430    1.412   .     S
C430   H431    1.113   .     S
C430   H280    1.108   1_655 S
C430   H281    1.111   1_655 S
C434   N435    1.154   .     T
O436   C437    1.414   .     S
C437   H439    1.109   .     S
C437   H440    1.109   .     S
C437   H438    1.114   .     S
C441   N442    1.158   .     T
O443   C444    1.409   .     S
C444   H447    1.110   .     S
C444   H446    1.109   .     S
C444   H445    1.108   .     S
C448   N297    1.157   1_655 S
O450   C451    1.418   .     S
C451   H453    1.113   .     S
C451   H454    1.107   .     S
C451   H452    1.112   .     S
C455   N456    1.158   .     T
C457   O498    1.294   .     A
C457   O497    1.297   .     A
C457   C473    1.456   .     S
C458   C459    1.413   .     A
C458   C1144   1.417   .     S
C458   C1168   1.413   .     S
C459   C463    1.416   .     A
C459   C466    1.428   .     A
C460   C464    1.405   .     A
C460   C1142   1.417   1_554 S
C460   C1145   1.409   1_554 S
C461   C462    1.405   .     A
C461   C1144   1.409   .     S
C461   C1164   1.402   .     S
C462   C524    1.447   .     S
C462   C463    1.394   .     A
C463   H494    1.080   .     S
C464   C481    1.409   .     A
C464   O526    1.384   .     S
C465   C481    1.418   .     A
C465   O505    1.385   .     S
C465   C480    1.405   .     A
C466   C482    1.403   .     A
C466   C468    1.475   .     S
C467   C473    1.410   .     A
C467   C531    1.453   .     S
C467   C13     1.391   1_565 S
C468   O499    1.308   .     A
C468   O500    1.292   .     A
C469   C470    1.411   .     A
C469   C510    1.443   .     S
C470   C478    1.465   .     S
C470   C471    1.399   .     A
C471   H487    1.079   .     S
C472   C473    1.400   .     A
C472   H488    1.083   .     S
C472   C15     1.384   1_565 S
C474   N496    1.371   .     A
C474   O512    1.389   .     S
C474   C551    1.435   .     S
C475   N495    1.373   .     A
C475   C517    1.441   .     S
C475   C626    1.435   1_455 S
C476   N495    1.368   .     A
C476   O519    1.381   .     S
C476   C629    1.428   1_455 S
C477   H489    1.079   .     S
C477   N496    1.363   .     A
C477   C552    1.428   .     S
C478   O502    1.294   .     A
C478   O501    1.301   .     A
C479   O503    1.305   .     A
C479   O504    1.300   .     A
C479   C481    1.484   .     S
C480   C1145   1.402   1_554 S
C480   H1174   1.080   1_554 S
C482   C483    1.387   .     A
C482   H491    1.081   .     S
C483   C1168   1.387   .     S
C483   H1177   1.082   .     S
C484   H492    1.081   .     S
C484   C1142   1.413   1_554 S
C484   C1167   1.387   1_554 S
Cu485  O503    1.968   .     S
Cu485  O499    1.976   .     S
Cu485  O501    1.970   .     S
Cu485  Cu486   2.689   .     S
Cu485  N495    2.021   .     S
Cu485  O497    1.974   .     S
Cu486  O504    1.976   .     S
Cu486  O500    1.968   .     S
Cu486  N496    2.021   .     S
Cu486  O502    1.974   .     S
Cu486  O498    1.970   .     S
H490   C1164   1.080   .     S
H493   C1167   1.082   1_554 S
O505   C506    1.412   .     S
C506   H507    1.113   .     S
C506   H584    1.108   .     S
C506   H585    1.111   .     S
H508   C658    1.108   1_455 S
H509   C658    1.111   1_455 S
C510   N511    1.154   .     T
O512   C513    1.414   .     S
C513   H515    1.109   .     S
C513   H516    1.109   .     S
C513   H514    1.114   .     S
C517   N518    1.158   .     T
O519   C520    1.409   .     S
C520   H523    1.110   .     S
C520   H522    1.109   .     S
C520   H521    1.108   .     S
C524   N601    1.157   .     S
N525   C676    1.157   1_455 S
O526   C527    1.418   .     S
C527   H529    1.113   .     S
C527   H530    1.107   .     S
C527   H528    1.112   .     S
C531   N532    1.158   .     T
C533   O574    1.294   .     A
C533   O573    1.297   .     A
C533   C549    1.456   .     S
C534   C535    1.413   .     A
C534   C1220   1.417   .     S
C534   C1244   1.413   .     S
C535   C539    1.416   .     A
C535   C542    1.428   .     A
C536   C540    1.405   .     A
C536   C1218   1.417   1_554 S
C536   C1221   1.409   1_554 S
C537   C538    1.405   .     A
C537   C1220   1.409   .     S
C537   C1240   1.402   .     S
C538   C600    1.447   .     S
C538   C539    1.394   .     A
C539   H570    1.080   .     S
C540   C557    1.409   .     A
C540   O602    1.384   .     S
C541   C557    1.418   .     A
C541   O581    1.385   .     S
C541   C556    1.405   .     A
C542   C558    1.403   .     A
C542   C544    1.475   .     S
C543   C549    1.410   .     A
C543   C607    1.453   .     S
C543   C89     1.391   1_565 S
C544   O575    1.308   .     A
C544   O576    1.292   .     A
C545   C546    1.411   .     A
C545   C586    1.443   .     S
C546   C554    1.465   .     S
C546   C547    1.399   .     A
C547   H563    1.079   .     S
C548   C549    1.400   .     A
C548   H564    1.083   .     S
C548   C91     1.384   1_565 S
C550   N572    1.371   .     A
C550   O588    1.389   .     S
C550   C627    1.435   .     S
C551   N571    1.373   .     A
C551   C593    1.441   .     S
C552   N571    1.368   .     A
C552   O595    1.381   .     S
C553   H565    1.079   .     S
C553   N572    1.363   .     A
C553   C628    1.428   .     S
C554   O578    1.294   .     A
C554   O577    1.301   .     A
C555   O579    1.305   .     A
C555   O580    1.300   .     A
C555   C557    1.484   .     S
C556   C1221   1.402   1_554 S
C556   H1250   1.080   1_554 S
C558   C559    1.387   .     A
C558   H567    1.081   .     S
C559   C1244   1.387   .     S
C559   H1253   1.082   .     S
C560   H568    1.081   .     S
C560   C1218   1.413   1_554 S
C560   C1243   1.387   1_554 S
Cu561  O579    1.968   .     S
Cu561  O575    1.976   .     S
Cu561  O577    1.970   .     S
Cu561  Cu562   2.689   .     S
Cu561  N571    2.021   .     S
Cu561  O573    1.974   .     S
Cu562  O580    1.976   .     S
Cu562  O576    1.968   .     S
Cu562  N572    2.021   .     S
Cu562  O578    1.974   .     S
Cu562  O574    1.970   .     S
H566   C1240   1.080   .     S
H569   C1243   1.082   1_554 S
O581   C582    1.412   .     S
C582   H583    1.113   .     S
C582   H660    1.108   .     S
C582   H661    1.111   .     S
C586   N587    1.154   .     T
O588   C589    1.414   .     S
C589   H591    1.109   .     S
C589   H592    1.109   .     S
C589   H590    1.114   .     S
C593   N594    1.158   .     T
O595   C596    1.409   .     S
C596   H599    1.110   .     S
C596   H598    1.109   .     S
C596   H597    1.108   .     S
C600   N677    1.157   .     S
O602   C603    1.418   .     S
C603   H605    1.113   .     S
C603   H606    1.107   .     S
C603   H604    1.112   .     S
C607   N608    1.158   .     T
C609   O650    1.294   .     A
C609   O649    1.297   .     A
C609   C625    1.456   .     S
C610   C611    1.413   .     A
C610   C1296   1.417   .     S
C610   C1320   1.413   .     S
C611   C615    1.416   .     A
C611   C618    1.428   .     A
C612   C616    1.405   .     A
C612   C1294   1.417   1_554 S
C612   C1297   1.409   1_554 S
C613   C614    1.405   .     A
C613   C1296   1.409   .     S
C613   C1316   1.402   .     S
C614   C676    1.447   .     S
C614   C615    1.394   .     A
C615   H646    1.080   .     S
C616   C633    1.409   .     A
C616   O678    1.384   .     S
C617   C633    1.418   .     A
C617   O657    1.385   .     S
C617   C632    1.405   .     A
C618   C634    1.403   .     A
C618   C620    1.475   .     S
C619   C625    1.410   .     A
C619   C683    1.453   .     S
C619   C165    1.391   1_565 S
C620   O651    1.308   .     A
C620   O652    1.292   .     A
C621   C622    1.411   .     A
C621   C662    1.443   .     S
C622   C630    1.465   .     S
C622   C623    1.399   .     A
C623   H639    1.079   .     S
C624   C625    1.400   .     A
C624   H640    1.083   .     S
C624   C167    1.384   1_565 S
C626   N648    1.371   .     A
C626   O664    1.389   .     S
C626   C475    1.435   1_655 S
C627   N647    1.373   .     A
C627   C669    1.441   .     S
C628   N647    1.368   .     A
C628   O671    1.381   .     S
C629   H641    1.079   .     S
C629   N648    1.363   .     A
C629   C476    1.428   1_655 S
C630   O654    1.294   .     A
C630   O653    1.301   .     A
C631   O655    1.305   .     A
C631   O656    1.300   .     A
C631   C633    1.484   .     S
C632   C1297   1.402   1_554 S
C632   H1326   1.080   1_554 S
C634   C635    1.387   .     A
C634   H643    1.081   .     S
C635   C1320   1.387   .     S
C635   H1329   1.082   .     S
C636   H644    1.081   .     S
C636   C1294   1.413   1_554 S
C636   C1319   1.387   1_554 S
Cu637  O655    1.968   .     S
Cu637  O651    1.976   .     S
Cu637  O653    1.970   .     S
Cu637  Cu638   2.689   .     S
Cu637  N647    2.021   .     S
Cu637  O649    1.974   .     S
Cu638  O656    1.976   .     S
Cu638  O652    1.968   .     S
Cu638  N648    2.021   .     S
Cu638  O654    1.974   .     S
Cu638  O650    1.970   .     S
H642   C1316   1.080   .     S
H645   C1319   1.082   1_554 S
O657   C658    1.412   .     S
C658   H659    1.113   .     S
C658   H508    1.108   1_655 S
C658   H509    1.111   1_655 S
C662   N663    1.154   .     T
O664   C665    1.414   .     S
C665   H667    1.109   .     S
C665   H668    1.109   .     S
C665   H666    1.114   .     S
C669   N670    1.158   .     T
O671   C672    1.409   .     S
C672   H675    1.110   .     S
C672   H674    1.109   .     S
C672   H673    1.108   .     S
C676   N525    1.157   1_655 S
O678   C679    1.418   .     S
C679   H681    1.113   .     S
C679   H682    1.107   .     S
C679   H680    1.112   .     S
C683   N684    1.158   .     T
C685   O726    1.294   .     A
C685   O725    1.297   .     A
C685   C701    1.456   .     S
C686   C687    1.413   .     A
C686   C4      1.417   1_556 S
C686   C28     1.413   1_556 S
C687   C691    1.416   .     A
C687   C694    1.428   .     A
C688   C692    1.405   .     A
C689   C690    1.405   .     A
C689   C4      1.409   1_556 S
C689   C24     1.402   1_556 S
C690   C752    1.447   .     S
C690   C691    1.394   .     A
C691   H722    1.080   .     S
C692   C709    1.409   .     A
C692   O754    1.384   .     S
C693   C709    1.418   .     A
C693   O733    1.385   .     S
C693   C708    1.405   .     A
C694   C710    1.403   .     A
C694   C696    1.475   .     S
C695   C701    1.410   .     A
C695   C759    1.453   .     S
C695   C925    1.391   .     S
C696   O727    1.308   .     A
C696   O728    1.292   .     A
C697   C698    1.411   .     A
C697   C738    1.443   .     S
C697   C1151   1.391   1_545 S
C698   C706    1.465   .     S
C698   C699    1.399   .     A
C699   H715    1.079   .     S
C699   C1156   1.384   1_545 S
C700   C701    1.400   .     A
C700   H716    1.083   .     S
C700   C927    1.384   .     S
C702   N724    1.371   .     A
C702   O740    1.389   .     S
C702   C779    1.435   .     S
C703   N723    1.373   .     A
C703   C745    1.441   .     S
C703   C854    1.435   1_455 S
C704   N723    1.368   .     A
C704   O747    1.381   .     S
C704   C857    1.428   1_455 S
C705   H717    1.079   .     S
C705   N724    1.363   .     A
C705   C780    1.428   .     S
C706   O730    1.294   .     A
C706   O729    1.301   .     A
C707   O731    1.305   .     A
C707   O732    1.300   .     A
C707   C709    1.484   .     S
C710   C711    1.387   .     A
C710   H719    1.081   .     S
C711   C28     1.387   1_556 S
C711   H37     1.082   1_556 S
C712   H720    1.081   .     S
Cu713  O731    1.968   .     S
Cu713  O727    1.976   .     S
Cu713  O729    1.970   .     S
Cu713  Cu714   2.689   .     S
Cu713  N723    2.021   .     S
Cu713  O725    1.974   .     S
Cu714  O732    1.976   .     S
Cu714  O728    1.968   .     S
Cu714  N724    2.021   .     S
Cu714  O730    1.974   .     S
Cu714  O726    1.970   .     S
H718   C24     1.080   1_556 S
O733   C734    1.412   .     S
C734   H735    1.113   .     S
C734   H812    1.108   .     S
C734   H813    1.111   .     S
H736   C886    1.108   1_455 S
H737   C886    1.111   1_455 S
C738   N739    1.154   .     T
O740   C741    1.414   .     S
C741   H743    1.109   .     S
C741   H744    1.109   .     S
C741   H742    1.114   .     S
C745   N746    1.158   .     T
O747   C748    1.409   .     S
C748   H751    1.110   .     S
C748   H750    1.109   .     S
C748   H749    1.108   .     S
C752   N829    1.157   .     S
N753   C904    1.157   1_455 S
O754   C755    1.418   .     S
C755   H757    1.113   .     S
C755   H758    1.107   .     S
C755   H756    1.112   .     S
C759   N760    1.158   .     T
C761   O802    1.294   .     A
C761   O801    1.297   .     A
C761   C777    1.456   .     S
C762   C763    1.413   .     A
C762   C80     1.417   1_556 S
C762   C104    1.413   1_556 S
C763   C767    1.416   .     A
C763   C770    1.428   .     A
C764   C768    1.405   .     A
C765   C766    1.405   .     A
C765   C80     1.409   1_556 S
C765   C100    1.402   1_556 S
C766   C828    1.447   .     S
C766   C767    1.394   .     A
C767   H798    1.080   .     S
C768   C785    1.409   .     A
C768   O830    1.384   .     S
C769   C785    1.418   .     A
C769   O809    1.385   .     S
C769   C784    1.405   .     A
C770   C786    1.403   .     A
C770   C772    1.475   .     S
C771   C777    1.410   .     A
C771   C835    1.453   .     S
C771   C1001   1.391   .     S
C772   O803    1.308   .     A
C772   O804    1.292   .     A
C773   C774    1.411   .     A
C773   C814    1.443   .     S
C773   C1227   1.391   1_545 S
C774   C782    1.465   .     S
C774   C775    1.399   .     A
C775   H791    1.079   .     S
C775   C1232   1.384   1_545 S
C776   C777    1.400   .     A
C776   H792    1.083   .     S
C776   C1003   1.384   .     S
C778   N800    1.371   .     A
C778   O816    1.389   .     S
C778   C855    1.435   .     S
C779   N799    1.373   .     A
C779   C821    1.441   .     S
C780   N799    1.368   .     A
C780   O823    1.381   .     S
C781   H793    1.079   .     S
C781   N800    1.363   .     A
C781   C856    1.428   .     S
C782   O806    1.294   .     A
C782   O805    1.301   .     A
C783   O807    1.305   .     A
C783   O808    1.300   .     A
C783   C785    1.484   .     S
C786   C787    1.387   .     A
C786   H795    1.081   .     S
C787   C104    1.387   1_556 S
C787   H113    1.082   1_556 S
C788   H796    1.081   .     S
Cu789  O807    1.968   .     S
Cu789  O803    1.976   .     S
Cu789  O805    1.970   .     S
Cu789  Cu790   2.689   .     S
Cu789  N799    2.021   .     S
Cu789  O801    1.974   .     S
Cu790  O808    1.976   .     S
Cu790  O804    1.968   .     S
Cu790  N800    2.021   .     S
Cu790  O806    1.974   .     S
Cu790  O802    1.970   .     S
H794   C100    1.080   1_556 S
O809   C810    1.412   .     S
C810   H811    1.113   .     S
C810   H888    1.108   .     S
C810   H889    1.111   .     S
C814   N815    1.154   .     T
O816   C817    1.414   .     S
C817   H819    1.109   .     S
C817   H820    1.109   .     S
C817   H818    1.114   .     S
C821   N822    1.158   .     T
O823   C824    1.409   .     S
C824   H827    1.110   .     S
C824   H826    1.109   .     S
C824   H825    1.108   .     S
C828   N905    1.157   .     S
O830   C831    1.418   .     S
C831   H833    1.113   .     S
C831   H834    1.107   .     S
C831   H832    1.112   .     S
C835   N836    1.158   .     T
C837   O878    1.294   .     A
C837   O877    1.297   .     A
C837   C853    1.456   .     S
C838   C839    1.413   .     A
C838   C156    1.417   1_556 S
C838   C180    1.413   1_556 S
C839   C843    1.416   .     A
C839   C846    1.428   .     A
C840   C844    1.405   .     A
C841   C842    1.405   .     A
C841   C156    1.409   1_556 S
C841   C176    1.402   1_556 S
C842   C904    1.447   .     S
C842   C843    1.394   .     A
C843   H874    1.080   .     S
C844   C861    1.409   .     A
C844   O906    1.384   .     S
C845   C861    1.418   .     A
C845   O885    1.385   .     S
C845   C860    1.405   .     A
C846   C862    1.403   .     A
C846   C848    1.475   .     S
C847   C853    1.410   .     A
C847   C911    1.453   .     S
C847   C1077   1.391   .     S
C848   O879    1.308   .     A
C848   O880    1.292   .     A
C849   C850    1.411   .     A
C849   C890    1.443   .     S
C849   C1303   1.391   1_545 S
C850   C858    1.465   .     S
C850   C851    1.399   .     A
C851   H867    1.079   .     S
C851   C1308   1.384   1_545 S
C852   C853    1.400   .     A
C852   H868    1.083   .     S
C852   C1079   1.384   .     S
C854   N876    1.371   .     A
C854   O892    1.389   .     S
C854   C703    1.435   1_655 S
C855   N875    1.373   .     A
C855   C897    1.441   .     S
C856   N875    1.368   .     A
C856   O899    1.381   .     S
C857   H869    1.079   .     S
C857   N876    1.363   .     A
C857   C704    1.428   1_655 S
C858   O882    1.294   .     A
C858   O881    1.301   .     A
C859   O883    1.305   .     A
C859   O884    1.300   .     A
C859   C861    1.484   .     S
C862   C863    1.387   .     A
C862   H871    1.081   .     S
C863   C180    1.387   1_556 S
C863   H189    1.082   1_556 S
C864   H872    1.081   .     S
Cu865  O883    1.968   .     S
Cu865  O879    1.976   .     S
Cu865  O881    1.970   .     S
Cu865  Cu866   2.689   .     S
Cu865  N875    2.021   .     S
Cu865  O877    1.974   .     S
Cu866  O884    1.976   .     S
Cu866  O880    1.968   .     S
Cu866  N876    2.021   .     S
Cu866  O882    1.974   .     S
Cu866  O878    1.970   .     S
H870   C176    1.080   1_556 S
O885   C886    1.412   .     S
C886   H887    1.113   .     S
C886   H736    1.108   1_655 S
C886   H737    1.111   1_655 S
C890   N891    1.154   .     T
O892   C893    1.414   .     S
C893   H895    1.109   .     S
C893   H896    1.109   .     S
C893   H894    1.114   .     S
C897   N898    1.158   .     T
O899   C900    1.409   .     S
C900   H903    1.110   .     S
C900   H902    1.109   .     S
C900   H901    1.108   .     S
C904   N753    1.157   1_655 S
O906   C907    1.418   .     S
C907   H909    1.113   .     S
C907   H910    1.107   .     S
C907   H908    1.112   .     S
C911   N912    1.158   .     T
C913   O954    1.294   .     A
C913   O953    1.297   .     A
C913   C929    1.456   .     S
C914   C915    1.413   .     A
C914   C232    1.417   1_556 S
C914   C256    1.413   1_556 S
C915   C919    1.416   .     A
C915   C922    1.428   .     A
C916   C920    1.405   .     A
C917   C918    1.405   .     A
C917   C232    1.409   1_556 S
C917   C252    1.402   1_556 S
C918   C980    1.447   .     S
C918   C919    1.394   .     A
C919   H950    1.080   .     S
C920   C937    1.409   .     A
C920   O982    1.384   .     S
C921   C937    1.418   .     A
C921   O961    1.385   .     S
C921   C936    1.405   .     A
C922   C938    1.403   .     A
C922   C924    1.475   .     S
C923   C929    1.410   .     A
C923   C987    1.453   .     S
C923   C1153   1.391   .     S
C924   O955    1.308   .     A
C924   O956    1.292   .     A
C925   C926    1.411   .     A
C925   C966    1.443   .     S
C926   C934    1.465   .     S
C926   C927    1.399   .     A
C927   H943    1.079   .     S
C928   C929    1.400   .     A
C928   H944    1.083   .     S
C928   C1155   1.384   .     S
C930   N952    1.371   .     A
C930   O968    1.389   .     S
C930   C1007   1.435   .     S
C931   N951    1.373   .     A
C931   C973    1.441   .     S
C931   C1082   1.435   1_455 S
C932   N951    1.368   .     A
C932   O975    1.381   .     S
C932   C1085   1.428   1_455 S
C933   H945    1.079   .     S
C933   N952    1.363   .     A
C933   C1008   1.428   .     S
C934   O958    1.294   .     A
C934   O957    1.301   .     A
C935   O959    1.305   .     A
C935   O960    1.300   .     A
C935   C937    1.484   .     S
C938   C939    1.387   .     A
C938   H947    1.081   .     S
C939   C256    1.387   1_556 S
C939   H265    1.082   1_556 S
C940   H948    1.081   .     S
Cu941  O959    1.968   .     S
Cu941  O955    1.976   .     S
Cu941  O957    1.970   .     S
Cu941  Cu942   2.689   .     S
Cu941  N951    2.021   .     S
Cu941  O953    1.974   .     S
Cu942  O960    1.976   .     S
Cu942  O956    1.968   .     S
Cu942  N952    2.021   .     S
Cu942  O958    1.974   .     S
Cu942  O954    1.970   .     S
H946   C252    1.080   1_556 S
O961   C962    1.412   .     S
C962   H963    1.113   .     S
C962   H1040   1.108   .     S
C962   H1041   1.111   .     S
H964   C1114   1.108   1_455 S
H965   C1114   1.111   1_455 S
C966   N967    1.154   .     T
O968   C969    1.414   .     S
C969   H971    1.109   .     S
C969   H972    1.109   .     S
C969   H970    1.114   .     S
C973   N974    1.158   .     T
O975   C976    1.409   .     S
C976   H979    1.110   .     S
C976   H978    1.109   .     S
C976   H977    1.108   .     S
C980   N1057   1.157   .     S
N981   C1132   1.157   1_455 S
O982   C983    1.418   .     S
C983   H985    1.113   .     S
C983   H986    1.107   .     S
C983   H984    1.112   .     S
C987   N988    1.158   .     T
C989   O1030   1.294   .     A
C989   O1029   1.297   .     A
C989   C1005   1.456   .     S
C990   C991    1.413   .     A
C990   C308    1.417   1_556 S
C990   C332    1.413   1_556 S
C991   C995    1.416   .     A
C991   C998    1.428   .     A
C992   C996    1.405   .     A
C993   C994    1.405   .     A
C993   C308    1.409   1_556 S
C993   C328    1.402   1_556 S
C994   C1056   1.447   .     S
C994   C995    1.394   .     A
C995   H1026   1.080   .     S
C996   C1013   1.409   .     A
C996   O1058   1.384   .     S
C997   C1013   1.418   .     A
C997   O1037   1.385   .     S
C997   C1012   1.405   .     A
C998   C1014   1.403   .     A
C998   C1000   1.475   .     S
C999   C1005   1.410   .     A
C999   C1063   1.453   .     S
C999   C1229   1.391   .     S
C1000  O1031   1.308   .     A
C1000  O1032   1.292   .     A
C1001  C1002   1.411   .     A
C1001  C1042   1.443   .     S
C1002  C1010   1.465   .     S
C1002  C1003   1.399   .     A
C1003  H1019   1.079   .     S
C1004  C1005   1.400   .     A
C1004  H1020   1.083   .     S
C1004  C1231   1.384   .     S
C1006  N1028   1.371   .     A
C1006  O1044   1.389   .     S
C1006  C1083   1.435   .     S
C1007  N1027   1.373   .     A
C1007  C1049   1.441   .     S
C1008  N1027   1.368   .     A
C1008  O1051   1.381   .     S
C1009  H1021   1.079   .     S
C1009  N1028   1.363   .     A
C1009  C1084   1.428   .     S
C1010  O1034   1.294   .     A
C1010  O1033   1.301   .     A
C1011  O1035   1.305   .     A
C1011  O1036   1.300   .     A
C1011  C1013   1.484   .     S
C1014  C1015   1.387   .     A
C1014  H1023   1.081   .     S
C1015  C332    1.387   1_556 S
C1015  H341    1.082   1_556 S
C1016  H1024   1.081   .     S
Cu1017 O1035   1.968   .     S
Cu1017 O1031   1.976   .     S
Cu1017 O1033   1.970   .     S
Cu1017 Cu1018  2.689   .     S
Cu1017 N1027   2.021   .     S
Cu1017 O1029   1.974   .     S
Cu1018 O1036   1.976   .     S
Cu1018 O1032   1.968   .     S
Cu1018 N1028   2.021   .     S
Cu1018 O1034   1.974   .     S
Cu1018 O1030   1.970   .     S
H1022  C328    1.080   1_556 S
O1037  C1038   1.412   .     S
C1038  H1039   1.113   .     S
C1038  H1116   1.108   .     S
C1038  H1117   1.111   .     S
C1042  N1043   1.154   .     T
O1044  C1045   1.414   .     S
C1045  H1047   1.109   .     S
C1045  H1048   1.109   .     S
C1045  H1046   1.114   .     S
C1049  N1050   1.158   .     T
O1051  C1052   1.409   .     S
C1052  H1055   1.110   .     S
C1052  H1054   1.109   .     S
C1052  H1053   1.108   .     S
C1056  N1133   1.157   .     S
O1058  C1059   1.418   .     S
C1059  H1061   1.113   .     S
C1059  H1062   1.107   .     S
C1059  H1060   1.112   .     S
C1063  N1064   1.158   .     T
C1065  O1106   1.294   .     A
C1065  O1105   1.297   .     A
C1065  C1081   1.456   .     S
C1066  C1067   1.413   .     A
C1066  C384    1.417   1_556 S
C1066  C408    1.413   1_556 S
C1067  C1071   1.416   .     A
C1067  C1074   1.428   .     A
C1068  C1072   1.405   .     A
C1069  C1070   1.405   .     A
C1069  C384    1.409   1_556 S
C1069  C404    1.402   1_556 S
C1070  C1132   1.447   .     S
C1070  C1071   1.394   .     A
C1071  H1102   1.080   .     S
C1072  C1089   1.409   .     A
C1072  O1134   1.384   .     S
C1073  C1089   1.418   .     A
C1073  O1113   1.385   .     S
C1073  C1088   1.405   .     A
C1074  C1090   1.403   .     A
C1074  C1076   1.475   .     S
C1075  C1081   1.410   .     A
C1075  C1139   1.453   .     S
C1075  C1305   1.391   .     S
C1076  O1107   1.308   .     A
C1076  O1108   1.292   .     A
C1077  C1078   1.411   .     A
C1077  C1118   1.443   .     S
C1078  C1086   1.465   .     S
C1078  C1079   1.399   .     A
C1079  H1095   1.079   .     S
C1080  C1081   1.400   .     A
C1080  H1096   1.083   .     S
C1080  C1307   1.384   .     S
C1082  N1104   1.371   .     A
C1082  O1120   1.389   .     S
C1082  C931    1.435   1_655 S
C1083  N1103   1.373   .     A
C1083  C1125   1.441   .     S
C1084  N1103   1.368   .     A
C1084  O1127   1.381   .     S
C1085  H1097   1.079   .     S
C1085  N1104   1.363   .     A
C1085  C932    1.428   1_655 S
C1086  O1110   1.294   .     A
C1086  O1109   1.301   .     A
C1087  O1111   1.305   .     A
C1087  O1112   1.300   .     A
C1087  C1089   1.484   .     S
C1090  C1091   1.387   .     A
C1090  H1099   1.081   .     S
C1091  C408    1.387   1_556 S
C1091  H417    1.082   1_556 S
C1092  H1100   1.081   .     S
Cu1093 O1111   1.968   .     S
Cu1093 O1107   1.976   .     S
Cu1093 O1109   1.970   .     S
Cu1093 Cu1094  2.689   .     S
Cu1093 N1103   2.021   .     S
Cu1093 O1105   1.974   .     S
Cu1094 O1112   1.976   .     S
Cu1094 O1108   1.968   .     S
Cu1094 N1104   2.021   .     S
Cu1094 O1110   1.974   .     S
Cu1094 O1106   1.970   .     S
H1098  C404    1.080   1_556 S
O1113  C1114   1.412   .     S
C1114  H1115   1.113   .     S
C1114  H964    1.108   1_655 S
C1114  H965    1.111   1_655 S
C1118  N1119   1.154   .     T
O1120  C1121   1.414   .     S
C1121  H1123   1.109   .     S
C1121  H1124   1.109   .     S
C1121  H1122   1.114   .     S
C1125  N1126   1.158   .     T
O1127  C1128   1.409   .     S
C1128  H1131   1.110   .     S
C1128  H1130   1.109   .     S
C1128  H1129   1.108   .     S
C1132  N981    1.157   1_655 S
O1134  C1135   1.418   .     S
C1135  H1137   1.113   .     S
C1135  H1138   1.107   .     S
C1135  H1136   1.112   .     S
C1139  N1140   1.158   .     T
C1141  O1182   1.294   .     A
C1141  O1181   1.297   .     A
C1141  C1157   1.456   .     S
C1142  C1143   1.413   .     A
C1142  C460    1.417   1_556 S
C1142  C484    1.413   1_556 S
C1143  C1147   1.416   .     A
C1143  C1150   1.428   .     A
C1144  C1148   1.405   .     A
C1145  C1146   1.405   .     A
C1145  C460    1.409   1_556 S
C1145  C480    1.402   1_556 S
C1146  C1208   1.447   .     S
C1146  C1147   1.394   .     A
C1147  H1178   1.080   .     S
C1148  C1165   1.409   .     A
C1148  O1210   1.384   .     S
C1149  C1165   1.418   .     A
C1149  O1189   1.385   .     S
C1149  C1164   1.405   .     A
C1150  C1166   1.403   .     A
C1150  C1152   1.475   .     S
C1151  C1157   1.410   .     A
C1151  C1215   1.453   .     S
C1151  C697    1.391   1_565 S
C1152  O1183   1.308   .     A
C1152  O1184   1.292   .     A
C1153  C1154   1.411   .     A
C1153  C1194   1.443   .     S
C1154  C1162   1.465   .     S
C1154  C1155   1.399   .     A
C1155  H1171   1.079   .     S
C1156  C1157   1.400   .     A
C1156  H1172   1.083   .     S
C1156  C699    1.384   1_565 S
C1158  N1180   1.371   .     A
C1158  O1196   1.389   .     S
C1158  C1235   1.435   .     S
C1159  N1179   1.373   .     A
C1159  C1201   1.441   .     S
C1159  C1310   1.435   1_455 S
C1160  N1179   1.368   .     A
C1160  O1203   1.381   .     S
C1160  C1313   1.428   1_455 S
C1161  H1173   1.079   .     S
C1161  N1180   1.363   .     A
C1161  C1236   1.428   .     S
C1162  O1186   1.294   .     A
C1162  O1185   1.301   .     A
C1163  O1187   1.305   .     A
C1163  O1188   1.300   .     A
C1163  C1165   1.484   .     S
C1166  C1167   1.387   .     A
C1166  H1175   1.081   .     S
C1167  C484    1.387   1_556 S
C1167  H493    1.082   1_556 S
C1168  H1176   1.081   .     S
Cu1169 O1187   1.968   .     S
Cu1169 O1183   1.976   .     S
Cu1169 O1185   1.970   .     S
Cu1169 Cu1170  2.689   .     S
Cu1169 N1179   2.021   .     S
Cu1169 O1181   1.974   .     S
Cu1170 O1188   1.976   .     S
Cu1170 O1184   1.968   .     S
Cu1170 N1180   2.021   .     S
Cu1170 O1186   1.974   .     S
Cu1170 O1182   1.970   .     S
H1174  C480    1.080   1_556 S
O1189  C1190   1.412   .     S
C1190  H1191   1.113   .     S
C1190  H1268   1.108   .     S
C1190  H1269   1.111   .     S
H1192  C1342   1.108   1_455 S
H1193  C1342   1.111   1_455 S
C1194  N1195   1.154   .     T
O1196  C1197   1.414   .     S
C1197  H1199   1.109   .     S
C1197  H1200   1.109   .     S
C1197  H1198   1.114   .     S
C1201  N1202   1.158   .     T
O1203  C1204   1.409   .     S
C1204  H1207   1.110   .     S
C1204  H1206   1.109   .     S
C1204  H1205   1.108   .     S
C1208  N1285   1.157   .     S
N1209  C1360   1.157   1_455 S
O1210  C1211   1.418   .     S
C1211  H1213   1.113   .     S
C1211  H1214   1.107   .     S
C1211  H1212   1.112   .     S
C1215  N1216   1.158   .     T
C1217  O1258   1.294   .     A
C1217  O1257   1.297   .     A
C1217  C1233   1.456   .     S
C1218  C1219   1.413   .     A
C1218  C536    1.417   1_556 S
C1218  C560    1.413   1_556 S
C1219  C1223   1.416   .     A
C1219  C1226   1.428   .     A
C1220  C1224   1.405   .     A
C1221  C1222   1.405   .     A
C1221  C536    1.409   1_556 S
C1221  C556    1.402   1_556 S
C1222  C1284   1.447   .     S
C1222  C1223   1.394   .     A
C1223  H1254   1.080   .     S
C1224  C1241   1.409   .     A
C1224  O1286   1.384   .     S
C1225  C1241   1.418   .     A
C1225  O1265   1.385   .     S
C1225  C1240   1.405   .     A
C1226  C1242   1.403   .     A
C1226  C1228   1.475   .     S
C1227  C1233   1.410   .     A
C1227  C1291   1.453   .     S
C1227  C773    1.391   1_565 S
C1228  O1259   1.308   .     A
C1228  O1260   1.292   .     A
C1229  C1230   1.411   .     A
C1229  C1270   1.443   .     S
C1230  C1238   1.465   .     S
C1230  C1231   1.399   .     A
C1231  H1247   1.079   .     S
C1232  C1233   1.400   .     A
C1232  H1248   1.083   .     S
C1232  C775    1.384   1_565 S
C1234  N1256   1.371   .     A
C1234  O1272   1.389   .     S
C1234  C1311   1.435   .     S
C1235  N1255   1.373   .     A
C1235  C1277   1.441   .     S
C1236  N1255   1.368   .     A
C1236  O1279   1.381   .     S
C1237  H1249   1.079   .     S
C1237  N1256   1.363   .     A
C1237  C1312   1.428   .     S
C1238  O1262   1.294   .     A
C1238  O1261   1.301   .     A
C1239  O1263   1.305   .     A
C1239  O1264   1.300   .     A
C1239  C1241   1.484   .     S
C1242  C1243   1.387   .     A
C1242  H1251   1.081   .     S
C1243  C560    1.387   1_556 S
C1243  H569    1.082   1_556 S
C1244  H1252   1.081   .     S
Cu1245 O1263   1.968   .     S
Cu1245 O1259   1.976   .     S
Cu1245 O1261   1.970   .     S
Cu1245 Cu1246  2.689   .     S
Cu1245 N1255   2.021   .     S
Cu1245 O1257   1.974   .     S
Cu1246 O1264   1.976   .     S
Cu1246 O1260   1.968   .     S
Cu1246 N1256   2.021   .     S
Cu1246 O1262   1.974   .     S
Cu1246 O1258   1.970   .     S
H1250  C556    1.080   1_556 S
O1265  C1266   1.412   .     S
C1266  H1267   1.113   .     S
C1266  H1344   1.108   .     S
C1266  H1345   1.111   .     S
C1270  N1271   1.154   .     T
O1272  C1273   1.414   .     S
C1273  H1275   1.109   .     S
C1273  H1276   1.109   .     S
C1273  H1274   1.114   .     S
C1277  N1278   1.158   .     T
O1279  C1280   1.409   .     S
C1280  H1283   1.110   .     S
C1280  H1282   1.109   .     S
C1280  H1281   1.108   .     S
C1284  N1361   1.157   .     S
O1286  C1287   1.418   .     S
C1287  H1289   1.113   .     S
C1287  H1290   1.107   .     S
C1287  H1288   1.112   .     S
C1291  N1292   1.158   .     T
C1293  O1334   1.294   .     A
C1293  O1333   1.297   .     A
C1293  C1309   1.456   .     S
C1294  C1295   1.413   .     A
C1294  C612    1.417   1_556 S
C1294  C636    1.413   1_556 S
C1295  C1299   1.416   .     A
C1295  C1302   1.428   .     A
C1296  C1300   1.405   .     A
C1297  C1298   1.405   .     A
C1297  C612    1.409   1_556 S
C1297  C632    1.402   1_556 S
C1298  C1360   1.447   .     S
C1298  C1299   1.394   .     A
C1299  H1330   1.080   .     S
C1300  C1317   1.409   .     A
C1300  O1362   1.384   .     S
C1301  C1317   1.418   .     A
C1301  O1341   1.385   .     S
C1301  C1316   1.405   .     A
C1302  C1318   1.403   .     A
C1302  C1304   1.475   .     S
C1303  C1309   1.410   .     A
C1303  C1367   1.453   .     S
C1303  C849    1.391   1_565 S
C1304  O1335   1.308   .     A
C1304  O1336   1.292   .     A
C1305  C1306   1.411   .     A
C1305  C1346   1.443   .     S
C1306  C1314   1.465   .     S
C1306  C1307   1.399   .     A
C1307  H1323   1.079   .     S
C1308  C1309   1.400   .     A
C1308  H1324   1.083   .     S
C1308  C851    1.384   1_565 S
C1310  N1332   1.371   .     A
C1310  O1348   1.389   .     S
C1310  C1159   1.435   1_655 S
C1311  N1331   1.373   .     A
C1311  C1353   1.441   .     S
C1312  N1331   1.368   .     A
C1312  O1355   1.381   .     S
C1313  H1325   1.079   .     S
C1313  N1332   1.363   .     A
C1313  C1160   1.428   1_655 S
C1314  O1338   1.294   .     A
C1314  O1337   1.301   .     A
C1315  O1339   1.305   .     A
C1315  O1340   1.300   .     A
C1315  C1317   1.484   .     S
C1318  C1319   1.387   .     A
C1318  H1327   1.081   .     S
C1319  C636    1.387   1_556 S
C1319  H645    1.082   1_556 S
C1320  H1328   1.081   .     S
Cu1321 O1339   1.968   .     S
Cu1321 O1335   1.976   .     S
Cu1321 O1337   1.970   .     S
Cu1321 Cu1322  2.689   .     S
Cu1321 N1331   2.021   .     S
Cu1321 O1333   1.974   .     S
Cu1322 O1340   1.976   .     S
Cu1322 O1336   1.968   .     S
Cu1322 N1332   2.021   .     S
Cu1322 O1338   1.974   .     S
Cu1322 O1334   1.970   .     S
H1326  C632    1.080   1_556 S
O1341  C1342   1.412   .     S
C1342  H1343   1.113   .     S
C1342  H1192   1.108   1_655 S
C1342  H1193   1.111   1_655 S
C1346  N1347   1.154   .     T
O1348  C1349   1.414   .     S
C1349  H1351   1.109   .     S
C1349  H1352   1.109   .     S
C1349  H1350   1.114   .     S
C1353  N1354   1.158   .     T
O1355  C1356   1.409   .     S
C1356  H1359   1.110   .     S
C1356  H1358   1.109   .     S
C1356  H1357   1.108   .     S
C1360  N1209   1.157   1_655 S
O1362  C1363   1.418   .     S
C1363  H1365   1.113   .     S
C1363  H1366   1.107   .     S
C1363  H1364   1.112   .     S
C1367  N1368   1.158   .     T
