data_str_m2_o10_o17_pcu_sym.106
_audit_creation_date              2020-01-03
_audit_creation_method            'Materials Studio'
_symmetry_space_group_name_H-M    'P1'
_symmetry_Int_Tables_number       1
_symmetry_cell_setting            triclinic
loop_
_symmetry_equiv_pos_as_xyz
  x,y,z
_cell_length_a                    29.9157
_cell_length_b                    26.2797
_cell_length_c                    22.3385
_cell_angle_alpha                 102.7499
_cell_angle_beta                  94.1172
_cell_angle_gamma                 92.6463
loop_
_atom_site_label
_atom_site_type_symbol
_atom_site_fract_x
_atom_site_fract_y
_atom_site_fract_z
_atom_site_U_iso_or_equiv
_atom_site_adp_type
_atom_site_occupancy
O1     O     0.25325   0.09538   0.20659   0.00000  Uiso   1.00
O2     O     0.24674   0.23796   0.12674   0.00000  Uiso   1.00
O3     O     0.24480   0.08559   0.10279   0.00000  Uiso   1.00
O4     O     0.25520   0.24774   0.23055   0.00000  Uiso   1.00
C5     C     0.24887   0.06684   0.15134   0.00000  Uiso   1.00
C6     C     0.25113   0.26649   0.18200   0.00000  Uiso   1.00
O7     O     0.18935   0.17155   0.21857   0.00000  Uiso   1.00
O8     O     0.31064   0.16179   0.11476   0.00000  Uiso   1.00
O9     O     0.18090   0.16176   0.11477   0.00000  Uiso   1.00
O10    O     0.31910   0.17157   0.21857   0.00000  Uiso   1.00
C11    C     0.16455   0.16644   0.16746   0.00000  Uiso   1.00
C12    C     0.33545   0.16690   0.16587   0.00000  Uiso   1.00
Cu13   Cu    0.25500   0.17246   0.22813   0.00000  Uiso   1.00
Cu14   Cu    0.24499   0.16087   0.10521   0.00000  Uiso   1.00
C15    C     0.40981   0.21186   0.19406   0.00000  Uiso   1.00
C16    C     0.09019   0.12147   0.13927   0.00000  Uiso   1.00
C17    C     0.38352   0.16704   0.16438   0.00000  Uiso   1.00
C18    C     0.11648   0.16629   0.16896   0.00000  Uiso   1.00
C19    C     0.40296   0.12178   0.13568   0.00000  Uiso   1.00
C20    C     0.09704   0.21155   0.19766   0.00000  Uiso   1.00
C21    C     0.44978   0.12011   0.13803   0.00000  Uiso   1.00
C22    C     0.05022   0.21322   0.19530   0.00000  Uiso   1.00
C23    C     0.47654   0.16640   0.16637   0.00000  Uiso   1.00
C24    C     0.02346   0.16693   0.16697   0.00000  Uiso   1.00
C25    C     0.45633   0.21224   0.19426   0.00000  Uiso   1.00
C26    C     0.04367   0.12110   0.13907   0.00000  Uiso   1.00
C27    C     0.47056   0.07394   0.11208   0.00000  Uiso   1.00
C28    C     0.02944   0.25940   0.22126   0.00000  Uiso   1.00
C29    C     0.01733   0.07534   0.11196   0.00000  Uiso   1.00
C30    C     0.48267   0.25799   0.22138   0.00000  Uiso   1.00
H31    H     0.39384   0.24659   0.21606   0.00000  Uiso   1.00
H32    H     0.10615   0.08674   0.11727   0.00000  Uiso   1.00
H33    H     0.38115   0.08818   0.11236   0.00000  Uiso   1.00
H34    H     0.11885   0.24515   0.22097   0.00000  Uiso   1.00
H35    H     0.03331   0.04002   0.09212   0.00000  Uiso   1.00
H36    H     0.46669   0.29331   0.24121   0.00000  Uiso   1.00
C37    C     0.25168   0.01161   0.14276   0.00000  Uiso   1.00
C38    C     0.24832   0.32172   0.19057   0.00000  Uiso   1.00
N39    N     0.23744   0.15214   0.01284   0.00000  Uiso   1.00
N40    N     0.26255   0.18119   0.32049   0.00000  Uiso   1.00
H41    H     0.21416   0.12712   0.31639   0.00000  Uiso   1.00
H42    H     0.28584   0.20621   0.01694   0.00000  Uiso   1.00
N43    N     0.44513   0.02503   0.08772   0.00000  Uiso   1.00
O44    O     0.41640   0.00765   0.12073   0.00000  Uiso   1.00
O45    O     0.45690   0.32668   0.03875   0.00000  Uiso   1.00
N46    N     0.05487   0.30830   0.24561   0.00000  Uiso   1.00
O47    O     0.08360   0.32568   0.21260   0.00000  Uiso   1.00
O48    O     0.04310   0.00665   0.29459   0.00000  Uiso   1.00
N49    N     0.26098   0.31680   0.08263   0.00000  Uiso   1.00
O50    O     0.22838   0.30244   0.03950   0.00000  Uiso   1.00
O51    O     0.30237   0.31148   0.06922   0.00000  Uiso   1.00
N52    N     0.23901   0.01653   0.25071   0.00000  Uiso   1.00
O53    O     0.27161   0.03089   0.29384   0.00000  Uiso   1.00
O54    O     0.19763   0.02185   0.26411   0.00000  Uiso   1.00
O55    O     0.75325   0.09538   0.20659   0.00000  Uiso   1.00
O56    O     0.74674   0.23796   0.12674   0.00000  Uiso   1.00
O57    O     0.74480   0.08559   0.10279   0.00000  Uiso   1.00
O58    O     0.75520   0.24774   0.23055   0.00000  Uiso   1.00
C59    C     0.74887   0.06684   0.15134   0.00000  Uiso   1.00
C60    C     0.75113   0.26649   0.18200   0.00000  Uiso   1.00
O61    O     0.68935   0.17155   0.21857   0.00000  Uiso   1.00
O62    O     0.81064   0.16179   0.11476   0.00000  Uiso   1.00
O63    O     0.68090   0.16176   0.11477   0.00000  Uiso   1.00
O64    O     0.81910   0.17157   0.21857   0.00000  Uiso   1.00
C65    C     0.66455   0.16644   0.16746   0.00000  Uiso   1.00
C66    C     0.83545   0.16690   0.16587   0.00000  Uiso   1.00
Cu67   Cu    0.75500   0.17246   0.22813   0.00000  Uiso   1.00
Cu68   Cu    0.74499   0.16087   0.10521   0.00000  Uiso   1.00
C69    C     0.90981   0.21186   0.19406   0.00000  Uiso   1.00
C70    C     0.59019   0.12147   0.13927   0.00000  Uiso   1.00
C71    C     0.88352   0.16704   0.16438   0.00000  Uiso   1.00
C72    C     0.61648   0.16629   0.16896   0.00000  Uiso   1.00
C73    C     0.90296   0.12178   0.13568   0.00000  Uiso   1.00
C74    C     0.59704   0.21155   0.19766   0.00000  Uiso   1.00
C75    C     0.94978   0.12011   0.13803   0.00000  Uiso   1.00
C76    C     0.55022   0.21322   0.19530   0.00000  Uiso   1.00
C77    C     0.97654   0.16640   0.16637   0.00000  Uiso   1.00
C78    C     0.52346   0.16693   0.16697   0.00000  Uiso   1.00
C79    C     0.95633   0.21224   0.19426   0.00000  Uiso   1.00
C80    C     0.54367   0.12110   0.13907   0.00000  Uiso   1.00
C81    C     0.97056   0.07394   0.11208   0.00000  Uiso   1.00
C82    C     0.52944   0.25940   0.22126   0.00000  Uiso   1.00
C83    C     0.51733   0.07534   0.11196   0.00000  Uiso   1.00
C84    C     0.98267   0.25799   0.22138   0.00000  Uiso   1.00
H85    H     0.89384   0.24659   0.21606   0.00000  Uiso   1.00
H86    H     0.60615   0.08674   0.11727   0.00000  Uiso   1.00
H87    H     0.88115   0.08818   0.11236   0.00000  Uiso   1.00
H88    H     0.61885   0.24515   0.22097   0.00000  Uiso   1.00
H89    H     0.53331   0.04002   0.09212   0.00000  Uiso   1.00
H90    H     0.96669   0.29331   0.24121   0.00000  Uiso   1.00
C91    C     0.75168   0.01161   0.14276   0.00000  Uiso   1.00
C92    C     0.74832   0.32172   0.19057   0.00000  Uiso   1.00
N93    N     0.73744   0.15214   0.01284   0.00000  Uiso   1.00
N94    N     0.76255   0.18119   0.32049   0.00000  Uiso   1.00
H95    H     0.71416   0.12712   0.31639   0.00000  Uiso   1.00
H96    H     0.78584   0.20621   0.01694   0.00000  Uiso   1.00
N97    N     0.94513   0.02503   0.08772   0.00000  Uiso   1.00
O98    O     0.91640   0.00765   0.12073   0.00000  Uiso   1.00
O99    O     0.95690   0.32668   0.03875   0.00000  Uiso   1.00
N100   N     0.55487   0.30830   0.24561   0.00000  Uiso   1.00
O101   O     0.58360   0.32568   0.21260   0.00000  Uiso   1.00
O102   O     0.54310   0.00665   0.29459   0.00000  Uiso   1.00
N103   N     0.76098   0.31680   0.08263   0.00000  Uiso   1.00
O104   O     0.72838   0.30244   0.03950   0.00000  Uiso   1.00
O105   O     0.80237   0.31148   0.06922   0.00000  Uiso   1.00
N106   N     0.73901   0.01653   0.25071   0.00000  Uiso   1.00
O107   O     0.77161   0.03089   0.29384   0.00000  Uiso   1.00
O108   O     0.69763   0.02185   0.26411   0.00000  Uiso   1.00
O109   O     0.25325   0.42871   0.20659   0.00000  Uiso   1.00
O110   O     0.24674   0.57129   0.12674   0.00000  Uiso   1.00
O111   O     0.24480   0.41892   0.10279   0.00000  Uiso   1.00
O112   O     0.25520   0.58108   0.23055   0.00000  Uiso   1.00
C113   C     0.24887   0.40017   0.15134   0.00000  Uiso   1.00
C114   C     0.25113   0.59982   0.18200   0.00000  Uiso   1.00
O115   O     0.18935   0.50488   0.21857   0.00000  Uiso   1.00
O116   O     0.31064   0.49512   0.11476   0.00000  Uiso   1.00
O117   O     0.18090   0.49510   0.11477   0.00000  Uiso   1.00
O118   O     0.31910   0.50490   0.21857   0.00000  Uiso   1.00
C119   C     0.16455   0.49977   0.16746   0.00000  Uiso   1.00
C120   C     0.33545   0.50023   0.16587   0.00000  Uiso   1.00
Cu121  Cu    0.25500   0.50579   0.22813   0.00000  Uiso   1.00
Cu122  Cu    0.24499   0.49421   0.10521   0.00000  Uiso   1.00
C123   C     0.40981   0.54519   0.19406   0.00000  Uiso   1.00
C124   C     0.09019   0.45480   0.13927   0.00000  Uiso   1.00
C125   C     0.38352   0.50038   0.16438   0.00000  Uiso   1.00
C126   C     0.11648   0.49962   0.16896   0.00000  Uiso   1.00
C127   C     0.40296   0.45511   0.13568   0.00000  Uiso   1.00
C128   C     0.09704   0.54489   0.19766   0.00000  Uiso   1.00
C129   C     0.44978   0.45344   0.13803   0.00000  Uiso   1.00
C130   C     0.05022   0.54656   0.19530   0.00000  Uiso   1.00
C131   C     0.47654   0.49973   0.16637   0.00000  Uiso   1.00
C132   C     0.02346   0.50027   0.16697   0.00000  Uiso   1.00
C133   C     0.45633   0.54557   0.19426   0.00000  Uiso   1.00
C134   C     0.04367   0.45443   0.13907   0.00000  Uiso   1.00
C135   C     0.47056   0.40727   0.11208   0.00000  Uiso   1.00
C136   C     0.02944   0.59273   0.22126   0.00000  Uiso   1.00
C137   C     0.01733   0.40867   0.11196   0.00000  Uiso   1.00
C138   C     0.48267   0.59133   0.22138   0.00000  Uiso   1.00
H139   H     0.39384   0.57993   0.21606   0.00000  Uiso   1.00
H140   H     0.10615   0.42007   0.11727   0.00000  Uiso   1.00
H141   H     0.38115   0.42151   0.11236   0.00000  Uiso   1.00
H142   H     0.11885   0.57849   0.22097   0.00000  Uiso   1.00
H143   H     0.03331   0.37335   0.09212   0.00000  Uiso   1.00
H144   H     0.46669   0.62665   0.24121   0.00000  Uiso   1.00
C145   C     0.25168   0.34494   0.14276   0.00000  Uiso   1.00
C146   C     0.24832   0.65505   0.19057   0.00000  Uiso   1.00
N147   N     0.23744   0.48547   0.01284   0.00000  Uiso   1.00
N148   N     0.26255   0.51453   0.32049   0.00000  Uiso   1.00
H149   H     0.21416   0.46046   0.31639   0.00000  Uiso   1.00
H150   H     0.28584   0.53954   0.01694   0.00000  Uiso   1.00
N151   N     0.44513   0.35836   0.08772   0.00000  Uiso   1.00
O152   O     0.41640   0.34099   0.12073   0.00000  Uiso   1.00
O153   O     0.45690   0.66001   0.03875   0.00000  Uiso   1.00
N154   N     0.05487   0.64163   0.24561   0.00000  Uiso   1.00
O155   O     0.08360   0.65901   0.21260   0.00000  Uiso   1.00
O156   O     0.04310   0.33999   0.29459   0.00000  Uiso   1.00
N157   N     0.26098   0.65013   0.08263   0.00000  Uiso   1.00
O158   O     0.22838   0.63577   0.03950   0.00000  Uiso   1.00
O159   O     0.30237   0.64482   0.06922   0.00000  Uiso   1.00
N160   N     0.23901   0.34987   0.25071   0.00000  Uiso   1.00
O161   O     0.27161   0.36423   0.29384   0.00000  Uiso   1.00
O162   O     0.19763   0.35518   0.26411   0.00000  Uiso   1.00
O163   O     0.75325   0.42871   0.20659   0.00000  Uiso   1.00
O164   O     0.74674   0.57129   0.12674   0.00000  Uiso   1.00
O165   O     0.74480   0.41892   0.10279   0.00000  Uiso   1.00
O166   O     0.75520   0.58108   0.23055   0.00000  Uiso   1.00
C167   C     0.74887   0.40017   0.15134   0.00000  Uiso   1.00
C168   C     0.75113   0.59982   0.18200   0.00000  Uiso   1.00
O169   O     0.68935   0.50488   0.21857   0.00000  Uiso   1.00
O170   O     0.81064   0.49512   0.11476   0.00000  Uiso   1.00
O171   O     0.68090   0.49510   0.11477   0.00000  Uiso   1.00
O172   O     0.81910   0.50490   0.21857   0.00000  Uiso   1.00
C173   C     0.66455   0.49977   0.16746   0.00000  Uiso   1.00
C174   C     0.83545   0.50023   0.16587   0.00000  Uiso   1.00
Cu175  Cu    0.75500   0.50579   0.22813   0.00000  Uiso   1.00
Cu176  Cu    0.74499   0.49421   0.10521   0.00000  Uiso   1.00
C177   C     0.90981   0.54519   0.19406   0.00000  Uiso   1.00
C178   C     0.59019   0.45480   0.13927   0.00000  Uiso   1.00
C179   C     0.88352   0.50038   0.16438   0.00000  Uiso   1.00
C180   C     0.61648   0.49962   0.16896   0.00000  Uiso   1.00
C181   C     0.90296   0.45511   0.13568   0.00000  Uiso   1.00
C182   C     0.59704   0.54489   0.19766   0.00000  Uiso   1.00
C183   C     0.94978   0.45344   0.13803   0.00000  Uiso   1.00
C184   C     0.55022   0.54656   0.19530   0.00000  Uiso   1.00
C185   C     0.97654   0.49973   0.16637   0.00000  Uiso   1.00
C186   C     0.52346   0.50027   0.16697   0.00000  Uiso   1.00
C187   C     0.95633   0.54557   0.19426   0.00000  Uiso   1.00
C188   C     0.54367   0.45443   0.13907   0.00000  Uiso   1.00
C189   C     0.97056   0.40727   0.11208   0.00000  Uiso   1.00
C190   C     0.52944   0.59273   0.22126   0.00000  Uiso   1.00
C191   C     0.51733   0.40867   0.11196   0.00000  Uiso   1.00
C192   C     0.98267   0.59133   0.22138   0.00000  Uiso   1.00
H193   H     0.89384   0.57993   0.21606   0.00000  Uiso   1.00
H194   H     0.60615   0.42007   0.11727   0.00000  Uiso   1.00
H195   H     0.88115   0.42151   0.11236   0.00000  Uiso   1.00
H196   H     0.61885   0.57849   0.22097   0.00000  Uiso   1.00
H197   H     0.53331   0.37335   0.09212   0.00000  Uiso   1.00
H198   H     0.96669   0.62665   0.24121   0.00000  Uiso   1.00
C199   C     0.75168   0.34494   0.14276   0.00000  Uiso   1.00
C200   C     0.74832   0.65505   0.19057   0.00000  Uiso   1.00
N201   N     0.73744   0.48547   0.01284   0.00000  Uiso   1.00
N202   N     0.76255   0.51453   0.32049   0.00000  Uiso   1.00
H203   H     0.71416   0.46046   0.31639   0.00000  Uiso   1.00
H204   H     0.78584   0.53954   0.01694   0.00000  Uiso   1.00
N205   N     0.94513   0.35836   0.08772   0.00000  Uiso   1.00
O206   O     0.91640   0.34099   0.12073   0.00000  Uiso   1.00
O207   O     0.95690   0.66001   0.03875   0.00000  Uiso   1.00
N208   N     0.55487   0.64163   0.24561   0.00000  Uiso   1.00
O209   O     0.58360   0.65901   0.21260   0.00000  Uiso   1.00
O210   O     0.54310   0.33999   0.29459   0.00000  Uiso   1.00
N211   N     0.76098   0.65013   0.08263   0.00000  Uiso   1.00
O212   O     0.72838   0.63577   0.03950   0.00000  Uiso   1.00
O213   O     0.80237   0.64482   0.06922   0.00000  Uiso   1.00
N214   N     0.73901   0.34987   0.25071   0.00000  Uiso   1.00
O215   O     0.77161   0.36423   0.29384   0.00000  Uiso   1.00
O216   O     0.69763   0.35518   0.26411   0.00000  Uiso   1.00
O217   O     0.25325   0.76204   0.20659   0.00000  Uiso   1.00
O218   O     0.24674   0.90462   0.12674   0.00000  Uiso   1.00
O219   O     0.24480   0.75226   0.10279   0.00000  Uiso   1.00
O220   O     0.25520   0.91441   0.23055   0.00000  Uiso   1.00
C221   C     0.24887   0.73351   0.15134   0.00000  Uiso   1.00
C222   C     0.25113   0.93316   0.18200   0.00000  Uiso   1.00
O223   O     0.18935   0.83821   0.21857   0.00000  Uiso   1.00
O224   O     0.31064   0.82845   0.11476   0.00000  Uiso   1.00
O225   O     0.18090   0.82843   0.11477   0.00000  Uiso   1.00
O226   O     0.31910   0.83824   0.21857   0.00000  Uiso   1.00
C227   C     0.16455   0.83310   0.16746   0.00000  Uiso   1.00
C228   C     0.33545   0.83356   0.16587   0.00000  Uiso   1.00
Cu229  Cu    0.25500   0.83913   0.22813   0.00000  Uiso   1.00
Cu230  Cu    0.24499   0.82754   0.10521   0.00000  Uiso   1.00
C231   C     0.40981   0.87853   0.19406   0.00000  Uiso   1.00
C232   C     0.09019   0.78814   0.13927   0.00000  Uiso   1.00
C233   C     0.38352   0.83371   0.16438   0.00000  Uiso   1.00
C234   C     0.11648   0.83296   0.16896   0.00000  Uiso   1.00
C235   C     0.40296   0.78845   0.13568   0.00000  Uiso   1.00
C236   C     0.09704   0.87822   0.19766   0.00000  Uiso   1.00
C237   C     0.44978   0.78678   0.13803   0.00000  Uiso   1.00
C238   C     0.05022   0.87989   0.19530   0.00000  Uiso   1.00
C239   C     0.47654   0.83307   0.16637   0.00000  Uiso   1.00
C240   C     0.02346   0.83360   0.16697   0.00000  Uiso   1.00
C241   C     0.45633   0.87890   0.19426   0.00000  Uiso   1.00
C242   C     0.04367   0.78776   0.13907   0.00000  Uiso   1.00
C243   C     0.47056   0.74060   0.11208   0.00000  Uiso   1.00
C244   C     0.02944   0.92606   0.22126   0.00000  Uiso   1.00
C245   C     0.01733   0.74201   0.11196   0.00000  Uiso   1.00
C246   C     0.48267   0.92466   0.22138   0.00000  Uiso   1.00
H247   H     0.39384   0.91326   0.21606   0.00000  Uiso   1.00
H248   H     0.10615   0.75341   0.11727   0.00000  Uiso   1.00
H249   H     0.38115   0.75485   0.11236   0.00000  Uiso   1.00
H250   H     0.11885   0.91182   0.22097   0.00000  Uiso   1.00
H251   H     0.03331   0.70669   0.09212   0.00000  Uiso   1.00
H252   H     0.46669   0.95998   0.24121   0.00000  Uiso   1.00
C253   C     0.25168   0.67828   0.14276   0.00000  Uiso   1.00
C254   C     0.24832   0.98839   0.19057   0.00000  Uiso   1.00
N255   N     0.23744   0.81881   0.01284   0.00000  Uiso   1.00
N256   N     0.26255   0.84786   0.32049   0.00000  Uiso   1.00
H257   H     0.21416   0.79379   0.31639   0.00000  Uiso   1.00
H258   H     0.28584   0.87288   0.01694   0.00000  Uiso   1.00
N259   N     0.44513   0.69170   0.08772   0.00000  Uiso   1.00
O260   O     0.41640   0.67432   0.12073   0.00000  Uiso   1.00
O261   O     0.45690   0.99335   0.03875   0.00000  Uiso   1.00
N262   N     0.05487   0.97497   0.24561   0.00000  Uiso   1.00
O263   O     0.08360   0.99235   0.21260   0.00000  Uiso   1.00
O264   O     0.04310   0.67332   0.29459   0.00000  Uiso   1.00
N265   N     0.26098   0.98346   0.08263   0.00000  Uiso   1.00
O266   O     0.22838   0.96910   0.03950   0.00000  Uiso   1.00
O267   O     0.30237   0.97815   0.06922   0.00000  Uiso   1.00
N268   N     0.23901   0.68320   0.25071   0.00000  Uiso   1.00
O269   O     0.27161   0.69756   0.29384   0.00000  Uiso   1.00
O270   O     0.19763   0.68852   0.26411   0.00000  Uiso   1.00
O271   O     0.75325   0.76204   0.20659   0.00000  Uiso   1.00
O272   O     0.74674   0.90462   0.12674   0.00000  Uiso   1.00
O273   O     0.74480   0.75226   0.10279   0.00000  Uiso   1.00
O274   O     0.75520   0.91441   0.23055   0.00000  Uiso   1.00
C275   C     0.74887   0.73351   0.15134   0.00000  Uiso   1.00
C276   C     0.75113   0.93316   0.18200   0.00000  Uiso   1.00
O277   O     0.68935   0.83821   0.21857   0.00000  Uiso   1.00
O278   O     0.81064   0.82845   0.11476   0.00000  Uiso   1.00
O279   O     0.68090   0.82843   0.11477   0.00000  Uiso   1.00
O280   O     0.81910   0.83824   0.21857   0.00000  Uiso   1.00
C281   C     0.66455   0.83310   0.16746   0.00000  Uiso   1.00
C282   C     0.83545   0.83356   0.16587   0.00000  Uiso   1.00
Cu283  Cu    0.75500   0.83913   0.22813   0.00000  Uiso   1.00
Cu284  Cu    0.74499   0.82754   0.10521   0.00000  Uiso   1.00
C285   C     0.90981   0.87853   0.19406   0.00000  Uiso   1.00
C286   C     0.59019   0.78814   0.13927   0.00000  Uiso   1.00
C287   C     0.88352   0.83371   0.16438   0.00000  Uiso   1.00
C288   C     0.61648   0.83296   0.16896   0.00000  Uiso   1.00
C289   C     0.90296   0.78845   0.13568   0.00000  Uiso   1.00
C290   C     0.59704   0.87822   0.19766   0.00000  Uiso   1.00
C291   C     0.94978   0.78678   0.13803   0.00000  Uiso   1.00
C292   C     0.55022   0.87989   0.19530   0.00000  Uiso   1.00
C293   C     0.97654   0.83307   0.16637   0.00000  Uiso   1.00
C294   C     0.52346   0.83360   0.16697   0.00000  Uiso   1.00
C295   C     0.95633   0.87890   0.19426   0.00000  Uiso   1.00
C296   C     0.54367   0.78776   0.13907   0.00000  Uiso   1.00
C297   C     0.97056   0.74060   0.11208   0.00000  Uiso   1.00
C298   C     0.52944   0.92606   0.22126   0.00000  Uiso   1.00
C299   C     0.51733   0.74201   0.11196   0.00000  Uiso   1.00
C300   C     0.98267   0.92466   0.22138   0.00000  Uiso   1.00
H301   H     0.89384   0.91326   0.21606   0.00000  Uiso   1.00
H302   H     0.60615   0.75341   0.11727   0.00000  Uiso   1.00
H303   H     0.88115   0.75485   0.11236   0.00000  Uiso   1.00
H304   H     0.61885   0.91182   0.22097   0.00000  Uiso   1.00
H305   H     0.53331   0.70669   0.09212   0.00000  Uiso   1.00
H306   H     0.96669   0.95998   0.24121   0.00000  Uiso   1.00
C307   C     0.75168   0.67828   0.14276   0.00000  Uiso   1.00
C308   C     0.74832   0.98839   0.19057   0.00000  Uiso   1.00
N309   N     0.73744   0.81881   0.01284   0.00000  Uiso   1.00
N310   N     0.76255   0.84786   0.32049   0.00000  Uiso   1.00
H311   H     0.71416   0.79379   0.31639   0.00000  Uiso   1.00
H312   H     0.78584   0.87288   0.01694   0.00000  Uiso   1.00
N313   N     0.94513   0.69170   0.08772   0.00000  Uiso   1.00
O314   O     0.91640   0.67432   0.12073   0.00000  Uiso   1.00
O315   O     0.95690   0.99335   0.03875   0.00000  Uiso   1.00
N316   N     0.55487   0.97497   0.24561   0.00000  Uiso   1.00
O317   O     0.58360   0.99235   0.21260   0.00000  Uiso   1.00
O318   O     0.54310   0.67332   0.29459   0.00000  Uiso   1.00
N319   N     0.76098   0.98346   0.08263   0.00000  Uiso   1.00
O320   O     0.72838   0.96910   0.03950   0.00000  Uiso   1.00
O321   O     0.80237   0.97815   0.06922   0.00000  Uiso   1.00
N322   N     0.73901   0.68320   0.25071   0.00000  Uiso   1.00
O323   O     0.77161   0.69756   0.29384   0.00000  Uiso   1.00
O324   O     0.69763   0.68852   0.26411   0.00000  Uiso   1.00
O325   O     0.25325   0.09538   0.53992   0.00000  Uiso   1.00
O326   O     0.24674   0.23796   0.46008   0.00000  Uiso   1.00
O327   O     0.24480   0.08559   0.43612   0.00000  Uiso   1.00
O328   O     0.25520   0.24774   0.56388   0.00000  Uiso   1.00
C329   C     0.24887   0.06684   0.48467   0.00000  Uiso   1.00
C330   C     0.25113   0.26649   0.51533   0.00000  Uiso   1.00
O331   O     0.18935   0.17155   0.55191   0.00000  Uiso   1.00
O332   O     0.31064   0.16179   0.44809   0.00000  Uiso   1.00
O333   O     0.18090   0.16176   0.44810   0.00000  Uiso   1.00
O334   O     0.31910   0.17157   0.55190   0.00000  Uiso   1.00
C335   C     0.16455   0.16644   0.50080   0.00000  Uiso   1.00
C336   C     0.33545   0.16690   0.49920   0.00000  Uiso   1.00
Cu337  Cu    0.25500   0.17246   0.56146   0.00000  Uiso   1.00
Cu338  Cu    0.24499   0.16087   0.43854   0.00000  Uiso   1.00
C339   C     0.40981   0.21186   0.52740   0.00000  Uiso   1.00
C340   C     0.09019   0.12147   0.47260   0.00000  Uiso   1.00
C341   C     0.38352   0.16704   0.49771   0.00000  Uiso   1.00
C342   C     0.11648   0.16629   0.50229   0.00000  Uiso   1.00
C343   C     0.40296   0.12178   0.46901   0.00000  Uiso   1.00
C344   C     0.09704   0.21155   0.53099   0.00000  Uiso   1.00
C345   C     0.44978   0.12011   0.47136   0.00000  Uiso   1.00
C346   C     0.05022   0.21322   0.52864   0.00000  Uiso   1.00
C347   C     0.47654   0.16640   0.49970   0.00000  Uiso   1.00
C348   C     0.02346   0.16693   0.50030   0.00000  Uiso   1.00
C349   C     0.45633   0.21224   0.52759   0.00000  Uiso   1.00
C350   C     0.04367   0.12110   0.47241   0.00000  Uiso   1.00
C351   C     0.47056   0.07394   0.44541   0.00000  Uiso   1.00
C352   C     0.02944   0.25940   0.55459   0.00000  Uiso   1.00
C353   C     0.01733   0.07534   0.44529   0.00000  Uiso   1.00
C354   C     0.48267   0.25799   0.55471   0.00000  Uiso   1.00
H355   H     0.39384   0.24659   0.54940   0.00000  Uiso   1.00
H356   H     0.10615   0.08674   0.45060   0.00000  Uiso   1.00
H357   H     0.38115   0.08818   0.44569   0.00000  Uiso   1.00
H358   H     0.11885   0.24515   0.55431   0.00000  Uiso   1.00
H359   H     0.03331   0.04002   0.42546   0.00000  Uiso   1.00
H360   H     0.46669   0.29331   0.57454   0.00000  Uiso   1.00
C361   C     0.25168   0.01161   0.47609   0.00000  Uiso   1.00
C362   C     0.24832   0.32172   0.52391   0.00000  Uiso   1.00
N363   N     0.23744   0.15214   0.34617   0.00000  Uiso   1.00
N364   N     0.26255   0.18119   0.65383   0.00000  Uiso   1.00
H365   H     0.21416   0.12712   0.64973   0.00000  Uiso   1.00
H366   H     0.28584   0.20621   0.35027   0.00000  Uiso   1.00
N367   N     0.44513   0.02503   0.42106   0.00000  Uiso   1.00
O368   O     0.41640   0.00765   0.45406   0.00000  Uiso   1.00
O369   O     0.45690   0.32668   0.37208   0.00000  Uiso   1.00
N370   N     0.05487   0.30830   0.57894   0.00000  Uiso   1.00
O371   O     0.08360   0.32568   0.54594   0.00000  Uiso   1.00
O372   O     0.04310   0.00665   0.62792   0.00000  Uiso   1.00
N373   N     0.26098   0.31680   0.41596   0.00000  Uiso   1.00
O374   O     0.22838   0.30244   0.37283   0.00000  Uiso   1.00
O375   O     0.30237   0.31148   0.40255   0.00000  Uiso   1.00
N376   N     0.23901   0.01653   0.58404   0.00000  Uiso   1.00
O377   O     0.27161   0.03089   0.62717   0.00000  Uiso   1.00
O378   O     0.19763   0.02185   0.59744   0.00000  Uiso   1.00
O379   O     0.75325   0.09538   0.53992   0.00000  Uiso   1.00
O380   O     0.74674   0.23796   0.46008   0.00000  Uiso   1.00
O381   O     0.74480   0.08559   0.43612   0.00000  Uiso   1.00
O382   O     0.75520   0.24774   0.56388   0.00000  Uiso   1.00
C383   C     0.74887   0.06684   0.48467   0.00000  Uiso   1.00
C384   C     0.75113   0.26649   0.51533   0.00000  Uiso   1.00
O385   O     0.68935   0.17155   0.55191   0.00000  Uiso   1.00
O386   O     0.81064   0.16179   0.44809   0.00000  Uiso   1.00
O387   O     0.68090   0.16176   0.44810   0.00000  Uiso   1.00
O388   O     0.81910   0.17157   0.55190   0.00000  Uiso   1.00
C389   C     0.66455   0.16644   0.50080   0.00000  Uiso   1.00
C390   C     0.83545   0.16690   0.49920   0.00000  Uiso   1.00
Cu391  Cu    0.75500   0.17246   0.56146   0.00000  Uiso   1.00
Cu392  Cu    0.74499   0.16087   0.43854   0.00000  Uiso   1.00
C393   C     0.90981   0.21186   0.52740   0.00000  Uiso   1.00
C394   C     0.59019   0.12147   0.47260   0.00000  Uiso   1.00
C395   C     0.88352   0.16704   0.49771   0.00000  Uiso   1.00
C396   C     0.61648   0.16629   0.50229   0.00000  Uiso   1.00
C397   C     0.90296   0.12178   0.46901   0.00000  Uiso   1.00
C398   C     0.59704   0.21155   0.53099   0.00000  Uiso   1.00
C399   C     0.94978   0.12011   0.47136   0.00000  Uiso   1.00
C400   C     0.55022   0.21322   0.52864   0.00000  Uiso   1.00
C401   C     0.97654   0.16640   0.49970   0.00000  Uiso   1.00
C402   C     0.52346   0.16693   0.50030   0.00000  Uiso   1.00
C403   C     0.95633   0.21224   0.52759   0.00000  Uiso   1.00
C404   C     0.54367   0.12110   0.47241   0.00000  Uiso   1.00
C405   C     0.97056   0.07394   0.44541   0.00000  Uiso   1.00
C406   C     0.52944   0.25940   0.55459   0.00000  Uiso   1.00
C407   C     0.51733   0.07534   0.44529   0.00000  Uiso   1.00
C408   C     0.98267   0.25799   0.55471   0.00000  Uiso   1.00
H409   H     0.89384   0.24659   0.54940   0.00000  Uiso   1.00
H410   H     0.60615   0.08674   0.45060   0.00000  Uiso   1.00
H411   H     0.88115   0.08818   0.44569   0.00000  Uiso   1.00
H412   H     0.61885   0.24515   0.55431   0.00000  Uiso   1.00
H413   H     0.53331   0.04002   0.42546   0.00000  Uiso   1.00
H414   H     0.96669   0.29331   0.57454   0.00000  Uiso   1.00
C415   C     0.75168   0.01161   0.47609   0.00000  Uiso   1.00
C416   C     0.74832   0.32172   0.52391   0.00000  Uiso   1.00
N417   N     0.73744   0.15214   0.34617   0.00000  Uiso   1.00
N418   N     0.76255   0.18119   0.65383   0.00000  Uiso   1.00
H419   H     0.71416   0.12712   0.64973   0.00000  Uiso   1.00
H420   H     0.78584   0.20621   0.35027   0.00000  Uiso   1.00
N421   N     0.94513   0.02503   0.42106   0.00000  Uiso   1.00
O422   O     0.91640   0.00765   0.45406   0.00000  Uiso   1.00
O423   O     0.95690   0.32668   0.37208   0.00000  Uiso   1.00
N424   N     0.55487   0.30830   0.57894   0.00000  Uiso   1.00
O425   O     0.58360   0.32568   0.54594   0.00000  Uiso   1.00
O426   O     0.54310   0.00665   0.62792   0.00000  Uiso   1.00
N427   N     0.76098   0.31680   0.41596   0.00000  Uiso   1.00
O428   O     0.72838   0.30244   0.37283   0.00000  Uiso   1.00
O429   O     0.80237   0.31148   0.40255   0.00000  Uiso   1.00
N430   N     0.73901   0.01653   0.58404   0.00000  Uiso   1.00
O431   O     0.77161   0.03089   0.62717   0.00000  Uiso   1.00
O432   O     0.69763   0.02185   0.59744   0.00000  Uiso   1.00
O433   O     0.25325   0.42871   0.53992   0.00000  Uiso   1.00
O434   O     0.24674   0.57129   0.46008   0.00000  Uiso   1.00
O435   O     0.24480   0.41892   0.43612   0.00000  Uiso   1.00
O436   O     0.25520   0.58108   0.56388   0.00000  Uiso   1.00
C437   C     0.24887   0.40017   0.48467   0.00000  Uiso   1.00
C438   C     0.25113   0.59982   0.51533   0.00000  Uiso   1.00
O439   O     0.18935   0.50488   0.55191   0.00000  Uiso   1.00
O440   O     0.31064   0.49512   0.44809   0.00000  Uiso   1.00
O441   O     0.18090   0.49510   0.44810   0.00000  Uiso   1.00
O442   O     0.31910   0.50490   0.55190   0.00000  Uiso   1.00
C443   C     0.16455   0.49977   0.50080   0.00000  Uiso   1.00
C444   C     0.33545   0.50023   0.49920   0.00000  Uiso   1.00
Cu445  Cu    0.25500   0.50579   0.56146   0.00000  Uiso   1.00
Cu446  Cu    0.24499   0.49421   0.43854   0.00000  Uiso   1.00
C447   C     0.40981   0.54519   0.52740   0.00000  Uiso   1.00
C448   C     0.09019   0.45480   0.47260   0.00000  Uiso   1.00
C449   C     0.38352   0.50038   0.49771   0.00000  Uiso   1.00
C450   C     0.11648   0.49962   0.50229   0.00000  Uiso   1.00
C451   C     0.40296   0.45511   0.46901   0.00000  Uiso   1.00
C452   C     0.09704   0.54489   0.53099   0.00000  Uiso   1.00
C453   C     0.44978   0.45344   0.47136   0.00000  Uiso   1.00
C454   C     0.05022   0.54656   0.52864   0.00000  Uiso   1.00
C455   C     0.47654   0.49973   0.49970   0.00000  Uiso   1.00
C456   C     0.02346   0.50027   0.50030   0.00000  Uiso   1.00
C457   C     0.45633   0.54557   0.52759   0.00000  Uiso   1.00
C458   C     0.04367   0.45443   0.47241   0.00000  Uiso   1.00
C459   C     0.47056   0.40727   0.44541   0.00000  Uiso   1.00
C460   C     0.02944   0.59273   0.55459   0.00000  Uiso   1.00
C461   C     0.01733   0.40867   0.44529   0.00000  Uiso   1.00
C462   C     0.48267   0.59133   0.55471   0.00000  Uiso   1.00
H463   H     0.39384   0.57993   0.54940   0.00000  Uiso   1.00
H464   H     0.10615   0.42007   0.45060   0.00000  Uiso   1.00
H465   H     0.38115   0.42151   0.44569   0.00000  Uiso   1.00
H466   H     0.11885   0.57849   0.55431   0.00000  Uiso   1.00
H467   H     0.03331   0.37335   0.42546   0.00000  Uiso   1.00
H468   H     0.46669   0.62665   0.57454   0.00000  Uiso   1.00
C469   C     0.25168   0.34494   0.47609   0.00000  Uiso   1.00
C470   C     0.24832   0.65505   0.52391   0.00000  Uiso   1.00
N471   N     0.23744   0.48547   0.34617   0.00000  Uiso   1.00
N472   N     0.26255   0.51453   0.65383   0.00000  Uiso   1.00
H473   H     0.21416   0.46046   0.64973   0.00000  Uiso   1.00
H474   H     0.28584   0.53954   0.35027   0.00000  Uiso   1.00
N475   N     0.44513   0.35836   0.42106   0.00000  Uiso   1.00
O476   O     0.41640   0.34099   0.45406   0.00000  Uiso   1.00
O477   O     0.45690   0.66001   0.37208   0.00000  Uiso   1.00
N478   N     0.05487   0.64163   0.57894   0.00000  Uiso   1.00
O479   O     0.08360   0.65901   0.54594   0.00000  Uiso   1.00
O480   O     0.04310   0.33999   0.62792   0.00000  Uiso   1.00
N481   N     0.26098   0.65013   0.41596   0.00000  Uiso   1.00
O482   O     0.22838   0.63577   0.37283   0.00000  Uiso   1.00
O483   O     0.30237   0.64482   0.40255   0.00000  Uiso   1.00
N484   N     0.23901   0.34987   0.58404   0.00000  Uiso   1.00
O485   O     0.27161   0.36423   0.62717   0.00000  Uiso   1.00
O486   O     0.19763   0.35518   0.59744   0.00000  Uiso   1.00
O487   O     0.75325   0.42871   0.53992   0.00000  Uiso   1.00
O488   O     0.74674   0.57129   0.46008   0.00000  Uiso   1.00
O489   O     0.74480   0.41892   0.43612   0.00000  Uiso   1.00
O490   O     0.75520   0.58108   0.56388   0.00000  Uiso   1.00
C491   C     0.74887   0.40017   0.48467   0.00000  Uiso   1.00
C492   C     0.75113   0.59982   0.51533   0.00000  Uiso   1.00
O493   O     0.68935   0.50488   0.55191   0.00000  Uiso   1.00
O494   O     0.81064   0.49512   0.44809   0.00000  Uiso   1.00
O495   O     0.68090   0.49510   0.44810   0.00000  Uiso   1.00
O496   O     0.81910   0.50490   0.55190   0.00000  Uiso   1.00
C497   C     0.66455   0.49977   0.50080   0.00000  Uiso   1.00
C498   C     0.83545   0.50023   0.49920   0.00000  Uiso   1.00
Cu499  Cu    0.75500   0.50579   0.56146   0.00000  Uiso   1.00
Cu500  Cu    0.74499   0.49421   0.43854   0.00000  Uiso   1.00
C501   C     0.90981   0.54519   0.52740   0.00000  Uiso   1.00
C502   C     0.59019   0.45480   0.47260   0.00000  Uiso   1.00
C503   C     0.88352   0.50038   0.49771   0.00000  Uiso   1.00
C504   C     0.61648   0.49962   0.50229   0.00000  Uiso   1.00
C505   C     0.90296   0.45511   0.46901   0.00000  Uiso   1.00
C506   C     0.59704   0.54489   0.53099   0.00000  Uiso   1.00
C507   C     0.94978   0.45344   0.47136   0.00000  Uiso   1.00
C508   C     0.55022   0.54656   0.52864   0.00000  Uiso   1.00
C509   C     0.97654   0.49973   0.49970   0.00000  Uiso   1.00
C510   C     0.52346   0.50027   0.50030   0.00000  Uiso   1.00
C511   C     0.95633   0.54557   0.52759   0.00000  Uiso   1.00
C512   C     0.54367   0.45443   0.47241   0.00000  Uiso   1.00
C513   C     0.97056   0.40727   0.44541   0.00000  Uiso   1.00
C514   C     0.52944   0.59273   0.55459   0.00000  Uiso   1.00
C515   C     0.51733   0.40867   0.44529   0.00000  Uiso   1.00
C516   C     0.98267   0.59133   0.55471   0.00000  Uiso   1.00
H517   H     0.89384   0.57993   0.54940   0.00000  Uiso   1.00
H518   H     0.60615   0.42007   0.45060   0.00000  Uiso   1.00
H519   H     0.88115   0.42151   0.44569   0.00000  Uiso   1.00
H520   H     0.61885   0.57849   0.55431   0.00000  Uiso   1.00
H521   H     0.53331   0.37335   0.42546   0.00000  Uiso   1.00
H522   H     0.96669   0.62665   0.57454   0.00000  Uiso   1.00
C523   C     0.75168   0.34494   0.47609   0.00000  Uiso   1.00
C524   C     0.74832   0.65505   0.52391   0.00000  Uiso   1.00
N525   N     0.73744   0.48547   0.34617   0.00000  Uiso   1.00
N526   N     0.76255   0.51453   0.65383   0.00000  Uiso   1.00
H527   H     0.71416   0.46046   0.64973   0.00000  Uiso   1.00
H528   H     0.78584   0.53954   0.35027   0.00000  Uiso   1.00
N529   N     0.94513   0.35836   0.42106   0.00000  Uiso   1.00
O530   O     0.91640   0.34099   0.45406   0.00000  Uiso   1.00
O531   O     0.95690   0.66001   0.37208   0.00000  Uiso   1.00
N532   N     0.55487   0.64163   0.57894   0.00000  Uiso   1.00
O533   O     0.58360   0.65901   0.54594   0.00000  Uiso   1.00
O534   O     0.54310   0.33999   0.62792   0.00000  Uiso   1.00
N535   N     0.76098   0.65013   0.41596   0.00000  Uiso   1.00
O536   O     0.72838   0.63577   0.37283   0.00000  Uiso   1.00
O537   O     0.80237   0.64482   0.40255   0.00000  Uiso   1.00
N538   N     0.73901   0.34987   0.58404   0.00000  Uiso   1.00
O539   O     0.77161   0.36423   0.62717   0.00000  Uiso   1.00
O540   O     0.69763   0.35518   0.59744   0.00000  Uiso   1.00
O541   O     0.25325   0.76204   0.53992   0.00000  Uiso   1.00
O542   O     0.24674   0.90462   0.46008   0.00000  Uiso   1.00
O543   O     0.24480   0.75226   0.43612   0.00000  Uiso   1.00
O544   O     0.25520   0.91441   0.56388   0.00000  Uiso   1.00
C545   C     0.24887   0.73351   0.48467   0.00000  Uiso   1.00
C546   C     0.25113   0.93316   0.51533   0.00000  Uiso   1.00
O547   O     0.18935   0.83821   0.55191   0.00000  Uiso   1.00
O548   O     0.31064   0.82845   0.44809   0.00000  Uiso   1.00
O549   O     0.18090   0.82843   0.44810   0.00000  Uiso   1.00
O550   O     0.31910   0.83824   0.55190   0.00000  Uiso   1.00
C551   C     0.16455   0.83310   0.50080   0.00000  Uiso   1.00
C552   C     0.33545   0.83356   0.49920   0.00000  Uiso   1.00
Cu553  Cu    0.25500   0.83913   0.56146   0.00000  Uiso   1.00
Cu554  Cu    0.24499   0.82754   0.43854   0.00000  Uiso   1.00
C555   C     0.40981   0.87853   0.52740   0.00000  Uiso   1.00
C556   C     0.09019   0.78814   0.47260   0.00000  Uiso   1.00
C557   C     0.38352   0.83371   0.49771   0.00000  Uiso   1.00
C558   C     0.11648   0.83296   0.50229   0.00000  Uiso   1.00
C559   C     0.40296   0.78845   0.46901   0.00000  Uiso   1.00
C560   C     0.09704   0.87822   0.53099   0.00000  Uiso   1.00
C561   C     0.44978   0.78678   0.47136   0.00000  Uiso   1.00
C562   C     0.05022   0.87989   0.52864   0.00000  Uiso   1.00
C563   C     0.47654   0.83307   0.49970   0.00000  Uiso   1.00
C564   C     0.02346   0.83360   0.50030   0.00000  Uiso   1.00
C565   C     0.45633   0.87890   0.52759   0.00000  Uiso   1.00
C566   C     0.04367   0.78776   0.47241   0.00000  Uiso   1.00
C567   C     0.47056   0.74060   0.44541   0.00000  Uiso   1.00
C568   C     0.02944   0.92606   0.55459   0.00000  Uiso   1.00
C569   C     0.01733   0.74201   0.44529   0.00000  Uiso   1.00
C570   C     0.48267   0.92466   0.55471   0.00000  Uiso   1.00
H571   H     0.39384   0.91326   0.54940   0.00000  Uiso   1.00
H572   H     0.10615   0.75341   0.45060   0.00000  Uiso   1.00
H573   H     0.38115   0.75485   0.44569   0.00000  Uiso   1.00
H574   H     0.11885   0.91182   0.55431   0.00000  Uiso   1.00
H575   H     0.03331   0.70669   0.42546   0.00000  Uiso   1.00
H576   H     0.46669   0.95998   0.57454   0.00000  Uiso   1.00
C577   C     0.25168   0.67828   0.47609   0.00000  Uiso   1.00
C578   C     0.24832   0.98839   0.52391   0.00000  Uiso   1.00
N579   N     0.23744   0.81881   0.34617   0.00000  Uiso   1.00
N580   N     0.26255   0.84786   0.65383   0.00000  Uiso   1.00
H581   H     0.21416   0.79379   0.64973   0.00000  Uiso   1.00
H582   H     0.28584   0.87288   0.35027   0.00000  Uiso   1.00
N583   N     0.44513   0.69170   0.42106   0.00000  Uiso   1.00
O584   O     0.41640   0.67432   0.45406   0.00000  Uiso   1.00
O585   O     0.45690   0.99335   0.37208   0.00000  Uiso   1.00
N586   N     0.05487   0.97497   0.57894   0.00000  Uiso   1.00
O587   O     0.08360   0.99235   0.54594   0.00000  Uiso   1.00
O588   O     0.04310   0.67332   0.62792   0.00000  Uiso   1.00
N589   N     0.26098   0.98346   0.41596   0.00000  Uiso   1.00
O590   O     0.22838   0.96910   0.37283   0.00000  Uiso   1.00
O591   O     0.30237   0.97815   0.40255   0.00000  Uiso   1.00
N592   N     0.23901   0.68320   0.58404   0.00000  Uiso   1.00
O593   O     0.27161   0.69756   0.62717   0.00000  Uiso   1.00
O594   O     0.19763   0.68852   0.59744   0.00000  Uiso   1.00
O595   O     0.75325   0.76204   0.53992   0.00000  Uiso   1.00
O596   O     0.74674   0.90462   0.46008   0.00000  Uiso   1.00
O597   O     0.74480   0.75226   0.43612   0.00000  Uiso   1.00
O598   O     0.75520   0.91441   0.56388   0.00000  Uiso   1.00
C599   C     0.74887   0.73351   0.48467   0.00000  Uiso   1.00
C600   C     0.75113   0.93316   0.51533   0.00000  Uiso   1.00
O601   O     0.68935   0.83821   0.55191   0.00000  Uiso   1.00
O602   O     0.81064   0.82845   0.44809   0.00000  Uiso   1.00
O603   O     0.68090   0.82843   0.44810   0.00000  Uiso   1.00
O604   O     0.81910   0.83824   0.55190   0.00000  Uiso   1.00
C605   C     0.66455   0.83310   0.50080   0.00000  Uiso   1.00
C606   C     0.83545   0.83356   0.49920   0.00000  Uiso   1.00
Cu607  Cu    0.75500   0.83913   0.56146   0.00000  Uiso   1.00
Cu608  Cu    0.74499   0.82754   0.43854   0.00000  Uiso   1.00
C609   C     0.90981   0.87853   0.52740   0.00000  Uiso   1.00
C610   C     0.59019   0.78814   0.47260   0.00000  Uiso   1.00
C611   C     0.88352   0.83371   0.49771   0.00000  Uiso   1.00
C612   C     0.61648   0.83296   0.50229   0.00000  Uiso   1.00
C613   C     0.90296   0.78845   0.46901   0.00000  Uiso   1.00
C614   C     0.59704   0.87822   0.53099   0.00000  Uiso   1.00
C615   C     0.94978   0.78678   0.47136   0.00000  Uiso   1.00
C616   C     0.55022   0.87989   0.52864   0.00000  Uiso   1.00
C617   C     0.97654   0.83307   0.49970   0.00000  Uiso   1.00
C618   C     0.52346   0.83360   0.50030   0.00000  Uiso   1.00
C619   C     0.95633   0.87890   0.52759   0.00000  Uiso   1.00
C620   C     0.54367   0.78776   0.47241   0.00000  Uiso   1.00
C621   C     0.97056   0.74060   0.44541   0.00000  Uiso   1.00
C622   C     0.52944   0.92606   0.55459   0.00000  Uiso   1.00
C623   C     0.51733   0.74201   0.44529   0.00000  Uiso   1.00
C624   C     0.98267   0.92466   0.55471   0.00000  Uiso   1.00
H625   H     0.89384   0.91326   0.54940   0.00000  Uiso   1.00
H626   H     0.60615   0.75341   0.45060   0.00000  Uiso   1.00
H627   H     0.88115   0.75485   0.44569   0.00000  Uiso   1.00
H628   H     0.61885   0.91182   0.55431   0.00000  Uiso   1.00
H629   H     0.53331   0.70669   0.42546   0.00000  Uiso   1.00
H630   H     0.96669   0.95998   0.57454   0.00000  Uiso   1.00
C631   C     0.75168   0.67828   0.47609   0.00000  Uiso   1.00
C632   C     0.74832   0.98839   0.52391   0.00000  Uiso   1.00
N633   N     0.73744   0.81881   0.34617   0.00000  Uiso   1.00
N634   N     0.76255   0.84786   0.65383   0.00000  Uiso   1.00
H635   H     0.71416   0.79379   0.64973   0.00000  Uiso   1.00
H636   H     0.78584   0.87288   0.35027   0.00000  Uiso   1.00
N637   N     0.94513   0.69170   0.42106   0.00000  Uiso   1.00
O638   O     0.91640   0.67432   0.45406   0.00000  Uiso   1.00
O639   O     0.95690   0.99335   0.37208   0.00000  Uiso   1.00
N640   N     0.55487   0.97497   0.57894   0.00000  Uiso   1.00
O641   O     0.58360   0.99235   0.54594   0.00000  Uiso   1.00
O642   O     0.54310   0.67332   0.62792   0.00000  Uiso   1.00
N643   N     0.76098   0.98346   0.41596   0.00000  Uiso   1.00
O644   O     0.72838   0.96910   0.37283   0.00000  Uiso   1.00
O645   O     0.80237   0.97815   0.40255   0.00000  Uiso   1.00
N646   N     0.73901   0.68320   0.58404   0.00000  Uiso   1.00
O647   O     0.77161   0.69756   0.62717   0.00000  Uiso   1.00
O648   O     0.69763   0.68852   0.59744   0.00000  Uiso   1.00
O649   O     0.25325   0.09538   0.87326   0.00000  Uiso   1.00
O650   O     0.24674   0.23796   0.79341   0.00000  Uiso   1.00
O651   O     0.24480   0.08559   0.76945   0.00000  Uiso   1.00
O652   O     0.25520   0.24774   0.89721   0.00000  Uiso   1.00
C653   C     0.24887   0.06684   0.81800   0.00000  Uiso   1.00
C654   C     0.25113   0.26649   0.84866   0.00000  Uiso   1.00
O655   O     0.18935   0.17155   0.88524   0.00000  Uiso   1.00
O656   O     0.31064   0.16179   0.78143   0.00000  Uiso   1.00
O657   O     0.18090   0.16176   0.78143   0.00000  Uiso   1.00
O658   O     0.31910   0.17157   0.88523   0.00000  Uiso   1.00
C659   C     0.16455   0.16644   0.83413   0.00000  Uiso   1.00
C660   C     0.33545   0.16690   0.83254   0.00000  Uiso   1.00
Cu661  Cu    0.25500   0.17246   0.89479   0.00000  Uiso   1.00
Cu662  Cu    0.24499   0.16087   0.77187   0.00000  Uiso   1.00
C663   C     0.40981   0.21186   0.86073   0.00000  Uiso   1.00
C664   C     0.09019   0.12147   0.80594   0.00000  Uiso   1.00
C665   C     0.38352   0.16704   0.83104   0.00000  Uiso   1.00
C666   C     0.11648   0.16629   0.83562   0.00000  Uiso   1.00
C667   C     0.40296   0.12178   0.80234   0.00000  Uiso   1.00
C668   C     0.09704   0.21155   0.86432   0.00000  Uiso   1.00
C669   C     0.44978   0.12011   0.80470   0.00000  Uiso   1.00
C670   C     0.05022   0.21322   0.86197   0.00000  Uiso   1.00
C671   C     0.47654   0.16640   0.83303   0.00000  Uiso   1.00
C672   C     0.02346   0.16693   0.83363   0.00000  Uiso   1.00
C673   C     0.45633   0.21224   0.86093   0.00000  Uiso   1.00
C674   C     0.04367   0.12110   0.80574   0.00000  Uiso   1.00
C675   C     0.47056   0.07394   0.77874   0.00000  Uiso   1.00
C676   C     0.02944   0.25940   0.88792   0.00000  Uiso   1.00
C677   C     0.01733   0.07534   0.77862   0.00000  Uiso   1.00
C678   C     0.48267   0.25799   0.88804   0.00000  Uiso   1.00
H679   H     0.39384   0.24659   0.88273   0.00000  Uiso   1.00
H680   H     0.10615   0.08674   0.78394   0.00000  Uiso   1.00
H681   H     0.38115   0.08818   0.77903   0.00000  Uiso   1.00
H682   H     0.11885   0.24515   0.88764   0.00000  Uiso   1.00
H683   H     0.03331   0.04002   0.75879   0.00000  Uiso   1.00
H684   H     0.46669   0.29331   0.90788   0.00000  Uiso   1.00
C685   C     0.25168   0.01161   0.80943   0.00000  Uiso   1.00
C686   C     0.24832   0.32172   0.85724   0.00000  Uiso   1.00
N687   N     0.23744   0.15214   0.67951   0.00000  Uiso   1.00
N688   N     0.26255   0.18119   0.98716   0.00000  Uiso   1.00
H689   H     0.21416   0.12712   0.98306   0.00000  Uiso   1.00
H690   H     0.28584   0.20621   0.68361   0.00000  Uiso   1.00
N691   N     0.44513   0.02503   0.75439   0.00000  Uiso   1.00
O692   O     0.41640   0.00765   0.78740   0.00000  Uiso   1.00
O693   O     0.45690   0.32668   0.70541   0.00000  Uiso   1.00
N694   N     0.05487   0.30830   0.91228   0.00000  Uiso   1.00
O695   O     0.08360   0.32568   0.87927   0.00000  Uiso   1.00
O696   O     0.04310   0.00665   0.96125   0.00000  Uiso   1.00
N697   N     0.26098   0.31680   0.74929   0.00000  Uiso   1.00
O698   O     0.22838   0.30244   0.70616   0.00000  Uiso   1.00
O699   O     0.30237   0.31148   0.73589   0.00000  Uiso   1.00
N700   N     0.23901   0.01653   0.91737   0.00000  Uiso   1.00
O701   O     0.27161   0.03089   0.96050   0.00000  Uiso   1.00
O702   O     0.19763   0.02185   0.93078   0.00000  Uiso   1.00
O703   O     0.75325   0.09538   0.87326   0.00000  Uiso   1.00
O704   O     0.74674   0.23796   0.79341   0.00000  Uiso   1.00
O705   O     0.74480   0.08559   0.76945   0.00000  Uiso   1.00
O706   O     0.75520   0.24774   0.89721   0.00000  Uiso   1.00
C707   C     0.74887   0.06684   0.81800   0.00000  Uiso   1.00
C708   C     0.75113   0.26649   0.84866   0.00000  Uiso   1.00
O709   O     0.68935   0.17155   0.88524   0.00000  Uiso   1.00
O710   O     0.81064   0.16179   0.78143   0.00000  Uiso   1.00
O711   O     0.68090   0.16176   0.78143   0.00000  Uiso   1.00
O712   O     0.81910   0.17157   0.88523   0.00000  Uiso   1.00
C713   C     0.66455   0.16644   0.83413   0.00000  Uiso   1.00
C714   C     0.83545   0.16690   0.83254   0.00000  Uiso   1.00
Cu715  Cu    0.75500   0.17246   0.89479   0.00000  Uiso   1.00
Cu716  Cu    0.74499   0.16087   0.77187   0.00000  Uiso   1.00
C717   C     0.90981   0.21186   0.86073   0.00000  Uiso   1.00
C718   C     0.59019   0.12147   0.80594   0.00000  Uiso   1.00
C719   C     0.88352   0.16704   0.83104   0.00000  Uiso   1.00
C720   C     0.61648   0.16629   0.83562   0.00000  Uiso   1.00
C721   C     0.90296   0.12178   0.80234   0.00000  Uiso   1.00
C722   C     0.59704   0.21155   0.86432   0.00000  Uiso   1.00
C723   C     0.94978   0.12011   0.80470   0.00000  Uiso   1.00
C724   C     0.55022   0.21322   0.86197   0.00000  Uiso   1.00
C725   C     0.97654   0.16640   0.83303   0.00000  Uiso   1.00
C726   C     0.52346   0.16693   0.83363   0.00000  Uiso   1.00
C727   C     0.95633   0.21224   0.86093   0.00000  Uiso   1.00
C728   C     0.54367   0.12110   0.80574   0.00000  Uiso   1.00
C729   C     0.97056   0.07394   0.77874   0.00000  Uiso   1.00
C730   C     0.52944   0.25940   0.88792   0.00000  Uiso   1.00
C731   C     0.51733   0.07534   0.77862   0.00000  Uiso   1.00
C732   C     0.98267   0.25799   0.88804   0.00000  Uiso   1.00
H733   H     0.89384   0.24659   0.88273   0.00000  Uiso   1.00
H734   H     0.60615   0.08674   0.78394   0.00000  Uiso   1.00
H735   H     0.88115   0.08818   0.77903   0.00000  Uiso   1.00
H736   H     0.61885   0.24515   0.88764   0.00000  Uiso   1.00
H737   H     0.53331   0.04002   0.75879   0.00000  Uiso   1.00
H738   H     0.96669   0.29331   0.90788   0.00000  Uiso   1.00
C739   C     0.75168   0.01161   0.80943   0.00000  Uiso   1.00
C740   C     0.74832   0.32172   0.85724   0.00000  Uiso   1.00
N741   N     0.73744   0.15214   0.67951   0.00000  Uiso   1.00
N742   N     0.76255   0.18119   0.98716   0.00000  Uiso   1.00
H743   H     0.71416   0.12712   0.98306   0.00000  Uiso   1.00
H744   H     0.78584   0.20621   0.68361   0.00000  Uiso   1.00
N745   N     0.94513   0.02503   0.75439   0.00000  Uiso   1.00
O746   O     0.91640   0.00765   0.78740   0.00000  Uiso   1.00
O747   O     0.95690   0.32668   0.70541   0.00000  Uiso   1.00
N748   N     0.55487   0.30830   0.91228   0.00000  Uiso   1.00
O749   O     0.58360   0.32568   0.87927   0.00000  Uiso   1.00
O750   O     0.54310   0.00665   0.96125   0.00000  Uiso   1.00
N751   N     0.76098   0.31680   0.74929   0.00000  Uiso   1.00
O752   O     0.72838   0.30244   0.70616   0.00000  Uiso   1.00
O753   O     0.80237   0.31148   0.73589   0.00000  Uiso   1.00
N754   N     0.73901   0.01653   0.91737   0.00000  Uiso   1.00
O755   O     0.77161   0.03089   0.96050   0.00000  Uiso   1.00
O756   O     0.69763   0.02185   0.93078   0.00000  Uiso   1.00
O757   O     0.25325   0.42871   0.87326   0.00000  Uiso   1.00
O758   O     0.24674   0.57129   0.79341   0.00000  Uiso   1.00
O759   O     0.24480   0.41892   0.76945   0.00000  Uiso   1.00
O760   O     0.25520   0.58108   0.89721   0.00000  Uiso   1.00
C761   C     0.24887   0.40017   0.81800   0.00000  Uiso   1.00
C762   C     0.25113   0.59982   0.84866   0.00000  Uiso   1.00
O763   O     0.18935   0.50488   0.88524   0.00000  Uiso   1.00
O764   O     0.31064   0.49512   0.78143   0.00000  Uiso   1.00
O765   O     0.18090   0.49510   0.78143   0.00000  Uiso   1.00
O766   O     0.31910   0.50490   0.88523   0.00000  Uiso   1.00
C767   C     0.16455   0.49977   0.83413   0.00000  Uiso   1.00
C768   C     0.33545   0.50023   0.83254   0.00000  Uiso   1.00
Cu769  Cu    0.25500   0.50579   0.89479   0.00000  Uiso   1.00
Cu770  Cu    0.24499   0.49421   0.77187   0.00000  Uiso   1.00
C771   C     0.40981   0.54519   0.86073   0.00000  Uiso   1.00
C772   C     0.09019   0.45480   0.80594   0.00000  Uiso   1.00
C773   C     0.38352   0.50038   0.83104   0.00000  Uiso   1.00
C774   C     0.11648   0.49962   0.83562   0.00000  Uiso   1.00
C775   C     0.40296   0.45511   0.80234   0.00000  Uiso   1.00
C776   C     0.09704   0.54489   0.86432   0.00000  Uiso   1.00
C777   C     0.44978   0.45344   0.80470   0.00000  Uiso   1.00
C778   C     0.05022   0.54656   0.86197   0.00000  Uiso   1.00
C779   C     0.47654   0.49973   0.83303   0.00000  Uiso   1.00
C780   C     0.02346   0.50027   0.83363   0.00000  Uiso   1.00
C781   C     0.45633   0.54557   0.86093   0.00000  Uiso   1.00
C782   C     0.04367   0.45443   0.80574   0.00000  Uiso   1.00
C783   C     0.47056   0.40727   0.77874   0.00000  Uiso   1.00
C784   C     0.02944   0.59273   0.88792   0.00000  Uiso   1.00
C785   C     0.01733   0.40867   0.77862   0.00000  Uiso   1.00
C786   C     0.48267   0.59133   0.88804   0.00000  Uiso   1.00
H787   H     0.39384   0.57993   0.88273   0.00000  Uiso   1.00
H788   H     0.10615   0.42007   0.78394   0.00000  Uiso   1.00
H789   H     0.38115   0.42151   0.77903   0.00000  Uiso   1.00
H790   H     0.11885   0.57849   0.88764   0.00000  Uiso   1.00
H791   H     0.03331   0.37335   0.75879   0.00000  Uiso   1.00
H792   H     0.46669   0.62665   0.90788   0.00000  Uiso   1.00
C793   C     0.25168   0.34494   0.80943   0.00000  Uiso   1.00
C794   C     0.24832   0.65505   0.85724   0.00000  Uiso   1.00
N795   N     0.23744   0.48547   0.67951   0.00000  Uiso   1.00
N796   N     0.26255   0.51453   0.98716   0.00000  Uiso   1.00
H797   H     0.21416   0.46046   0.98306   0.00000  Uiso   1.00
H798   H     0.28584   0.53954   0.68361   0.00000  Uiso   1.00
N799   N     0.44513   0.35836   0.75439   0.00000  Uiso   1.00
O800   O     0.41640   0.34099   0.78740   0.00000  Uiso   1.00
O801   O     0.45690   0.66001   0.70541   0.00000  Uiso   1.00
N802   N     0.05487   0.64163   0.91228   0.00000  Uiso   1.00
O803   O     0.08360   0.65901   0.87927   0.00000  Uiso   1.00
O804   O     0.04310   0.33999   0.96125   0.00000  Uiso   1.00
N805   N     0.26098   0.65013   0.74929   0.00000  Uiso   1.00
O806   O     0.22838   0.63577   0.70616   0.00000  Uiso   1.00
O807   O     0.30237   0.64482   0.73589   0.00000  Uiso   1.00
N808   N     0.23901   0.34987   0.91737   0.00000  Uiso   1.00
O809   O     0.27161   0.36423   0.96050   0.00000  Uiso   1.00
O810   O     0.19763   0.35518   0.93078   0.00000  Uiso   1.00
O811   O     0.75325   0.42871   0.87326   0.00000  Uiso   1.00
O812   O     0.74674   0.57129   0.79341   0.00000  Uiso   1.00
O813   O     0.74480   0.41892   0.76945   0.00000  Uiso   1.00
O814   O     0.75520   0.58108   0.89721   0.00000  Uiso   1.00
C815   C     0.74887   0.40017   0.81800   0.00000  Uiso   1.00
C816   C     0.75113   0.59982   0.84866   0.00000  Uiso   1.00
O817   O     0.68935   0.50488   0.88524   0.00000  Uiso   1.00
O818   O     0.81064   0.49512   0.78143   0.00000  Uiso   1.00
O819   O     0.68090   0.49510   0.78143   0.00000  Uiso   1.00
O820   O     0.81910   0.50490   0.88523   0.00000  Uiso   1.00
C821   C     0.66455   0.49977   0.83413   0.00000  Uiso   1.00
C822   C     0.83545   0.50023   0.83254   0.00000  Uiso   1.00
Cu823  Cu    0.75500   0.50579   0.89479   0.00000  Uiso   1.00
Cu824  Cu    0.74499   0.49421   0.77187   0.00000  Uiso   1.00
C825   C     0.90981   0.54519   0.86073   0.00000  Uiso   1.00
C826   C     0.59019   0.45480   0.80594   0.00000  Uiso   1.00
C827   C     0.88352   0.50038   0.83104   0.00000  Uiso   1.00
C828   C     0.61648   0.49962   0.83562   0.00000  Uiso   1.00
C829   C     0.90296   0.45511   0.80234   0.00000  Uiso   1.00
C830   C     0.59704   0.54489   0.86432   0.00000  Uiso   1.00
C831   C     0.94978   0.45344   0.80470   0.00000  Uiso   1.00
C832   C     0.55022   0.54656   0.86197   0.00000  Uiso   1.00
C833   C     0.97654   0.49973   0.83303   0.00000  Uiso   1.00
C834   C     0.52346   0.50027   0.83363   0.00000  Uiso   1.00
C835   C     0.95633   0.54557   0.86093   0.00000  Uiso   1.00
C836   C     0.54367   0.45443   0.80574   0.00000  Uiso   1.00
C837   C     0.97056   0.40727   0.77874   0.00000  Uiso   1.00
C838   C     0.52944   0.59273   0.88792   0.00000  Uiso   1.00
C839   C     0.51733   0.40867   0.77862   0.00000  Uiso   1.00
C840   C     0.98267   0.59133   0.88804   0.00000  Uiso   1.00
H841   H     0.89384   0.57993   0.88273   0.00000  Uiso   1.00
H842   H     0.60615   0.42007   0.78394   0.00000  Uiso   1.00
H843   H     0.88115   0.42151   0.77903   0.00000  Uiso   1.00
H844   H     0.61885   0.57849   0.88764   0.00000  Uiso   1.00
H845   H     0.53331   0.37335   0.75879   0.00000  Uiso   1.00
H846   H     0.96669   0.62665   0.90788   0.00000  Uiso   1.00
C847   C     0.75168   0.34494   0.80943   0.00000  Uiso   1.00
C848   C     0.74832   0.65505   0.85724   0.00000  Uiso   1.00
N849   N     0.73744   0.48547   0.67951   0.00000  Uiso   1.00
N850   N     0.76255   0.51453   0.98716   0.00000  Uiso   1.00
H851   H     0.71416   0.46046   0.98306   0.00000  Uiso   1.00
H852   H     0.78584   0.53954   0.68361   0.00000  Uiso   1.00
N853   N     0.94513   0.35836   0.75439   0.00000  Uiso   1.00
O854   O     0.91640   0.34099   0.78740   0.00000  Uiso   1.00
O855   O     0.95690   0.66001   0.70541   0.00000  Uiso   1.00
N856   N     0.55487   0.64163   0.91228   0.00000  Uiso   1.00
O857   O     0.58360   0.65901   0.87927   0.00000  Uiso   1.00
O858   O     0.54310   0.33999   0.96125   0.00000  Uiso   1.00
N859   N     0.76098   0.65013   0.74929   0.00000  Uiso   1.00
O860   O     0.72838   0.63577   0.70616   0.00000  Uiso   1.00
O861   O     0.80237   0.64482   0.73589   0.00000  Uiso   1.00
N862   N     0.73901   0.34987   0.91737   0.00000  Uiso   1.00
O863   O     0.77161   0.36423   0.96050   0.00000  Uiso   1.00
O864   O     0.69763   0.35518   0.93078   0.00000  Uiso   1.00
O865   O     0.25325   0.76204   0.87326   0.00000  Uiso   1.00
O866   O     0.24674   0.90462   0.79341   0.00000  Uiso   1.00
O867   O     0.24480   0.75226   0.76945   0.00000  Uiso   1.00
O868   O     0.25520   0.91441   0.89721   0.00000  Uiso   1.00
C869   C     0.24887   0.73351   0.81800   0.00000  Uiso   1.00
C870   C     0.25113   0.93316   0.84866   0.00000  Uiso   1.00
O871   O     0.18935   0.83821   0.88524   0.00000  Uiso   1.00
O872   O     0.31064   0.82845   0.78143   0.00000  Uiso   1.00
O873   O     0.18090   0.82843   0.78143   0.00000  Uiso   1.00
O874   O     0.31910   0.83824   0.88523   0.00000  Uiso   1.00
C875   C     0.16455   0.83310   0.83413   0.00000  Uiso   1.00
C876   C     0.33545   0.83356   0.83254   0.00000  Uiso   1.00
Cu877  Cu    0.25500   0.83913   0.89479   0.00000  Uiso   1.00
Cu878  Cu    0.24499   0.82754   0.77187   0.00000  Uiso   1.00
C879   C     0.40981   0.87853   0.86073   0.00000  Uiso   1.00
C880   C     0.09019   0.78814   0.80594   0.00000  Uiso   1.00
C881   C     0.38352   0.83371   0.83104   0.00000  Uiso   1.00
C882   C     0.11648   0.83296   0.83562   0.00000  Uiso   1.00
C883   C     0.40296   0.78845   0.80234   0.00000  Uiso   1.00
C884   C     0.09704   0.87822   0.86432   0.00000  Uiso   1.00
C885   C     0.44978   0.78678   0.80470   0.00000  Uiso   1.00
C886   C     0.05022   0.87989   0.86197   0.00000  Uiso   1.00
C887   C     0.47654   0.83307   0.83303   0.00000  Uiso   1.00
C888   C     0.02346   0.83360   0.83363   0.00000  Uiso   1.00
C889   C     0.45633   0.87890   0.86093   0.00000  Uiso   1.00
C890   C     0.04367   0.78776   0.80574   0.00000  Uiso   1.00
C891   C     0.47056   0.74060   0.77874   0.00000  Uiso   1.00
C892   C     0.02944   0.92606   0.88792   0.00000  Uiso   1.00
C893   C     0.01733   0.74201   0.77862   0.00000  Uiso   1.00
C894   C     0.48267   0.92466   0.88804   0.00000  Uiso   1.00
H895   H     0.39384   0.91326   0.88273   0.00000  Uiso   1.00
H896   H     0.10615   0.75341   0.78394   0.00000  Uiso   1.00
H897   H     0.38115   0.75485   0.77903   0.00000  Uiso   1.00
H898   H     0.11885   0.91182   0.88764   0.00000  Uiso   1.00
H899   H     0.03331   0.70669   0.75879   0.00000  Uiso   1.00
H900   H     0.46669   0.95998   0.90788   0.00000  Uiso   1.00
C901   C     0.25168   0.67828   0.80943   0.00000  Uiso   1.00
C902   C     0.24832   0.98839   0.85724   0.00000  Uiso   1.00
N903   N     0.23744   0.81881   0.67951   0.00000  Uiso   1.00
N904   N     0.26255   0.84786   0.98716   0.00000  Uiso   1.00
H905   H     0.21416   0.79379   0.98306   0.00000  Uiso   1.00
H906   H     0.28584   0.87288   0.68361   0.00000  Uiso   1.00
N907   N     0.44513   0.69170   0.75439   0.00000  Uiso   1.00
O908   O     0.41640   0.67432   0.78740   0.00000  Uiso   1.00
O909   O     0.45690   0.99335   0.70541   0.00000  Uiso   1.00
N910   N     0.05487   0.97497   0.91228   0.00000  Uiso   1.00
O911   O     0.08360   0.99235   0.87927   0.00000  Uiso   1.00
O912   O     0.04310   0.67332   0.96125   0.00000  Uiso   1.00
N913   N     0.26098   0.98346   0.74929   0.00000  Uiso   1.00
O914   O     0.22838   0.96910   0.70616   0.00000  Uiso   1.00
O915   O     0.30237   0.97815   0.73589   0.00000  Uiso   1.00
N916   N     0.23901   0.68320   0.91737   0.00000  Uiso   1.00
O917   O     0.27161   0.69756   0.96050   0.00000  Uiso   1.00
O918   O     0.19763   0.68852   0.93078   0.00000  Uiso   1.00
O919   O     0.75325   0.76204   0.87326   0.00000  Uiso   1.00
O920   O     0.74674   0.90462   0.79341   0.00000  Uiso   1.00
O921   O     0.74480   0.75226   0.76945   0.00000  Uiso   1.00
O922   O     0.75520   0.91441   0.89721   0.00000  Uiso   1.00
C923   C     0.74887   0.73351   0.81800   0.00000  Uiso   1.00
C924   C     0.75113   0.93316   0.84866   0.00000  Uiso   1.00
O925   O     0.68935   0.83821   0.88524   0.00000  Uiso   1.00
O926   O     0.81064   0.82845   0.78143   0.00000  Uiso   1.00
O927   O     0.68090   0.82843   0.78143   0.00000  Uiso   1.00
O928   O     0.81910   0.83824   0.88523   0.00000  Uiso   1.00
C929   C     0.66455   0.83310   0.83413   0.00000  Uiso   1.00
C930   C     0.83545   0.83356   0.83254   0.00000  Uiso   1.00
Cu931  Cu    0.75500   0.83913   0.89479   0.00000  Uiso   1.00
Cu932  Cu    0.74499   0.82754   0.77187   0.00000  Uiso   1.00
C933   C     0.90981   0.87853   0.86073   0.00000  Uiso   1.00
C934   C     0.59019   0.78814   0.80594   0.00000  Uiso   1.00
C935   C     0.88352   0.83371   0.83104   0.00000  Uiso   1.00
C936   C     0.61648   0.83296   0.83562   0.00000  Uiso   1.00
C937   C     0.90296   0.78845   0.80234   0.00000  Uiso   1.00
C938   C     0.59704   0.87822   0.86432   0.00000  Uiso   1.00
C939   C     0.94978   0.78678   0.80470   0.00000  Uiso   1.00
C940   C     0.55022   0.87989   0.86197   0.00000  Uiso   1.00
C941   C     0.97654   0.83307   0.83303   0.00000  Uiso   1.00
C942   C     0.52346   0.83360   0.83363   0.00000  Uiso   1.00
C943   C     0.95633   0.87890   0.86093   0.00000  Uiso   1.00
C944   C     0.54367   0.78776   0.80574   0.00000  Uiso   1.00
C945   C     0.97056   0.74060   0.77874   0.00000  Uiso   1.00
C946   C     0.52944   0.92606   0.88792   0.00000  Uiso   1.00
C947   C     0.51733   0.74201   0.77862   0.00000  Uiso   1.00
C948   C     0.98267   0.92466   0.88804   0.00000  Uiso   1.00
H949   H     0.89384   0.91326   0.88273   0.00000  Uiso   1.00
H950   H     0.60615   0.75341   0.78394   0.00000  Uiso   1.00
H951   H     0.88115   0.75485   0.77903   0.00000  Uiso   1.00
H952   H     0.61885   0.91182   0.88764   0.00000  Uiso   1.00
H953   H     0.53331   0.70669   0.75879   0.00000  Uiso   1.00
H954   H     0.96669   0.95998   0.90788   0.00000  Uiso   1.00
C955   C     0.75168   0.67828   0.80943   0.00000  Uiso   1.00
C956   C     0.74832   0.98839   0.85724   0.00000  Uiso   1.00
N957   N     0.73744   0.81881   0.67951   0.00000  Uiso   1.00
N958   N     0.76255   0.84786   0.98716   0.00000  Uiso   1.00
H959   H     0.71416   0.79379   0.98306   0.00000  Uiso   1.00
H960   H     0.78584   0.87288   0.68361   0.00000  Uiso   1.00
N961   N     0.94513   0.69170   0.75439   0.00000  Uiso   1.00
O962   O     0.91640   0.67432   0.78740   0.00000  Uiso   1.00
O963   O     0.95690   0.99335   0.70541   0.00000  Uiso   1.00
N964   N     0.55487   0.97497   0.91228   0.00000  Uiso   1.00
O965   O     0.58360   0.99235   0.87927   0.00000  Uiso   1.00
O966   O     0.54310   0.67332   0.96125   0.00000  Uiso   1.00
N967   N     0.76098   0.98346   0.74929   0.00000  Uiso   1.00
O968   O     0.72838   0.96910   0.70616   0.00000  Uiso   1.00
O969   O     0.80237   0.97815   0.73589   0.00000  Uiso   1.00
N970   N     0.73901   0.68320   0.91737   0.00000  Uiso   1.00
O971   O     0.77161   0.69756   0.96050   0.00000  Uiso   1.00
O972   O     0.69763   0.68852   0.93078   0.00000  Uiso   1.00
loop_
_geom_bond_atom_site_label_1
_geom_bond_atom_site_label_2
_geom_bond_distance
_geom_bond_site_symmetry_2
_ccdc_geom_bond_type
O1     C5      1.289   .     A
O1     Cu13    1.973   .     S
O2     C6      1.289   .     A
O2     Cu14    1.973   .     S
O3     Cu14    1.967   .     S
O3     C5      1.287   .     A
O4     Cu13    1.967   .     S
O4     C6      1.287   .     A
C5     C37     1.429   .     S
C6     C38     1.429   .     S
O7     Cu13    1.959   .     S
O7     C11     1.294   .     A
O8     C12     1.294   .     A
O8     Cu14    1.959   .     S
O9     C11     1.290   .     A
O9     Cu14    1.945   .     S
O10    C12     1.290   .     A
O10    Cu13    1.945   .     S
C11    C18     1.441   .     S
C12    C17     1.441   .     S
Cu13   Cu14    2.688   .     S
Cu13   N40     2.020   .     S
Cu14   N39     2.020   .     S
C15    H31     1.086   .     S
C15    C25     1.391   .     A
C15    C17     1.393   .     A
C16    C18     1.393   .     A
C16    C26     1.391   .     A
C16    H32     1.086   .     S
C17    C19     1.395   .     A
C18    C20     1.395   .     A
C19    C21     1.401   .     A
C19    H33     1.083   .     S
C20    H34     1.083   .     S
C20    C22     1.401   .     A
C21    C27     1.416   .     A
C21    C23     1.421   .     A
C22    C28     1.416   .     A
C22    C24     1.421   .     A
C23    C25     1.412   .     A
C23    C78     1.402   .     S
C24    C26     1.412   .     A
C24    C77     1.402   1_455 S
C25    C30     1.399   .     A
C26    C29     1.399   .     A
C27    N43     1.438   .     S
C27    C83     1.398   .     S
C28    N46     1.438   .     S
C28    C84     1.398   1_455 S
C29    H35     1.085   .     S
C29    C81     1.398   1_455 S
C30    H36     1.085   .     S
C30    C82     1.398   .     S
C37    C254    1.349   1_545 S
C37    N265    1.436   1_545 S
C38    C145    1.349   .     S
C38    N160    1.436   .     S
N39    N688    1.296   1_554 S
N39    H689    1.029   1_554 S
N40    N363    1.296   .     S
N40    H366    1.029   .     S
H41    N363    1.029   .     S
H42    N688    1.029   1_554 S
N43    O44     1.302   .     A
N43    O261    1.302   1_545 S
O45    N151    1.302   .     S
N46    O47     1.302   .     A
N46    O156    1.302   .     S
O48    N262    1.302   1_545 S
N49    O51     1.301   .     A
N49    O50     1.301   .     A
N49    C145    1.436   .     S
N52    O54     1.301   .     A
N52    O53     1.301   .     A
N52    C254    1.436   1_545 S
O55    C59     1.289   .     A
O55    Cu67    1.973   .     S
O56    C60     1.289   .     A
O56    Cu68    1.973   .     S
O57    Cu68    1.967   .     S
O57    C59     1.287   .     A
O58    Cu67    1.967   .     S
O58    C60     1.287   .     A
C59    C91     1.429   .     S
C60    C92     1.429   .     S
O61    Cu67    1.959   .     S
O61    C65     1.294   .     A
O62    C66     1.294   .     A
O62    Cu68    1.959   .     S
O63    C65     1.290   .     A
O63    Cu68    1.945   .     S
O64    C66     1.290   .     A
O64    Cu67    1.945   .     S
C65    C72     1.441   .     S
C66    C71     1.441   .     S
Cu67   Cu68    2.688   .     S
Cu67   N94     2.020   .     S
Cu68   N93     2.020   .     S
C69    H85     1.086   .     S
C69    C79     1.391   .     A
C69    C71     1.393   .     A
C70    C72     1.393   .     A
C70    C80     1.391   .     A
C70    H86     1.086   .     S
C71    C73     1.395   .     A
C72    C74     1.395   .     A
C73    C75     1.401   .     A
C73    H87     1.083   .     S
C74    H88     1.083   .     S
C74    C76     1.401   .     A
C75    C81     1.416   .     A
C75    C77     1.421   .     A
C76    C82     1.416   .     A
C76    C78     1.421   .     A
C77    C79     1.412   .     A
C77    C24     1.402   1_655 S
C78    C80     1.412   .     A
C79    C84     1.399   .     A
C80    C83     1.399   .     A
C81    N97     1.438   .     S
C81    C29     1.398   1_655 S
C82    N100    1.438   .     S
C83    H89     1.085   .     S
C84    H90     1.085   .     S
C84    C28     1.398   1_655 S
C91    C308    1.349   1_545 S
C91    N319    1.436   1_545 S
C92    C199    1.349   .     S
C92    N214    1.436   .     S
N93    N742    1.296   1_554 S
N93    H743    1.029   1_554 S
N94    N417    1.296   .     S
N94    H420    1.029   .     S
H95    N417    1.029   .     S
H96    N742    1.029   1_554 S
N97    O98     1.302   .     A
N97    O315    1.302   1_545 S
O99    N205    1.302   .     S
N100   O101    1.302   .     A
N100   O210    1.302   .     S
O102   N316    1.302   1_545 S
N103   O105    1.301   .     A
N103   O104    1.301   .     A
N103   C199    1.436   .     S
N106   O108    1.301   .     A
N106   O107    1.301   .     A
N106   C308    1.436   1_545 S
O109   C113    1.289   .     A
O109   Cu121   1.973   .     S
O110   C114    1.289   .     A
O110   Cu122   1.973   .     S
O111   Cu122   1.967   .     S
O111   C113    1.287   .     A
O112   Cu121   1.967   .     S
O112   C114    1.287   .     A
C113   C145    1.429   .     S
C114   C146    1.429   .     S
O115   Cu121   1.959   .     S
O115   C119    1.294   .     A
O116   C120    1.294   .     A
O116   Cu122   1.959   .     S
O117   C119    1.290   .     A
O117   Cu122   1.945   .     S
O118   C120    1.290   .     A
O118   Cu121   1.945   .     S
C119   C126    1.441   .     S
C120   C125    1.441   .     S
Cu121  Cu122   2.688   .     S
Cu121  N148    2.020   .     S
Cu122  N147    2.020   .     S
C123   H139    1.086   .     S
C123   C133    1.391   .     A
C123   C125    1.393   .     A
C124   C126    1.393   .     A
C124   C134    1.391   .     A
C124   H140    1.086   .     S
C125   C127    1.395   .     A
C126   C128    1.395   .     A
C127   C129    1.401   .     A
C127   H141    1.083   .     S
C128   H142    1.083   .     S
C128   C130    1.401   .     A
C129   C135    1.416   .     A
C129   C131    1.421   .     A
C130   C136    1.416   .     A
C130   C132    1.421   .     A
C131   C133    1.412   .     A
C131   C186    1.402   .     S
C132   C134    1.412   .     A
C132   C185    1.402   1_455 S
C133   C138    1.399   .     A
C134   C137    1.399   .     A
C135   N151    1.438   .     S
C135   C191    1.398   .     S
C136   N154    1.438   .     S
C136   C192    1.398   1_455 S
C137   H143    1.085   .     S
C137   C189    1.398   1_455 S
C138   H144    1.085   .     S
C138   C190    1.398   .     S
C146   C253    1.349   .     S
C146   N268    1.436   .     S
N147   N796    1.296   1_554 S
N147   H797    1.029   1_554 S
N148   N471    1.296   .     S
N148   H474    1.029   .     S
H149   N471    1.029   .     S
H150   N796    1.029   1_554 S
N151   O152    1.302   .     A
O153   N259    1.302   .     S
N154   O155    1.302   .     A
N154   O264    1.302   .     S
N157   O159    1.301   .     A
N157   O158    1.301   .     A
N157   C253    1.436   .     S
N160   O162    1.301   .     A
N160   O161    1.301   .     A
O163   C167    1.289   .     A
O163   Cu175   1.973   .     S
O164   C168    1.289   .     A
O164   Cu176   1.973   .     S
O165   Cu176   1.967   .     S
O165   C167    1.287   .     A
O166   Cu175   1.967   .     S
O166   C168    1.287   .     A
C167   C199    1.429   .     S
C168   C200    1.429   .     S
O169   Cu175   1.959   .     S
O169   C173    1.294   .     A
O170   C174    1.294   .     A
O170   Cu176   1.959   .     S
O171   C173    1.290   .     A
O171   Cu176   1.945   .     S
O172   C174    1.290   .     A
O172   Cu175   1.945   .     S
C173   C180    1.441   .     S
C174   C179    1.441   .     S
Cu175  Cu176   2.688   .     S
Cu175  N202    2.020   .     S
Cu176  N201    2.020   .     S
C177   H193    1.086   .     S
C177   C187    1.391   .     A
C177   C179    1.393   .     A
C178   C180    1.393   .     A
C178   C188    1.391   .     A
C178   H194    1.086   .     S
C179   C181    1.395   .     A
C180   C182    1.395   .     A
C181   C183    1.401   .     A
C181   H195    1.083   .     S
C182   H196    1.083   .     S
C182   C184    1.401   .     A
C183   C189    1.416   .     A
C183   C185    1.421   .     A
C184   C190    1.416   .     A
C184   C186    1.421   .     A
C185   C187    1.412   .     A
C185   C132    1.402   1_655 S
C186   C188    1.412   .     A
C187   C192    1.399   .     A
C188   C191    1.399   .     A
C189   N205    1.438   .     S
C189   C137    1.398   1_655 S
C190   N208    1.438   .     S
C191   H197    1.085   .     S
C192   H198    1.085   .     S
C192   C136    1.398   1_655 S
C200   C307    1.349   .     S
C200   N322    1.436   .     S
N201   N850    1.296   1_554 S
N201   H851    1.029   1_554 S
N202   N525    1.296   .     S
N202   H528    1.029   .     S
H203   N525    1.029   .     S
H204   N850    1.029   1_554 S
N205   O206    1.302   .     A
O207   N313    1.302   .     S
N208   O209    1.302   .     A
N208   O318    1.302   .     S
N211   O213    1.301   .     A
N211   O212    1.301   .     A
N211   C307    1.436   .     S
N214   O216    1.301   .     A
N214   O215    1.301   .     A
O217   C221    1.289   .     A
O217   Cu229   1.973   .     S
O218   C222    1.289   .     A
O218   Cu230   1.973   .     S
O219   Cu230   1.967   .     S
O219   C221    1.287   .     A
O220   Cu229   1.967   .     S
O220   C222    1.287   .     A
C221   C253    1.429   .     S
C222   C254    1.429   .     S
O223   Cu229   1.959   .     S
O223   C227    1.294   .     A
O224   C228    1.294   .     A
O224   Cu230   1.959   .     S
O225   C227    1.290   .     A
O225   Cu230   1.945   .     S
O226   C228    1.290   .     A
O226   Cu229   1.945   .     S
C227   C234    1.441   .     S
C228   C233    1.441   .     S
Cu229  Cu230   2.688   .     S
Cu229  N256    2.020   .     S
Cu230  N255    2.020   .     S
C231   H247    1.086   .     S
C231   C241    1.391   .     A
C231   C233    1.393   .     A
C232   C234    1.393   .     A
C232   C242    1.391   .     A
C232   H248    1.086   .     S
C233   C235    1.395   .     A
C234   C236    1.395   .     A
C235   C237    1.401   .     A
C235   H249    1.083   .     S
C236   H250    1.083   .     S
C236   C238    1.401   .     A
C237   C243    1.416   .     A
C237   C239    1.421   .     A
C238   C244    1.416   .     A
C238   C240    1.421   .     A
C239   C241    1.412   .     A
C239   C294    1.402   .     S
C240   C242    1.412   .     A
C240   C293    1.402   1_455 S
C241   C246    1.399   .     A
C242   C245    1.399   .     A
C243   N259    1.438   .     S
C243   C299    1.398   .     S
C244   N262    1.438   .     S
C244   C300    1.398   1_455 S
C245   H251    1.085   .     S
C245   C297    1.398   1_455 S
C246   H252    1.085   .     S
C246   C298    1.398   .     S
C254   C37     1.349   1_565 S
C254   N52     1.436   1_565 S
N255   N904    1.296   1_554 S
N255   H905    1.029   1_554 S
N256   N579    1.296   .     S
N256   H582    1.029   .     S
H257   N579    1.029   .     S
H258   N904    1.029   1_554 S
N259   O260    1.302   .     A
O261   N43     1.302   1_565 S
N262   O263    1.302   .     A
N262   O48     1.302   1_565 S
N265   O267    1.301   .     A
N265   O266    1.301   .     A
N265   C37     1.436   1_565 S
N268   O270    1.301   .     A
N268   O269    1.301   .     A
O271   C275    1.289   .     A
O271   Cu283   1.973   .     S
O272   C276    1.289   .     A
O272   Cu284   1.973   .     S
O273   Cu284   1.967   .     S
O273   C275    1.287   .     A
O274   Cu283   1.967   .     S
O274   C276    1.287   .     A
C275   C307    1.429   .     S
C276   C308    1.429   .     S
O277   Cu283   1.959   .     S
O277   C281    1.294   .     A
O278   C282    1.294   .     A
O278   Cu284   1.959   .     S
O279   C281    1.290   .     A
O279   Cu284   1.945   .     S
O280   C282    1.290   .     A
O280   Cu283   1.945   .     S
C281   C288    1.441   .     S
C282   C287    1.441   .     S
Cu283  Cu284   2.688   .     S
Cu283  N310    2.020   .     S
Cu284  N309    2.020   .     S
C285   H301    1.086   .     S
C285   C295    1.391   .     A
C285   C287    1.393   .     A
C286   C288    1.393   .     A
C286   C296    1.391   .     A
C286   H302    1.086   .     S
C287   C289    1.395   .     A
C288   C290    1.395   .     A
C289   C291    1.401   .     A
C289   H303    1.083   .     S
C290   H304    1.083   .     S
C290   C292    1.401   .     A
C291   C297    1.416   .     A
C291   C293    1.421   .     A
C292   C298    1.416   .     A
C292   C294    1.421   .     A
C293   C295    1.412   .     A
C293   C240    1.402   1_655 S
C294   C296    1.412   .     A
C295   C300    1.399   .     A
C296   C299    1.399   .     A
C297   N313    1.438   .     S
C297   C245    1.398   1_655 S
C298   N316    1.438   .     S
C299   H305    1.085   .     S
C300   H306    1.085   .     S
C300   C244    1.398   1_655 S
C308   C91     1.349   1_565 S
C308   N106    1.436   1_565 S
N309   N958    1.296   1_554 S
N309   H959    1.029   1_554 S
N310   N633    1.296   .     S
N310   H636    1.029   .     S
H311   N633    1.029   .     S
H312   N958    1.029   1_554 S
N313   O314    1.302   .     A
O315   N97     1.302   1_565 S
N316   O317    1.302   .     A
N316   O102    1.302   1_565 S
N319   O321    1.301   .     A
N319   O320    1.301   .     A
N319   C91     1.436   1_565 S
N322   O324    1.301   .     A
N322   O323    1.301   .     A
O325   C329    1.289   .     A
O325   Cu337   1.973   .     S
O326   C330    1.289   .     A
O326   Cu338   1.973   .     S
O327   Cu338   1.967   .     S
O327   C329    1.287   .     A
O328   Cu337   1.967   .     S
O328   C330    1.287   .     A
C329   C361    1.429   .     S
C330   C362    1.429   .     S
O331   Cu337   1.959   .     S
O331   C335    1.294   .     A
O332   C336    1.294   .     A
O332   Cu338   1.959   .     S
O333   C335    1.290   .     A
O333   Cu338   1.945   .     S
O334   C336    1.290   .     A
O334   Cu337   1.945   .     S
C335   C342    1.441   .     S
C336   C341    1.441   .     S
Cu337  Cu338   2.688   .     S
Cu337  N364    2.020   .     S
Cu338  N363    2.020   .     S
C339   H355    1.086   .     S
C339   C349    1.391   .     A
C339   C341    1.393   .     A
C340   C342    1.393   .     A
C340   C350    1.391   .     A
C340   H356    1.086   .     S
C341   C343    1.395   .     A
C342   C344    1.395   .     A
C343   C345    1.401   .     A
C343   H357    1.083   .     S
C344   H358    1.083   .     S
C344   C346    1.401   .     A
C345   C351    1.416   .     A
C345   C347    1.421   .     A
C346   C352    1.416   .     A
C346   C348    1.421   .     A
C347   C349    1.412   .     A
C347   C402    1.402   .     S
C348   C350    1.412   .     A
C348   C401    1.402   1_455 S
C349   C354    1.399   .     A
C350   C353    1.399   .     A
C351   N367    1.438   .     S
C351   C407    1.398   .     S
C352   N370    1.438   .     S
C352   C408    1.398   1_455 S
C353   H359    1.085   .     S
C353   C405    1.398   1_455 S
C354   H360    1.085   .     S
C354   C406    1.398   .     S
C361   C578    1.349   1_545 S
C361   N589    1.436   1_545 S
C362   C469    1.349   .     S
C362   N484    1.436   .     S
N364   N687    1.296   .     S
N364   H690    1.029   .     S
H365   N687    1.029   .     S
N367   O368    1.302   .     A
N367   O585    1.302   1_545 S
O369   N475    1.302   .     S
N370   O371    1.302   .     A
N370   O480    1.302   .     S
O372   N586    1.302   1_545 S
N373   O375    1.301   .     A
N373   O374    1.301   .     A
N373   C469    1.436   .     S
N376   O378    1.301   .     A
N376   O377    1.301   .     A
N376   C578    1.436   1_545 S
O379   C383    1.289   .     A
O379   Cu391   1.973   .     S
O380   C384    1.289   .     A
O380   Cu392   1.973   .     S
O381   Cu392   1.967   .     S
O381   C383    1.287   .     A
O382   Cu391   1.967   .     S
O382   C384    1.287   .     A
C383   C415    1.429   .     S
C384   C416    1.429   .     S
O385   Cu391   1.959   .     S
O385   C389    1.294   .     A
O386   C390    1.294   .     A
O386   Cu392   1.959   .     S
O387   C389    1.290   .     A
O387   Cu392   1.945   .     S
O388   C390    1.290   .     A
O388   Cu391   1.945   .     S
C389   C396    1.441   .     S
C390   C395    1.441   .     S
Cu391  Cu392   2.688   .     S
Cu391  N418    2.020   .     S
Cu392  N417    2.020   .     S
C393   H409    1.086   .     S
C393   C403    1.391   .     A
C393   C395    1.393   .     A
C394   C396    1.393   .     A
C394   C404    1.391   .     A
C394   H410    1.086   .     S
C395   C397    1.395   .     A
C396   C398    1.395   .     A
C397   C399    1.401   .     A
C397   H411    1.083   .     S
C398   H412    1.083   .     S
C398   C400    1.401   .     A
C399   C405    1.416   .     A
C399   C401    1.421   .     A
C400   C406    1.416   .     A
C400   C402    1.421   .     A
C401   C403    1.412   .     A
C401   C348    1.402   1_655 S
C402   C404    1.412   .     A
C403   C408    1.399   .     A
C404   C407    1.399   .     A
C405   N421    1.438   .     S
C405   C353    1.398   1_655 S
C406   N424    1.438   .     S
C407   H413    1.085   .     S
C408   H414    1.085   .     S
C408   C352    1.398   1_655 S
C415   C632    1.349   1_545 S
C415   N643    1.436   1_545 S
C416   C523    1.349   .     S
C416   N538    1.436   .     S
N418   N741    1.296   .     S
N418   H744    1.029   .     S
H419   N741    1.029   .     S
N421   O422    1.302   .     A
N421   O639    1.302   1_545 S
O423   N529    1.302   .     S
N424   O425    1.302   .     A
N424   O534    1.302   .     S
O426   N640    1.302   1_545 S
N427   O429    1.301   .     A
N427   O428    1.301   .     A
N427   C523    1.436   .     S
N430   O432    1.301   .     A
N430   O431    1.301   .     A
N430   C632    1.436   1_545 S
O433   C437    1.289   .     A
O433   Cu445   1.973   .     S
O434   C438    1.289   .     A
O434   Cu446   1.973   .     S
O435   Cu446   1.967   .     S
O435   C437    1.287   .     A
O436   Cu445   1.967   .     S
O436   C438    1.287   .     A
C437   C469    1.429   .     S
C438   C470    1.429   .     S
O439   Cu445   1.959   .     S
O439   C443    1.294   .     A
O440   C444    1.294   .     A
O440   Cu446   1.959   .     S
O441   C443    1.290   .     A
O441   Cu446   1.945   .     S
O442   C444    1.290   .     A
O442   Cu445   1.945   .     S
C443   C450    1.441   .     S
C444   C449    1.441   .     S
Cu445  Cu446   2.688   .     S
Cu445  N472    2.020   .     S
Cu446  N471    2.020   .     S
C447   H463    1.086   .     S
C447   C457    1.391   .     A
C447   C449    1.393   .     A
C448   C450    1.393   .     A
C448   C458    1.391   .     A
C448   H464    1.086   .     S
C449   C451    1.395   .     A
C450   C452    1.395   .     A
C451   C453    1.401   .     A
C451   H465    1.083   .     S
C452   H466    1.083   .     S
C452   C454    1.401   .     A
C453   C459    1.416   .     A
C453   C455    1.421   .     A
C454   C460    1.416   .     A
C454   C456    1.421   .     A
C455   C457    1.412   .     A
C455   C510    1.402   .     S
C456   C458    1.412   .     A
C456   C509    1.402   1_455 S
C457   C462    1.399   .     A
C458   C461    1.399   .     A
C459   N475    1.438   .     S
C459   C515    1.398   .     S
C460   N478    1.438   .     S
C460   C516    1.398   1_455 S
C461   H467    1.085   .     S
C461   C513    1.398   1_455 S
C462   H468    1.085   .     S
C462   C514    1.398   .     S
C470   C577    1.349   .     S
C470   N592    1.436   .     S
N472   N795    1.296   .     S
N472   H798    1.029   .     S
H473   N795    1.029   .     S
N475   O476    1.302   .     A
O477   N583    1.302   .     S
N478   O479    1.302   .     A
N478   O588    1.302   .     S
N481   O483    1.301   .     A
N481   O482    1.301   .     A
N481   C577    1.436   .     S
N484   O486    1.301   .     A
N484   O485    1.301   .     A
O487   C491    1.289   .     A
O487   Cu499   1.973   .     S
O488   C492    1.289   .     A
O488   Cu500   1.973   .     S
O489   Cu500   1.967   .     S
O489   C491    1.287   .     A
O490   Cu499   1.967   .     S
O490   C492    1.287   .     A
C491   C523    1.429   .     S
C492   C524    1.429   .     S
O493   Cu499   1.959   .     S
O493   C497    1.294   .     A
O494   C498    1.294   .     A
O494   Cu500   1.959   .     S
O495   C497    1.290   .     A
O495   Cu500   1.945   .     S
O496   C498    1.290   .     A
O496   Cu499   1.945   .     S
C497   C504    1.441   .     S
C498   C503    1.441   .     S
Cu499  Cu500   2.688   .     S
Cu499  N526    2.020   .     S
Cu500  N525    2.020   .     S
C501   H517    1.086   .     S
C501   C511    1.391   .     A
C501   C503    1.393   .     A
C502   C504    1.393   .     A
C502   C512    1.391   .     A
C502   H518    1.086   .     S
C503   C505    1.395   .     A
C504   C506    1.395   .     A
C505   C507    1.401   .     A
C505   H519    1.083   .     S
C506   H520    1.083   .     S
C506   C508    1.401   .     A
C507   C513    1.416   .     A
C507   C509    1.421   .     A
C508   C514    1.416   .     A
C508   C510    1.421   .     A
C509   C511    1.412   .     A
C509   C456    1.402   1_655 S
C510   C512    1.412   .     A
C511   C516    1.399   .     A
C512   C515    1.399   .     A
C513   N529    1.438   .     S
C513   C461    1.398   1_655 S
C514   N532    1.438   .     S
C515   H521    1.085   .     S
C516   H522    1.085   .     S
C516   C460    1.398   1_655 S
C524   C631    1.349   .     S
C524   N646    1.436   .     S
N526   N849    1.296   .     S
N526   H852    1.029   .     S
H527   N849    1.029   .     S
N529   O530    1.302   .     A
O531   N637    1.302   .     S
N532   O533    1.302   .     A
N532   O642    1.302   .     S
N535   O537    1.301   .     A
N535   O536    1.301   .     A
N535   C631    1.436   .     S
N538   O540    1.301   .     A
N538   O539    1.301   .     A
O541   C545    1.289   .     A
O541   Cu553   1.973   .     S
O542   C546    1.289   .     A
O542   Cu554   1.973   .     S
O543   Cu554   1.967   .     S
O543   C545    1.287   .     A
O544   Cu553   1.967   .     S
O544   C546    1.287   .     A
C545   C577    1.429   .     S
C546   C578    1.429   .     S
O547   Cu553   1.959   .     S
O547   C551    1.294   .     A
O548   C552    1.294   .     A
O548   Cu554   1.959   .     S
O549   C551    1.290   .     A
O549   Cu554   1.945   .     S
O550   C552    1.290   .     A
O550   Cu553   1.945   .     S
C551   C558    1.441   .     S
C552   C557    1.441   .     S
Cu553  Cu554   2.688   .     S
Cu553  N580    2.020   .     S
Cu554  N579    2.020   .     S
C555   H571    1.086   .     S
C555   C565    1.391   .     A
C555   C557    1.393   .     A
C556   C558    1.393   .     A
C556   C566    1.391   .     A
C556   H572    1.086   .     S
C557   C559    1.395   .     A
C558   C560    1.395   .     A
C559   C561    1.401   .     A
C559   H573    1.083   .     S
C560   H574    1.083   .     S
C560   C562    1.401   .     A
C561   C567    1.416   .     A
C561   C563    1.421   .     A
C562   C568    1.416   .     A
C562   C564    1.421   .     A
C563   C565    1.412   .     A
C563   C618    1.402   .     S
C564   C566    1.412   .     A
C564   C617    1.402   1_455 S
C565   C570    1.399   .     A
C566   C569    1.399   .     A
C567   N583    1.438   .     S
C567   C623    1.398   .     S
C568   N586    1.438   .     S
C568   C624    1.398   1_455 S
C569   H575    1.085   .     S
C569   C621    1.398   1_455 S
C570   H576    1.085   .     S
C570   C622    1.398   .     S
C578   C361    1.349   1_565 S
C578   N376    1.436   1_565 S
N580   N903    1.296   .     S
N580   H906    1.029   .     S
H581   N903    1.029   .     S
N583   O584    1.302   .     A
O585   N367    1.302   1_565 S
N586   O587    1.302   .     A
N586   O372    1.302   1_565 S
N589   O591    1.301   .     A
N589   O590    1.301   .     A
N589   C361    1.436   1_565 S
N592   O594    1.301   .     A
N592   O593    1.301   .     A
O595   C599    1.289   .     A
O595   Cu607   1.973   .     S
O596   C600    1.289   .     A
O596   Cu608   1.973   .     S
O597   Cu608   1.967   .     S
O597   C599    1.287   .     A
O598   Cu607   1.967   .     S
O598   C600    1.287   .     A
C599   C631    1.429   .     S
C600   C632    1.429   .     S
O601   Cu607   1.959   .     S
O601   C605    1.294   .     A
O602   C606    1.294   .     A
O602   Cu608   1.959   .     S
O603   C605    1.290   .     A
O603   Cu608   1.945   .     S
O604   C606    1.290   .     A
O604   Cu607   1.945   .     S
C605   C612    1.441   .     S
C606   C611    1.441   .     S
Cu607  Cu608   2.688   .     S
Cu607  N634    2.020   .     S
Cu608  N633    2.020   .     S
C609   H625    1.086   .     S
C609   C619    1.391   .     A
C609   C611    1.393   .     A
C610   C612    1.393   .     A
C610   C620    1.391   .     A
C610   H626    1.086   .     S
C611   C613    1.395   .     A
C612   C614    1.395   .     A
C613   C615    1.401   .     A
C613   H627    1.083   .     S
C614   H628    1.083   .     S
C614   C616    1.401   .     A
C615   C621    1.416   .     A
C615   C617    1.421   .     A
C616   C622    1.416   .     A
C616   C618    1.421   .     A
C617   C619    1.412   .     A
C617   C564    1.402   1_655 S
C618   C620    1.412   .     A
C619   C624    1.399   .     A
C620   C623    1.399   .     A
C621   N637    1.438   .     S
C621   C569    1.398   1_655 S
C622   N640    1.438   .     S
C623   H629    1.085   .     S
C624   H630    1.085   .     S
C624   C568    1.398   1_655 S
C632   C415    1.349   1_565 S
C632   N430    1.436   1_565 S
N634   N957    1.296   .     S
N634   H960    1.029   .     S
H635   N957    1.029   .     S
N637   O638    1.302   .     A
O639   N421    1.302   1_565 S
N640   O641    1.302   .     A
N640   O426    1.302   1_565 S
N643   O645    1.301   .     A
N643   O644    1.301   .     A
N643   C415    1.436   1_565 S
N646   O648    1.301   .     A
N646   O647    1.301   .     A
O649   C653    1.289   .     A
O649   Cu661   1.973   .     S
O650   C654    1.289   .     A
O650   Cu662   1.973   .     S
O651   Cu662   1.967   .     S
O651   C653    1.287   .     A
O652   Cu661   1.967   .     S
O652   C654    1.287   .     A
C653   C685    1.429   .     S
C654   C686    1.429   .     S
O655   Cu661   1.959   .     S
O655   C659    1.294   .     A
O656   C660    1.294   .     A
O656   Cu662   1.959   .     S
O657   C659    1.290   .     A
O657   Cu662   1.945   .     S
O658   C660    1.290   .     A
O658   Cu661   1.945   .     S
C659   C666    1.441   .     S
C660   C665    1.441   .     S
Cu661  Cu662   2.688   .     S
Cu661  N688    2.020   .     S
Cu662  N687    2.020   .     S
C663   H679    1.086   .     S
C663   C673    1.391   .     A
C663   C665    1.393   .     A
C664   C666    1.393   .     A
C664   C674    1.391   .     A
C664   H680    1.086   .     S
C665   C667    1.395   .     A
C666   C668    1.395   .     A
C667   C669    1.401   .     A
C667   H681    1.083   .     S
C668   H682    1.083   .     S
C668   C670    1.401   .     A
C669   C675    1.416   .     A
C669   C671    1.421   .     A
C670   C676    1.416   .     A
C670   C672    1.421   .     A
C671   C673    1.412   .     A
C671   C726    1.402   .     S
C672   C674    1.412   .     A
C672   C725    1.402   1_455 S
C673   C678    1.399   .     A
C674   C677    1.399   .     A
C675   N691    1.438   .     S
C675   C731    1.398   .     S
C676   N694    1.438   .     S
C676   C732    1.398   1_455 S
C677   H683    1.085   .     S
C677   C729    1.398   1_455 S
C678   H684    1.085   .     S
C678   C730    1.398   .     S
C685   C902    1.349   1_545 S
C685   N913    1.436   1_545 S
C686   C793    1.349   .     S
C686   N808    1.436   .     S
N688   N39     1.296   1_556 S
N688   H42     1.029   1_556 S
H689   N39     1.029   1_556 S
N691   O692    1.302   .     A
N691   O909    1.302   1_545 S
O693   N799    1.302   .     S
N694   O695    1.302   .     A
N694   O804    1.302   .     S
O696   N910    1.302   1_545 S
N697   O699    1.301   .     A
N697   O698    1.301   .     A
N697   C793    1.436   .     S
N700   O702    1.301   .     A
N700   O701    1.301   .     A
N700   C902    1.436   1_545 S
O703   C707    1.289   .     A
O703   Cu715   1.973   .     S
O704   C708    1.289   .     A
O704   Cu716   1.973   .     S
O705   Cu716   1.967   .     S
O705   C707    1.287   .     A
O706   Cu715   1.967   .     S
O706   C708    1.287   .     A
C707   C739    1.429   .     S
C708   C740    1.429   .     S
O709   Cu715   1.959   .     S
O709   C713    1.294   .     A
O710   C714    1.294   .     A
O710   Cu716   1.959   .     S
O711   C713    1.290   .     A
O711   Cu716   1.945   .     S
O712   C714    1.290   .     A
O712   Cu715   1.945   .     S
C713   C720    1.441   .     S
C714   C719    1.441   .     S
Cu715  Cu716   2.688   .     S
Cu715  N742    2.020   .     S
Cu716  N741    2.020   .     S
C717   H733    1.086   .     S
C717   C727    1.391   .     A
C717   C719    1.393   .     A
C718   C720    1.393   .     A
C718   C728    1.391   .     A
C718   H734    1.086   .     S
C719   C721    1.395   .     A
C720   C722    1.395   .     A
C721   C723    1.401   .     A
C721   H735    1.083   .     S
C722   H736    1.083   .     S
C722   C724    1.401   .     A
C723   C729    1.416   .     A
C723   C725    1.421   .     A
C724   C730    1.416   .     A
C724   C726    1.421   .     A
C725   C727    1.412   .     A
C725   C672    1.402   1_655 S
C726   C728    1.412   .     A
C727   C732    1.399   .     A
C728   C731    1.399   .     A
C729   N745    1.438   .     S
C729   C677    1.398   1_655 S
C730   N748    1.438   .     S
C731   H737    1.085   .     S
C732   H738    1.085   .     S
C732   C676    1.398   1_655 S
C739   C956    1.349   1_545 S
C739   N967    1.436   1_545 S
C740   C847    1.349   .     S
C740   N862    1.436   .     S
N742   N93     1.296   1_556 S
N742   H96     1.029   1_556 S
H743   N93     1.029   1_556 S
N745   O746    1.302   .     A
N745   O963    1.302   1_545 S
O747   N853    1.302   .     S
N748   O749    1.302   .     A
N748   O858    1.302   .     S
O750   N964    1.302   1_545 S
N751   O753    1.301   .     A
N751   O752    1.301   .     A
N751   C847    1.436   .     S
N754   O756    1.301   .     A
N754   O755    1.301   .     A
N754   C956    1.436   1_545 S
O757   C761    1.289   .     A
O757   Cu769   1.973   .     S
O758   C762    1.289   .     A
O758   Cu770   1.973   .     S
O759   Cu770   1.967   .     S
O759   C761    1.287   .     A
O760   Cu769   1.967   .     S
O760   C762    1.287   .     A
C761   C793    1.429   .     S
C762   C794    1.429   .     S
O763   Cu769   1.959   .     S
O763   C767    1.294   .     A
O764   C768    1.294   .     A
O764   Cu770   1.959   .     S
O765   C767    1.290   .     A
O765   Cu770   1.945   .     S
O766   C768    1.290   .     A
O766   Cu769   1.945   .     S
C767   C774    1.441   .     S
C768   C773    1.441   .     S
Cu769  Cu770   2.688   .     S
Cu769  N796    2.020   .     S
Cu770  N795    2.020   .     S
C771   H787    1.086   .     S
C771   C781    1.391   .     A
C771   C773    1.393   .     A
C772   C774    1.393   .     A
C772   C782    1.391   .     A
C772   H788    1.086   .     S
C773   C775    1.395   .     A
C774   C776    1.395   .     A
C775   C777    1.401   .     A
C775   H789    1.083   .     S
C776   H790    1.083   .     S
C776   C778    1.401   .     A
C777   C783    1.416   .     A
C777   C779    1.421   .     A
C778   C784    1.416   .     A
C778   C780    1.421   .     A
C779   C781    1.412   .     A
C779   C834    1.402   .     S
C780   C782    1.412   .     A
C780   C833    1.402   1_455 S
C781   C786    1.399   .     A
C782   C785    1.399   .     A
C783   N799    1.438   .     S
C783   C839    1.398   .     S
C784   N802    1.438   .     S
C784   C840    1.398   1_455 S
C785   H791    1.085   .     S
C785   C837    1.398   1_455 S
C786   H792    1.085   .     S
C786   C838    1.398   .     S
C794   C901    1.349   .     S
C794   N916    1.436   .     S
N796   N147    1.296   1_556 S
N796   H150    1.029   1_556 S
H797   N147    1.029   1_556 S
N799   O800    1.302   .     A
O801   N907    1.302   .     S
N802   O803    1.302   .     A
N802   O912    1.302   .     S
N805   O807    1.301   .     A
N805   O806    1.301   .     A
N805   C901    1.436   .     S
N808   O810    1.301   .     A
N808   O809    1.301   .     A
O811   C815    1.289   .     A
O811   Cu823   1.973   .     S
O812   C816    1.289   .     A
O812   Cu824   1.973   .     S
O813   Cu824   1.967   .     S
O813   C815    1.287   .     A
O814   Cu823   1.967   .     S
O814   C816    1.287   .     A
C815   C847    1.429   .     S
C816   C848    1.429   .     S
O817   Cu823   1.959   .     S
O817   C821    1.294   .     A
O818   C822    1.294   .     A
O818   Cu824   1.959   .     S
O819   C821    1.290   .     A
O819   Cu824   1.945   .     S
O820   C822    1.290   .     A
O820   Cu823   1.945   .     S
C821   C828    1.441   .     S
C822   C827    1.441   .     S
Cu823  Cu824   2.688   .     S
Cu823  N850    2.020   .     S
Cu824  N849    2.020   .     S
C825   H841    1.086   .     S
C825   C835    1.391   .     A
C825   C827    1.393   .     A
C826   C828    1.393   .     A
C826   C836    1.391   .     A
C826   H842    1.086   .     S
C827   C829    1.395   .     A
C828   C830    1.395   .     A
C829   C831    1.401   .     A
C829   H843    1.083   .     S
C830   H844    1.083   .     S
C830   C832    1.401   .     A
C831   C837    1.416   .     A
C831   C833    1.421   .     A
C832   C838    1.416   .     A
C832   C834    1.421   .     A
C833   C835    1.412   .     A
C833   C780    1.402   1_655 S
C834   C836    1.412   .     A
C835   C840    1.399   .     A
C836   C839    1.399   .     A
C837   N853    1.438   .     S
C837   C785    1.398   1_655 S
C838   N856    1.438   .     S
C839   H845    1.085   .     S
C840   H846    1.085   .     S
C840   C784    1.398   1_655 S
C848   C955    1.349   .     S
C848   N970    1.436   .     S
N850   N201    1.296   1_556 S
N850   H204    1.029   1_556 S
H851   N201    1.029   1_556 S
N853   O854    1.302   .     A
O855   N961    1.302   .     S
N856   O857    1.302   .     A
N856   O966    1.302   .     S
N859   O861    1.301   .     A
N859   O860    1.301   .     A
N859   C955    1.436   .     S
N862   O864    1.301   .     A
N862   O863    1.301   .     A
O865   C869    1.289   .     A
O865   Cu877   1.973   .     S
O866   C870    1.289   .     A
O866   Cu878   1.973   .     S
O867   Cu878   1.967   .     S
O867   C869    1.287   .     A
O868   Cu877   1.967   .     S
O868   C870    1.287   .     A
C869   C901    1.429   .     S
C870   C902    1.429   .     S
O871   Cu877   1.959   .     S
O871   C875    1.294   .     A
O872   C876    1.294   .     A
O872   Cu878   1.959   .     S
O873   C875    1.290   .     A
O873   Cu878   1.945   .     S
O874   C876    1.290   .     A
O874   Cu877   1.945   .     S
C875   C882    1.441   .     S
C876   C881    1.441   .     S
Cu877  Cu878   2.688   .     S
Cu877  N904    2.020   .     S
Cu878  N903    2.020   .     S
C879   H895    1.086   .     S
C879   C889    1.391   .     A
C879   C881    1.393   .     A
C880   C882    1.393   .     A
C880   C890    1.391   .     A
C880   H896    1.086   .     S
C881   C883    1.395   .     A
C882   C884    1.395   .     A
C883   C885    1.401   .     A
C883   H897    1.083   .     S
C884   H898    1.083   .     S
C884   C886    1.401   .     A
C885   C891    1.416   .     A
C885   C887    1.421   .     A
C886   C892    1.416   .     A
C886   C888    1.421   .     A
C887   C889    1.412   .     A
C887   C942    1.402   .     S
C888   C890    1.412   .     A
C888   C941    1.402   1_455 S
C889   C894    1.399   .     A
C890   C893    1.399   .     A
C891   N907    1.438   .     S
C891   C947    1.398   .     S
C892   N910    1.438   .     S
C892   C948    1.398   1_455 S
C893   H899    1.085   .     S
C893   C945    1.398   1_455 S
C894   H900    1.085   .     S
C894   C946    1.398   .     S
C902   C685    1.349   1_565 S
C902   N700    1.436   1_565 S
N904   N255    1.296   1_556 S
N904   H258    1.029   1_556 S
H905   N255    1.029   1_556 S
N907   O908    1.302   .     A
O909   N691    1.302   1_565 S
N910   O911    1.302   .     A
N910   O696    1.302   1_565 S
N913   O915    1.301   .     A
N913   O914    1.301   .     A
N913   C685    1.436   1_565 S
N916   O918    1.301   .     A
N916   O917    1.301   .     A
O919   C923    1.289   .     A
O919   Cu931   1.973   .     S
O920   C924    1.289   .     A
O920   Cu932   1.973   .     S
O921   Cu932   1.967   .     S
O921   C923    1.287   .     A
O922   Cu931   1.967   .     S
O922   C924    1.287   .     A
C923   C955    1.429   .     S
C924   C956    1.429   .     S
O925   Cu931   1.959   .     S
O925   C929    1.294   .     A
O926   C930    1.294   .     A
O926   Cu932   1.959   .     S
O927   C929    1.290   .     A
O927   Cu932   1.945   .     S
O928   C930    1.290   .     A
O928   Cu931   1.945   .     S
C929   C936    1.441   .     S
C930   C935    1.441   .     S
Cu931  Cu932   2.688   .     S
Cu931  N958    2.020   .     S
Cu932  N957    2.020   .     S
C933   H949    1.086   .     S
C933   C943    1.391   .     A
C933   C935    1.393   .     A
C934   C936    1.393   .     A
C934   C944    1.391   .     A
C934   H950    1.086   .     S
C935   C937    1.395   .     A
C936   C938    1.395   .     A
C937   C939    1.401   .     A
C937   H951    1.083   .     S
C938   H952    1.083   .     S
C938   C940    1.401   .     A
C939   C945    1.416   .     A
C939   C941    1.421   .     A
C940   C946    1.416   .     A
C940   C942    1.421   .     A
C941   C943    1.412   .     A
C941   C888    1.402   1_655 S
C942   C944    1.412   .     A
C943   C948    1.399   .     A
C944   C947    1.399   .     A
C945   N961    1.438   .     S
C945   C893    1.398   1_655 S
C946   N964    1.438   .     S
C947   H953    1.085   .     S
C948   H954    1.085   .     S
C948   C892    1.398   1_655 S
C956   C739    1.349   1_565 S
C956   N754    1.436   1_565 S
N958   N309    1.296   1_556 S
N958   H312    1.029   1_556 S
H959   N309    1.029   1_556 S
N961   O962    1.302   .     A
O963   N745    1.302   1_565 S
N964   O965    1.302   .     A
N964   O750    1.302   1_565 S
N967   O969    1.301   .     A
N967   O968    1.301   .     A
N967   C739    1.436   1_565 S
N970   O972    1.301   .     A
N970   O971    1.301   .     A
