data_str_m2_o2_o10_pcu_sym.170
_audit_creation_date              2020-01-03
_audit_creation_method            'Materials Studio'
_symmetry_space_group_name_H-M    'P1'
_symmetry_Int_Tables_number       1
_symmetry_cell_setting            triclinic
loop_
_symmetry_equiv_pos_as_xyz
  x,y,z
_cell_length_a                    26.1626
_cell_length_b                    30.2993
_cell_length_c                    27.9524
_cell_angle_alpha                 90.4907
_cell_angle_beta                  97.8708
_cell_angle_gamma                 91.8485
loop_
_atom_site_label
_atom_site_type_symbol
_atom_site_fract_x
_atom_site_fract_y
_atom_site_fract_z
_atom_site_U_iso_or_equiv
_atom_site_adp_type
_atom_site_occupancy
C1     C     0.16736   0.16520   0.24982   0.00000  Uiso   1.00
C2     C     0.16604   0.33515   0.25029   0.00000  Uiso   1.00
C3     C     0.18768   0.28732   0.05738   0.00000  Uiso   1.00
C4     C     0.12232   0.23326   0.43984   0.00000  Uiso   1.00
C5     C     0.19277   0.28312   0.10824   0.00000  Uiso   1.00
C6     C     0.12721   0.22865   0.39019   0.00000  Uiso   1.00
C7     C     0.14046   0.21777   0.10003   0.00000  Uiso   1.00
C8     C     0.20511   0.27136   0.40160   0.00000  Uiso   1.00
C9     C     0.14289   0.21675   0.05014   0.00000  Uiso   1.00
C10    C     0.20622   0.26904   0.45189   0.00000  Uiso   1.00
C11    C     0.16437   0.25248   0.02704   0.00000  Uiso   1.00
C12    C     0.16374   0.25194   0.47242   0.00000  Uiso   1.00
C13    C     0.06798   0.24995   0.23761   0.00000  Uiso   1.00
C14    C     0.26534   0.25025   0.26237   0.00000  Uiso   1.00
C15    C     0.01265   0.24977   0.23081   0.00000  Uiso   1.00
C16    C     0.32065   0.25082   0.26913   0.00000  Uiso   1.00
C17    C     0.13229   0.04810   0.27501   0.00000  Uiso   1.00
C18    C     0.16488   0.45202   0.20580   0.00000  Uiso   1.00
C19    C     0.13438   0.09393   0.27605   0.00000  Uiso   1.00
C20    C     0.16557   0.40621   0.20709   0.00000  Uiso   1.00
C21    C     0.16729   0.11718   0.24900   0.00000  Uiso   1.00
C22    C     0.16460   0.38378   0.25083   0.00000  Uiso   1.00
C23    C     0.19878   0.09413   0.22095   0.00000  Uiso   1.00
C24    C     0.16207   0.40865   0.29368   0.00000  Uiso   1.00
C25    C     0.19691   0.04815   0.22049   0.00000  Uiso   1.00
C26    C     0.16193   0.45450   0.29190   0.00000  Uiso   1.00
C27    C     0.16376   0.02489   0.24746   0.00000  Uiso   1.00
C28    C     0.16333   0.47644   0.24825   0.00000  Uiso   1.00
Cu29   Cu    0.16667   0.24999   0.29821   0.00000  Uiso   1.00
Cu30   Cu    0.16667   0.25000   0.20178   0.00000  Uiso   1.00
H31    H     0.32599   0.24861   0.19404   0.00000  Uiso   1.00
H32    H     0.00724   0.25223   0.30588   0.00000  Uiso   1.00
H33    H     0.10587   0.03079   0.29555   0.00000  Uiso   1.00
H34    H     0.16520   0.46835   0.17152   0.00000  Uiso   1.00
H35    H     0.10958   0.11127   0.29733   0.00000  Uiso   1.00
H36    H     0.16673   0.38843   0.17353   0.00000  Uiso   1.00
H37    H     0.22226   0.03060   0.19996   0.00000  Uiso   1.00
H38    H     0.16128   0.47315   0.32505   0.00000  Uiso   1.00
H39    H     0.12668   0.18805   0.02954   0.00000  Uiso   1.00
H40    H     0.24029   0.28181   0.47467   0.00000  Uiso   1.00
N41    N     0.16667   0.25001   0.12934   0.00000  Uiso   1.00
N42    N     0.16667   0.24999   0.37065   0.00000  Uiso   1.00
O43    O     0.16667   0.18572   0.29071   0.00000  Uiso   1.00
O44    O     0.16666   0.31427   0.20928   0.00000  Uiso   1.00
O45    O     0.16667   0.18573   0.20928   0.00000  Uiso   1.00
O46    O     0.16666   0.31427   0.29072   0.00000  Uiso   1.00
O47    O     0.09161   0.24999   0.28132   0.00000  Uiso   1.00
O48    O     0.24172   0.25000   0.21868   0.00000  Uiso   1.00
O49    O     0.09161   0.25000   0.19988   0.00000  Uiso   1.00
O50    O     0.24172   0.25000   0.30011   0.00000  Uiso   1.00
Cl51   Cl    0.24311   0.12140   0.18818   0.00000  Uiso   1.00
Cl52   Cl    0.15821   0.38542   0.35082   0.00000  Uiso   1.00
Cl53   Cl    0.20645   0.33835   0.03354   0.00000  Uiso   1.00
Cl54   Cl    0.06201   0.21910   0.45858   0.00000  Uiso   1.00
Cl55   Cl    0.23658   0.31975   0.14350   0.00000  Uiso   1.00
Cl56   Cl    0.08359   0.19169   0.35526   0.00000  Uiso   1.00
Cl57   Cl    0.10103   0.17703   0.12230   0.00000  Uiso   1.00
Cl58   Cl    0.25403   0.30409   0.38099   0.00000  Uiso   1.00
C59    C     0.50069   0.16520   0.24982   0.00000  Uiso   1.00
C60    C     0.49937   0.33515   0.25029   0.00000  Uiso   1.00
C61    C     0.52101   0.28732   0.05738   0.00000  Uiso   1.00
C62    C     0.45566   0.23326   0.43984   0.00000  Uiso   1.00
C63    C     0.52610   0.28312   0.10824   0.00000  Uiso   1.00
C64    C     0.46055   0.22865   0.39019   0.00000  Uiso   1.00
C65    C     0.47379   0.21777   0.10003   0.00000  Uiso   1.00
C66    C     0.53844   0.27136   0.40160   0.00000  Uiso   1.00
C67    C     0.47622   0.21675   0.05014   0.00000  Uiso   1.00
C68    C     0.53955   0.26904   0.45189   0.00000  Uiso   1.00
C69    C     0.49770   0.25248   0.02704   0.00000  Uiso   1.00
C70    C     0.49708   0.25194   0.47242   0.00000  Uiso   1.00
C71    C     0.40132   0.24995   0.23761   0.00000  Uiso   1.00
C72    C     0.59867   0.25025   0.26237   0.00000  Uiso   1.00
C73    C     0.34598   0.24977   0.23081   0.00000  Uiso   1.00
C74    C     0.65399   0.25082   0.26913   0.00000  Uiso   1.00
C75    C     0.46563   0.04810   0.27501   0.00000  Uiso   1.00
C76    C     0.49822   0.45202   0.20580   0.00000  Uiso   1.00
C77    C     0.46771   0.09393   0.27605   0.00000  Uiso   1.00
C78    C     0.49890   0.40621   0.20709   0.00000  Uiso   1.00
C79    C     0.50062   0.11718   0.24900   0.00000  Uiso   1.00
C80    C     0.49794   0.38378   0.25083   0.00000  Uiso   1.00
C81    C     0.53211   0.09413   0.22095   0.00000  Uiso   1.00
C82    C     0.49540   0.40865   0.29368   0.00000  Uiso   1.00
C83    C     0.53025   0.04815   0.22049   0.00000  Uiso   1.00
C84    C     0.49526   0.45450   0.29190   0.00000  Uiso   1.00
C85    C     0.49710   0.02489   0.24746   0.00000  Uiso   1.00
C86    C     0.49666   0.47644   0.24825   0.00000  Uiso   1.00
Cu87   Cu    0.50000   0.24999   0.29821   0.00000  Uiso   1.00
Cu88   Cu    0.50000   0.25000   0.20178   0.00000  Uiso   1.00
H89    H     0.65933   0.24861   0.19404   0.00000  Uiso   1.00
H90    H     0.34058   0.25223   0.30588   0.00000  Uiso   1.00
H91    H     0.43920   0.03079   0.29555   0.00000  Uiso   1.00
H92    H     0.49853   0.46835   0.17152   0.00000  Uiso   1.00
H93    H     0.44292   0.11127   0.29733   0.00000  Uiso   1.00
H94    H     0.50006   0.38843   0.17353   0.00000  Uiso   1.00
H95    H     0.55560   0.03060   0.19996   0.00000  Uiso   1.00
H96    H     0.49462   0.47315   0.32505   0.00000  Uiso   1.00
H97    H     0.46001   0.18805   0.02954   0.00000  Uiso   1.00
H98    H     0.57363   0.28181   0.47467   0.00000  Uiso   1.00
N99    N     0.50000   0.25001   0.12934   0.00000  Uiso   1.00
N100   N     0.50000   0.24999   0.37065   0.00000  Uiso   1.00
O101   O     0.50000   0.18572   0.29071   0.00000  Uiso   1.00
O102   O     0.50000   0.31427   0.20928   0.00000  Uiso   1.00
O103   O     0.50000   0.18573   0.20928   0.00000  Uiso   1.00
O104   O     0.50000   0.31427   0.29072   0.00000  Uiso   1.00
O105   O     0.42495   0.24999   0.28132   0.00000  Uiso   1.00
O106   O     0.57505   0.25000   0.21868   0.00000  Uiso   1.00
O107   O     0.42495   0.25000   0.19988   0.00000  Uiso   1.00
O108   O     0.57505   0.25000   0.30011   0.00000  Uiso   1.00
Cl109  Cl    0.57645   0.12140   0.18818   0.00000  Uiso   1.00
Cl110  Cl    0.49154   0.38542   0.35082   0.00000  Uiso   1.00
Cl111  Cl    0.53978   0.33835   0.03354   0.00000  Uiso   1.00
Cl112  Cl    0.39535   0.21910   0.45858   0.00000  Uiso   1.00
Cl113  Cl    0.56992   0.31975   0.14350   0.00000  Uiso   1.00
Cl114  Cl    0.41692   0.19169   0.35526   0.00000  Uiso   1.00
Cl115  Cl    0.43436   0.17703   0.12230   0.00000  Uiso   1.00
Cl116  Cl    0.58736   0.30409   0.38099   0.00000  Uiso   1.00
C117   C     0.83402   0.16520   0.24982   0.00000  Uiso   1.00
C118   C     0.83270   0.33515   0.25029   0.00000  Uiso   1.00
C119   C     0.85434   0.28732   0.05738   0.00000  Uiso   1.00
C120   C     0.78899   0.23326   0.43984   0.00000  Uiso   1.00
C121   C     0.85944   0.28312   0.10824   0.00000  Uiso   1.00
C122   C     0.79388   0.22865   0.39019   0.00000  Uiso   1.00
C123   C     0.80712   0.21777   0.10003   0.00000  Uiso   1.00
C124   C     0.87178   0.27136   0.40160   0.00000  Uiso   1.00
C125   C     0.80956   0.21675   0.05014   0.00000  Uiso   1.00
C126   C     0.87289   0.26904   0.45189   0.00000  Uiso   1.00
C127   C     0.83104   0.25248   0.02704   0.00000  Uiso   1.00
C128   C     0.83041   0.25194   0.47242   0.00000  Uiso   1.00
C129   C     0.73465   0.24995   0.23761   0.00000  Uiso   1.00
C130   C     0.93200   0.25025   0.26237   0.00000  Uiso   1.00
C131   C     0.67931   0.24977   0.23081   0.00000  Uiso   1.00
C132   C     0.98732   0.25082   0.26913   0.00000  Uiso   1.00
C133   C     0.79896   0.04810   0.27501   0.00000  Uiso   1.00
C134   C     0.83155   0.45202   0.20580   0.00000  Uiso   1.00
C135   C     0.80105   0.09393   0.27605   0.00000  Uiso   1.00
C136   C     0.83224   0.40621   0.20709   0.00000  Uiso   1.00
C137   C     0.83396   0.11718   0.24900   0.00000  Uiso   1.00
C138   C     0.83127   0.38378   0.25083   0.00000  Uiso   1.00
C139   C     0.86545   0.09413   0.22095   0.00000  Uiso   1.00
C140   C     0.82873   0.40865   0.29368   0.00000  Uiso   1.00
C141   C     0.86358   0.04815   0.22049   0.00000  Uiso   1.00
C142   C     0.82859   0.45450   0.29190   0.00000  Uiso   1.00
C143   C     0.83043   0.02489   0.24746   0.00000  Uiso   1.00
C144   C     0.82999   0.47644   0.24825   0.00000  Uiso   1.00
Cu145  Cu    0.83333   0.24999   0.29821   0.00000  Uiso   1.00
Cu146  Cu    0.83333   0.25000   0.20178   0.00000  Uiso   1.00
H147   H     0.99266   0.24861   0.19404   0.00000  Uiso   1.00
H148   H     0.67391   0.25223   0.30588   0.00000  Uiso   1.00
H149   H     0.77253   0.03079   0.29555   0.00000  Uiso   1.00
H150   H     0.83187   0.46835   0.17152   0.00000  Uiso   1.00
H151   H     0.77625   0.11127   0.29733   0.00000  Uiso   1.00
H152   H     0.83339   0.38843   0.17353   0.00000  Uiso   1.00
H153   H     0.88893   0.03060   0.19996   0.00000  Uiso   1.00
H154   H     0.82795   0.47315   0.32505   0.00000  Uiso   1.00
H155   H     0.79334   0.18805   0.02954   0.00000  Uiso   1.00
H156   H     0.90696   0.28181   0.47467   0.00000  Uiso   1.00
N157   N     0.83333   0.25001   0.12934   0.00000  Uiso   1.00
N158   N     0.83333   0.24999   0.37065   0.00000  Uiso   1.00
O159   O     0.83334   0.18572   0.29071   0.00000  Uiso   1.00
O160   O     0.83333   0.31427   0.20928   0.00000  Uiso   1.00
O161   O     0.83334   0.18573   0.20928   0.00000  Uiso   1.00
O162   O     0.83333   0.31427   0.29072   0.00000  Uiso   1.00
O163   O     0.75828   0.24999   0.28132   0.00000  Uiso   1.00
O164   O     0.90839   0.25000   0.21868   0.00000  Uiso   1.00
O165   O     0.75828   0.25000   0.19988   0.00000  Uiso   1.00
O166   O     0.90839   0.25000   0.30011   0.00000  Uiso   1.00
Cl167  Cl    0.90978   0.12140   0.18818   0.00000  Uiso   1.00
Cl168  Cl    0.82487   0.38542   0.35082   0.00000  Uiso   1.00
Cl169  Cl    0.87312   0.33835   0.03354   0.00000  Uiso   1.00
Cl170  Cl    0.72868   0.21910   0.45858   0.00000  Uiso   1.00
Cl171  Cl    0.90325   0.31975   0.14350   0.00000  Uiso   1.00
Cl172  Cl    0.75025   0.19169   0.35526   0.00000  Uiso   1.00
Cl173  Cl    0.76770   0.17703   0.12230   0.00000  Uiso   1.00
Cl174  Cl    0.92070   0.30409   0.38099   0.00000  Uiso   1.00
C175   C     0.16736   0.66520   0.24982   0.00000  Uiso   1.00
C176   C     0.16604   0.83515   0.25029   0.00000  Uiso   1.00
C177   C     0.18768   0.78732   0.05738   0.00000  Uiso   1.00
C178   C     0.12232   0.73326   0.43984   0.00000  Uiso   1.00
C179   C     0.19277   0.78312   0.10824   0.00000  Uiso   1.00
C180   C     0.12721   0.72865   0.39019   0.00000  Uiso   1.00
C181   C     0.14046   0.71777   0.10003   0.00000  Uiso   1.00
C182   C     0.20511   0.77136   0.40160   0.00000  Uiso   1.00
C183   C     0.14289   0.71675   0.05014   0.00000  Uiso   1.00
C184   C     0.20622   0.76904   0.45189   0.00000  Uiso   1.00
C185   C     0.16437   0.75248   0.02704   0.00000  Uiso   1.00
C186   C     0.16374   0.75194   0.47242   0.00000  Uiso   1.00
C187   C     0.06798   0.74995   0.23761   0.00000  Uiso   1.00
C188   C     0.26534   0.75025   0.26237   0.00000  Uiso   1.00
C189   C     0.01265   0.74977   0.23081   0.00000  Uiso   1.00
C190   C     0.32065   0.75082   0.26913   0.00000  Uiso   1.00
C191   C     0.13229   0.54810   0.27501   0.00000  Uiso   1.00
C192   C     0.16488   0.95202   0.20580   0.00000  Uiso   1.00
C193   C     0.13438   0.59393   0.27605   0.00000  Uiso   1.00
C194   C     0.16557   0.90621   0.20709   0.00000  Uiso   1.00
C195   C     0.16729   0.61718   0.24900   0.00000  Uiso   1.00
C196   C     0.16460   0.88378   0.25083   0.00000  Uiso   1.00
C197   C     0.19878   0.59413   0.22095   0.00000  Uiso   1.00
C198   C     0.16207   0.90865   0.29368   0.00000  Uiso   1.00
C199   C     0.19691   0.54815   0.22049   0.00000  Uiso   1.00
C200   C     0.16193   0.95450   0.29190   0.00000  Uiso   1.00
C201   C     0.16376   0.52489   0.24746   0.00000  Uiso   1.00
C202   C     0.16333   0.97644   0.24825   0.00000  Uiso   1.00
Cu203  Cu    0.16667   0.74999   0.29821   0.00000  Uiso   1.00
Cu204  Cu    0.16667   0.75000   0.20178   0.00000  Uiso   1.00
H205   H     0.32599   0.74861   0.19404   0.00000  Uiso   1.00
H206   H     0.00724   0.75223   0.30588   0.00000  Uiso   1.00
H207   H     0.10587   0.53079   0.29555   0.00000  Uiso   1.00
H208   H     0.16520   0.96835   0.17152   0.00000  Uiso   1.00
H209   H     0.10958   0.61127   0.29733   0.00000  Uiso   1.00
H210   H     0.16673   0.88843   0.17353   0.00000  Uiso   1.00
H211   H     0.22226   0.53060   0.19996   0.00000  Uiso   1.00
H212   H     0.16128   0.97315   0.32505   0.00000  Uiso   1.00
H213   H     0.12668   0.68805   0.02954   0.00000  Uiso   1.00
H214   H     0.24029   0.78181   0.47467   0.00000  Uiso   1.00
N215   N     0.16667   0.75001   0.12934   0.00000  Uiso   1.00
N216   N     0.16667   0.74999   0.37065   0.00000  Uiso   1.00
O217   O     0.16667   0.68572   0.29071   0.00000  Uiso   1.00
O218   O     0.16666   0.81427   0.20928   0.00000  Uiso   1.00
O219   O     0.16667   0.68573   0.20928   0.00000  Uiso   1.00
O220   O     0.16666   0.81427   0.29072   0.00000  Uiso   1.00
O221   O     0.09161   0.74999   0.28132   0.00000  Uiso   1.00
O222   O     0.24172   0.75000   0.21868   0.00000  Uiso   1.00
O223   O     0.09161   0.75000   0.19988   0.00000  Uiso   1.00
O224   O     0.24172   0.75000   0.30011   0.00000  Uiso   1.00
Cl225  Cl    0.24311   0.62140   0.18818   0.00000  Uiso   1.00
Cl226  Cl    0.15821   0.88542   0.35082   0.00000  Uiso   1.00
Cl227  Cl    0.20645   0.83835   0.03354   0.00000  Uiso   1.00
Cl228  Cl    0.06201   0.71910   0.45858   0.00000  Uiso   1.00
Cl229  Cl    0.23658   0.81975   0.14350   0.00000  Uiso   1.00
Cl230  Cl    0.08359   0.69169   0.35526   0.00000  Uiso   1.00
Cl231  Cl    0.10103   0.67703   0.12230   0.00000  Uiso   1.00
Cl232  Cl    0.25403   0.80409   0.38099   0.00000  Uiso   1.00
C233   C     0.50069   0.66520   0.24982   0.00000  Uiso   1.00
C234   C     0.49937   0.83515   0.25029   0.00000  Uiso   1.00
C235   C     0.52101   0.78732   0.05738   0.00000  Uiso   1.00
C236   C     0.45566   0.73326   0.43984   0.00000  Uiso   1.00
C237   C     0.52610   0.78312   0.10824   0.00000  Uiso   1.00
C238   C     0.46055   0.72865   0.39019   0.00000  Uiso   1.00
C239   C     0.47379   0.71777   0.10003   0.00000  Uiso   1.00
C240   C     0.53844   0.77136   0.40160   0.00000  Uiso   1.00
C241   C     0.47622   0.71675   0.05014   0.00000  Uiso   1.00
C242   C     0.53955   0.76904   0.45189   0.00000  Uiso   1.00
C243   C     0.49770   0.75248   0.02704   0.00000  Uiso   1.00
C244   C     0.49708   0.75194   0.47242   0.00000  Uiso   1.00
C245   C     0.40132   0.74995   0.23761   0.00000  Uiso   1.00
C246   C     0.59867   0.75025   0.26237   0.00000  Uiso   1.00
C247   C     0.34598   0.74977   0.23081   0.00000  Uiso   1.00
C248   C     0.65399   0.75082   0.26913   0.00000  Uiso   1.00
C249   C     0.46563   0.54810   0.27501   0.00000  Uiso   1.00
C250   C     0.49822   0.95202   0.20580   0.00000  Uiso   1.00
C251   C     0.46771   0.59393   0.27605   0.00000  Uiso   1.00
C252   C     0.49890   0.90621   0.20709   0.00000  Uiso   1.00
C253   C     0.50062   0.61718   0.24900   0.00000  Uiso   1.00
C254   C     0.49794   0.88378   0.25083   0.00000  Uiso   1.00
C255   C     0.53211   0.59413   0.22095   0.00000  Uiso   1.00
C256   C     0.49540   0.90865   0.29368   0.00000  Uiso   1.00
C257   C     0.53025   0.54815   0.22049   0.00000  Uiso   1.00
C258   C     0.49526   0.95450   0.29190   0.00000  Uiso   1.00
C259   C     0.49710   0.52489   0.24746   0.00000  Uiso   1.00
C260   C     0.49666   0.97644   0.24825   0.00000  Uiso   1.00
Cu261  Cu    0.50000   0.74999   0.29821   0.00000  Uiso   1.00
Cu262  Cu    0.50000   0.75000   0.20178   0.00000  Uiso   1.00
H263   H     0.65933   0.74861   0.19404   0.00000  Uiso   1.00
H264   H     0.34058   0.75223   0.30588   0.00000  Uiso   1.00
H265   H     0.43920   0.53079   0.29555   0.00000  Uiso   1.00
H266   H     0.49853   0.96835   0.17152   0.00000  Uiso   1.00
H267   H     0.44292   0.61127   0.29733   0.00000  Uiso   1.00
H268   H     0.50006   0.88843   0.17353   0.00000  Uiso   1.00
H269   H     0.55560   0.53060   0.19996   0.00000  Uiso   1.00
H270   H     0.49462   0.97315   0.32505   0.00000  Uiso   1.00
H271   H     0.46001   0.68805   0.02954   0.00000  Uiso   1.00
H272   H     0.57363   0.78181   0.47467   0.00000  Uiso   1.00
N273   N     0.50000   0.75001   0.12934   0.00000  Uiso   1.00
N274   N     0.50000   0.74999   0.37065   0.00000  Uiso   1.00
O275   O     0.50000   0.68572   0.29071   0.00000  Uiso   1.00
O276   O     0.50000   0.81427   0.20928   0.00000  Uiso   1.00
O277   O     0.50000   0.68573   0.20928   0.00000  Uiso   1.00
O278   O     0.50000   0.81427   0.29072   0.00000  Uiso   1.00
O279   O     0.42495   0.74999   0.28132   0.00000  Uiso   1.00
O280   O     0.57505   0.75000   0.21868   0.00000  Uiso   1.00
O281   O     0.42495   0.75000   0.19988   0.00000  Uiso   1.00
O282   O     0.57505   0.75000   0.30011   0.00000  Uiso   1.00
Cl283  Cl    0.57645   0.62140   0.18818   0.00000  Uiso   1.00
Cl284  Cl    0.49154   0.88542   0.35082   0.00000  Uiso   1.00
Cl285  Cl    0.53978   0.83835   0.03354   0.00000  Uiso   1.00
Cl286  Cl    0.39535   0.71910   0.45858   0.00000  Uiso   1.00
Cl287  Cl    0.56992   0.81975   0.14350   0.00000  Uiso   1.00
Cl288  Cl    0.41692   0.69169   0.35526   0.00000  Uiso   1.00
Cl289  Cl    0.43436   0.67703   0.12230   0.00000  Uiso   1.00
Cl290  Cl    0.58736   0.80409   0.38099   0.00000  Uiso   1.00
C291   C     0.83402   0.66520   0.24982   0.00000  Uiso   1.00
C292   C     0.83270   0.83515   0.25029   0.00000  Uiso   1.00
C293   C     0.85434   0.78732   0.05738   0.00000  Uiso   1.00
C294   C     0.78899   0.73326   0.43984   0.00000  Uiso   1.00
C295   C     0.85944   0.78312   0.10824   0.00000  Uiso   1.00
C296   C     0.79388   0.72865   0.39019   0.00000  Uiso   1.00
C297   C     0.80712   0.71777   0.10003   0.00000  Uiso   1.00
C298   C     0.87178   0.77136   0.40160   0.00000  Uiso   1.00
C299   C     0.80956   0.71675   0.05014   0.00000  Uiso   1.00
C300   C     0.87289   0.76904   0.45189   0.00000  Uiso   1.00
C301   C     0.83104   0.75248   0.02704   0.00000  Uiso   1.00
C302   C     0.83041   0.75194   0.47242   0.00000  Uiso   1.00
C303   C     0.73465   0.74995   0.23761   0.00000  Uiso   1.00
C304   C     0.93200   0.75025   0.26237   0.00000  Uiso   1.00
C305   C     0.67931   0.74977   0.23081   0.00000  Uiso   1.00
C306   C     0.98732   0.75082   0.26913   0.00000  Uiso   1.00
C307   C     0.79896   0.54810   0.27501   0.00000  Uiso   1.00
C308   C     0.83155   0.95202   0.20580   0.00000  Uiso   1.00
C309   C     0.80105   0.59393   0.27605   0.00000  Uiso   1.00
C310   C     0.83224   0.90621   0.20709   0.00000  Uiso   1.00
C311   C     0.83396   0.61718   0.24900   0.00000  Uiso   1.00
C312   C     0.83127   0.88378   0.25083   0.00000  Uiso   1.00
C313   C     0.86545   0.59413   0.22095   0.00000  Uiso   1.00
C314   C     0.82873   0.90865   0.29368   0.00000  Uiso   1.00
C315   C     0.86358   0.54815   0.22049   0.00000  Uiso   1.00
C316   C     0.82859   0.95450   0.29190   0.00000  Uiso   1.00
C317   C     0.83043   0.52489   0.24746   0.00000  Uiso   1.00
C318   C     0.82999   0.97644   0.24825   0.00000  Uiso   1.00
Cu319  Cu    0.83333   0.74999   0.29821   0.00000  Uiso   1.00
Cu320  Cu    0.83333   0.75000   0.20178   0.00000  Uiso   1.00
H321   H     0.99266   0.74861   0.19404   0.00000  Uiso   1.00
H322   H     0.67391   0.75223   0.30588   0.00000  Uiso   1.00
H323   H     0.77253   0.53079   0.29555   0.00000  Uiso   1.00
H324   H     0.83187   0.96835   0.17152   0.00000  Uiso   1.00
H325   H     0.77625   0.61127   0.29733   0.00000  Uiso   1.00
H326   H     0.83339   0.88843   0.17353   0.00000  Uiso   1.00
H327   H     0.88893   0.53060   0.19996   0.00000  Uiso   1.00
H328   H     0.82795   0.97315   0.32505   0.00000  Uiso   1.00
H329   H     0.79334   0.68805   0.02954   0.00000  Uiso   1.00
H330   H     0.90696   0.78181   0.47467   0.00000  Uiso   1.00
N331   N     0.83333   0.75001   0.12934   0.00000  Uiso   1.00
N332   N     0.83333   0.74999   0.37065   0.00000  Uiso   1.00
O333   O     0.83334   0.68572   0.29071   0.00000  Uiso   1.00
O334   O     0.83333   0.81427   0.20928   0.00000  Uiso   1.00
O335   O     0.83334   0.68573   0.20928   0.00000  Uiso   1.00
O336   O     0.83333   0.81427   0.29072   0.00000  Uiso   1.00
O337   O     0.75828   0.74999   0.28132   0.00000  Uiso   1.00
O338   O     0.90839   0.75000   0.21868   0.00000  Uiso   1.00
O339   O     0.75828   0.75000   0.19988   0.00000  Uiso   1.00
O340   O     0.90839   0.75000   0.30011   0.00000  Uiso   1.00
Cl341  Cl    0.90978   0.62140   0.18818   0.00000  Uiso   1.00
Cl342  Cl    0.82487   0.88542   0.35082   0.00000  Uiso   1.00
Cl343  Cl    0.87312   0.83835   0.03354   0.00000  Uiso   1.00
Cl344  Cl    0.72868   0.71910   0.45858   0.00000  Uiso   1.00
Cl345  Cl    0.90325   0.81975   0.14350   0.00000  Uiso   1.00
Cl346  Cl    0.75025   0.69169   0.35526   0.00000  Uiso   1.00
Cl347  Cl    0.76770   0.67703   0.12230   0.00000  Uiso   1.00
Cl348  Cl    0.92070   0.80409   0.38099   0.00000  Uiso   1.00
C349   C     0.16736   0.16520   0.74982   0.00000  Uiso   1.00
C350   C     0.16604   0.33515   0.75029   0.00000  Uiso   1.00
C351   C     0.18768   0.28732   0.55738   0.00000  Uiso   1.00
C352   C     0.12232   0.23326   0.93984   0.00000  Uiso   1.00
C353   C     0.19277   0.28312   0.60824   0.00000  Uiso   1.00
C354   C     0.12721   0.22865   0.89019   0.00000  Uiso   1.00
C355   C     0.14046   0.21777   0.60003   0.00000  Uiso   1.00
C356   C     0.20511   0.27136   0.90160   0.00000  Uiso   1.00
C357   C     0.14289   0.21675   0.55014   0.00000  Uiso   1.00
C358   C     0.20622   0.26904   0.95189   0.00000  Uiso   1.00
C359   C     0.16437   0.25248   0.52704   0.00000  Uiso   1.00
C360   C     0.16374   0.25194   0.97242   0.00000  Uiso   1.00
C361   C     0.06798   0.24995   0.73761   0.00000  Uiso   1.00
C362   C     0.26534   0.25025   0.76237   0.00000  Uiso   1.00
C363   C     0.01265   0.24977   0.73081   0.00000  Uiso   1.00
C364   C     0.32065   0.25082   0.76913   0.00000  Uiso   1.00
C365   C     0.13229   0.04810   0.77501   0.00000  Uiso   1.00
C366   C     0.16488   0.45202   0.70580   0.00000  Uiso   1.00
C367   C     0.13438   0.09393   0.77605   0.00000  Uiso   1.00
C368   C     0.16557   0.40621   0.70709   0.00000  Uiso   1.00
C369   C     0.16729   0.11718   0.74900   0.00000  Uiso   1.00
C370   C     0.16460   0.38378   0.75083   0.00000  Uiso   1.00
C371   C     0.19878   0.09413   0.72095   0.00000  Uiso   1.00
C372   C     0.16207   0.40865   0.79368   0.00000  Uiso   1.00
C373   C     0.19691   0.04815   0.72049   0.00000  Uiso   1.00
C374   C     0.16193   0.45450   0.79190   0.00000  Uiso   1.00
C375   C     0.16376   0.02489   0.74746   0.00000  Uiso   1.00
C376   C     0.16333   0.47644   0.74825   0.00000  Uiso   1.00
Cu377  Cu    0.16667   0.24999   0.79821   0.00000  Uiso   1.00
Cu378  Cu    0.16667   0.25000   0.70178   0.00000  Uiso   1.00
H379   H     0.32599   0.24861   0.69404   0.00000  Uiso   1.00
H380   H     0.00724   0.25223   0.80588   0.00000  Uiso   1.00
H381   H     0.10587   0.03079   0.79555   0.00000  Uiso   1.00
H382   H     0.16520   0.46835   0.67152   0.00000  Uiso   1.00
H383   H     0.10958   0.11127   0.79733   0.00000  Uiso   1.00
H384   H     0.16673   0.38843   0.67353   0.00000  Uiso   1.00
H385   H     0.22226   0.03060   0.69996   0.00000  Uiso   1.00
H386   H     0.16128   0.47315   0.82505   0.00000  Uiso   1.00
H387   H     0.12668   0.18805   0.52954   0.00000  Uiso   1.00
H388   H     0.24029   0.28181   0.97467   0.00000  Uiso   1.00
N389   N     0.16667   0.25001   0.62934   0.00000  Uiso   1.00
N390   N     0.16667   0.24999   0.87065   0.00000  Uiso   1.00
O391   O     0.16667   0.18572   0.79071   0.00000  Uiso   1.00
O392   O     0.16666   0.31427   0.70928   0.00000  Uiso   1.00
O393   O     0.16667   0.18573   0.70928   0.00000  Uiso   1.00
O394   O     0.16666   0.31427   0.79072   0.00000  Uiso   1.00
O395   O     0.09161   0.24999   0.78132   0.00000  Uiso   1.00
O396   O     0.24172   0.25000   0.71868   0.00000  Uiso   1.00
O397   O     0.09161   0.25000   0.69988   0.00000  Uiso   1.00
O398   O     0.24172   0.25000   0.80011   0.00000  Uiso   1.00
Cl399  Cl    0.24311   0.12140   0.68818   0.00000  Uiso   1.00
Cl400  Cl    0.15821   0.38542   0.85082   0.00000  Uiso   1.00
Cl401  Cl    0.20645   0.33835   0.53354   0.00000  Uiso   1.00
Cl402  Cl    0.06201   0.21910   0.95858   0.00000  Uiso   1.00
Cl403  Cl    0.23658   0.31975   0.64350   0.00000  Uiso   1.00
Cl404  Cl    0.08359   0.19169   0.85526   0.00000  Uiso   1.00
Cl405  Cl    0.10103   0.17703   0.62230   0.00000  Uiso   1.00
Cl406  Cl    0.25403   0.30409   0.88099   0.00000  Uiso   1.00
C407   C     0.50069   0.16520   0.74982   0.00000  Uiso   1.00
C408   C     0.49937   0.33515   0.75029   0.00000  Uiso   1.00
C409   C     0.52101   0.28732   0.55738   0.00000  Uiso   1.00
C410   C     0.45566   0.23326   0.93984   0.00000  Uiso   1.00
C411   C     0.52610   0.28312   0.60824   0.00000  Uiso   1.00
C412   C     0.46055   0.22865   0.89019   0.00000  Uiso   1.00
C413   C     0.47379   0.21777   0.60003   0.00000  Uiso   1.00
C414   C     0.53844   0.27136   0.90160   0.00000  Uiso   1.00
C415   C     0.47622   0.21675   0.55014   0.00000  Uiso   1.00
C416   C     0.53955   0.26904   0.95189   0.00000  Uiso   1.00
C417   C     0.49770   0.25248   0.52704   0.00000  Uiso   1.00
C418   C     0.49708   0.25194   0.97242   0.00000  Uiso   1.00
C419   C     0.40132   0.24995   0.73761   0.00000  Uiso   1.00
C420   C     0.59867   0.25025   0.76237   0.00000  Uiso   1.00
C421   C     0.34598   0.24977   0.73081   0.00000  Uiso   1.00
C422   C     0.65399   0.25082   0.76913   0.00000  Uiso   1.00
C423   C     0.46563   0.04810   0.77501   0.00000  Uiso   1.00
C424   C     0.49822   0.45202   0.70580   0.00000  Uiso   1.00
C425   C     0.46771   0.09393   0.77605   0.00000  Uiso   1.00
C426   C     0.49890   0.40621   0.70709   0.00000  Uiso   1.00
C427   C     0.50062   0.11718   0.74900   0.00000  Uiso   1.00
C428   C     0.49794   0.38378   0.75083   0.00000  Uiso   1.00
C429   C     0.53211   0.09413   0.72095   0.00000  Uiso   1.00
C430   C     0.49540   0.40865   0.79368   0.00000  Uiso   1.00
C431   C     0.53025   0.04815   0.72049   0.00000  Uiso   1.00
C432   C     0.49526   0.45450   0.79190   0.00000  Uiso   1.00
C433   C     0.49710   0.02489   0.74746   0.00000  Uiso   1.00
C434   C     0.49666   0.47644   0.74825   0.00000  Uiso   1.00
Cu435  Cu    0.50000   0.24999   0.79821   0.00000  Uiso   1.00
Cu436  Cu    0.50000   0.25000   0.70178   0.00000  Uiso   1.00
H437   H     0.65933   0.24861   0.69404   0.00000  Uiso   1.00
H438   H     0.34058   0.25223   0.80588   0.00000  Uiso   1.00
H439   H     0.43920   0.03079   0.79555   0.00000  Uiso   1.00
H440   H     0.49853   0.46835   0.67152   0.00000  Uiso   1.00
H441   H     0.44292   0.11127   0.79733   0.00000  Uiso   1.00
H442   H     0.50006   0.38843   0.67353   0.00000  Uiso   1.00
H443   H     0.55560   0.03060   0.69996   0.00000  Uiso   1.00
H444   H     0.49462   0.47315   0.82505   0.00000  Uiso   1.00
H445   H     0.46001   0.18805   0.52954   0.00000  Uiso   1.00
H446   H     0.57363   0.28181   0.97467   0.00000  Uiso   1.00
N447   N     0.50000   0.25001   0.62934   0.00000  Uiso   1.00
N448   N     0.50000   0.24999   0.87065   0.00000  Uiso   1.00
O449   O     0.50000   0.18572   0.79071   0.00000  Uiso   1.00
O450   O     0.50000   0.31427   0.70928   0.00000  Uiso   1.00
O451   O     0.50000   0.18573   0.70928   0.00000  Uiso   1.00
O452   O     0.50000   0.31427   0.79072   0.00000  Uiso   1.00
O453   O     0.42495   0.24999   0.78132   0.00000  Uiso   1.00
O454   O     0.57505   0.25000   0.71868   0.00000  Uiso   1.00
O455   O     0.42495   0.25000   0.69988   0.00000  Uiso   1.00
O456   O     0.57505   0.25000   0.80011   0.00000  Uiso   1.00
Cl457  Cl    0.57645   0.12140   0.68818   0.00000  Uiso   1.00
Cl458  Cl    0.49154   0.38542   0.85082   0.00000  Uiso   1.00
Cl459  Cl    0.53978   0.33835   0.53354   0.00000  Uiso   1.00
Cl460  Cl    0.39535   0.21910   0.95858   0.00000  Uiso   1.00
Cl461  Cl    0.56992   0.31975   0.64350   0.00000  Uiso   1.00
Cl462  Cl    0.41692   0.19169   0.85526   0.00000  Uiso   1.00
Cl463  Cl    0.43436   0.17703   0.62230   0.00000  Uiso   1.00
Cl464  Cl    0.58736   0.30409   0.88099   0.00000  Uiso   1.00
C465   C     0.83402   0.16520   0.74982   0.00000  Uiso   1.00
C466   C     0.83270   0.33515   0.75029   0.00000  Uiso   1.00
C467   C     0.85434   0.28732   0.55738   0.00000  Uiso   1.00
C468   C     0.78899   0.23326   0.93984   0.00000  Uiso   1.00
C469   C     0.85944   0.28312   0.60824   0.00000  Uiso   1.00
C470   C     0.79388   0.22865   0.89019   0.00000  Uiso   1.00
C471   C     0.80712   0.21777   0.60003   0.00000  Uiso   1.00
C472   C     0.87178   0.27136   0.90160   0.00000  Uiso   1.00
C473   C     0.80956   0.21675   0.55014   0.00000  Uiso   1.00
C474   C     0.87289   0.26904   0.95189   0.00000  Uiso   1.00
C475   C     0.83104   0.25248   0.52704   0.00000  Uiso   1.00
C476   C     0.83041   0.25194   0.97242   0.00000  Uiso   1.00
C477   C     0.73465   0.24995   0.73761   0.00000  Uiso   1.00
C478   C     0.93200   0.25025   0.76237   0.00000  Uiso   1.00
C479   C     0.67931   0.24977   0.73081   0.00000  Uiso   1.00
C480   C     0.98732   0.25082   0.76913   0.00000  Uiso   1.00
C481   C     0.79896   0.04810   0.77501   0.00000  Uiso   1.00
C482   C     0.83155   0.45202   0.70580   0.00000  Uiso   1.00
C483   C     0.80105   0.09393   0.77605   0.00000  Uiso   1.00
C484   C     0.83224   0.40621   0.70709   0.00000  Uiso   1.00
C485   C     0.83396   0.11718   0.74900   0.00000  Uiso   1.00
C486   C     0.83127   0.38378   0.75083   0.00000  Uiso   1.00
C487   C     0.86545   0.09413   0.72095   0.00000  Uiso   1.00
C488   C     0.82873   0.40865   0.79368   0.00000  Uiso   1.00
C489   C     0.86358   0.04815   0.72049   0.00000  Uiso   1.00
C490   C     0.82859   0.45450   0.79190   0.00000  Uiso   1.00
C491   C     0.83043   0.02489   0.74746   0.00000  Uiso   1.00
C492   C     0.82999   0.47644   0.74825   0.00000  Uiso   1.00
Cu493  Cu    0.83333   0.24999   0.79821   0.00000  Uiso   1.00
Cu494  Cu    0.83333   0.25000   0.70178   0.00000  Uiso   1.00
H495   H     0.99266   0.24861   0.69404   0.00000  Uiso   1.00
H496   H     0.67391   0.25223   0.80588   0.00000  Uiso   1.00
H497   H     0.77253   0.03079   0.79555   0.00000  Uiso   1.00
H498   H     0.83187   0.46835   0.67152   0.00000  Uiso   1.00
H499   H     0.77625   0.11127   0.79733   0.00000  Uiso   1.00
H500   H     0.83339   0.38843   0.67353   0.00000  Uiso   1.00
H501   H     0.88893   0.03060   0.69996   0.00000  Uiso   1.00
H502   H     0.82795   0.47315   0.82505   0.00000  Uiso   1.00
H503   H     0.79334   0.18805   0.52954   0.00000  Uiso   1.00
H504   H     0.90696   0.28181   0.97467   0.00000  Uiso   1.00
N505   N     0.83333   0.25001   0.62934   0.00000  Uiso   1.00
N506   N     0.83333   0.24999   0.87065   0.00000  Uiso   1.00
O507   O     0.83334   0.18572   0.79071   0.00000  Uiso   1.00
O508   O     0.83333   0.31427   0.70928   0.00000  Uiso   1.00
O509   O     0.83334   0.18573   0.70928   0.00000  Uiso   1.00
O510   O     0.83333   0.31427   0.79072   0.00000  Uiso   1.00
O511   O     0.75828   0.24999   0.78132   0.00000  Uiso   1.00
O512   O     0.90839   0.25000   0.71868   0.00000  Uiso   1.00
O513   O     0.75828   0.25000   0.69988   0.00000  Uiso   1.00
O514   O     0.90839   0.25000   0.80011   0.00000  Uiso   1.00
Cl515  Cl    0.90978   0.12140   0.68818   0.00000  Uiso   1.00
Cl516  Cl    0.82487   0.38542   0.85082   0.00000  Uiso   1.00
Cl517  Cl    0.87312   0.33835   0.53354   0.00000  Uiso   1.00
Cl518  Cl    0.72868   0.21910   0.95858   0.00000  Uiso   1.00
Cl519  Cl    0.90325   0.31975   0.64350   0.00000  Uiso   1.00
Cl520  Cl    0.75025   0.19169   0.85526   0.00000  Uiso   1.00
Cl521  Cl    0.76770   0.17703   0.62230   0.00000  Uiso   1.00
Cl522  Cl    0.92070   0.30409   0.88099   0.00000  Uiso   1.00
C523   C     0.16736   0.66520   0.74982   0.00000  Uiso   1.00
C524   C     0.16604   0.83515   0.75029   0.00000  Uiso   1.00
C525   C     0.18768   0.78732   0.55738   0.00000  Uiso   1.00
C526   C     0.12232   0.73326   0.93984   0.00000  Uiso   1.00
C527   C     0.19277   0.78312   0.60824   0.00000  Uiso   1.00
C528   C     0.12721   0.72865   0.89019   0.00000  Uiso   1.00
C529   C     0.14046   0.71777   0.60003   0.00000  Uiso   1.00
C530   C     0.20511   0.77136   0.90160   0.00000  Uiso   1.00
C531   C     0.14289   0.71675   0.55014   0.00000  Uiso   1.00
C532   C     0.20622   0.76904   0.95189   0.00000  Uiso   1.00
C533   C     0.16437   0.75248   0.52704   0.00000  Uiso   1.00
C534   C     0.16374   0.75194   0.97242   0.00000  Uiso   1.00
C535   C     0.06798   0.74995   0.73761   0.00000  Uiso   1.00
C536   C     0.26534   0.75025   0.76237   0.00000  Uiso   1.00
C537   C     0.01265   0.74977   0.73081   0.00000  Uiso   1.00
C538   C     0.32065   0.75082   0.76913   0.00000  Uiso   1.00
C539   C     0.13229   0.54810   0.77501   0.00000  Uiso   1.00
C540   C     0.16488   0.95202   0.70580   0.00000  Uiso   1.00
C541   C     0.13438   0.59393   0.77605   0.00000  Uiso   1.00
C542   C     0.16557   0.90621   0.70709   0.00000  Uiso   1.00
C543   C     0.16729   0.61718   0.74900   0.00000  Uiso   1.00
C544   C     0.16460   0.88378   0.75083   0.00000  Uiso   1.00
C545   C     0.19878   0.59413   0.72095   0.00000  Uiso   1.00
C546   C     0.16207   0.90865   0.79368   0.00000  Uiso   1.00
C547   C     0.19691   0.54815   0.72049   0.00000  Uiso   1.00
C548   C     0.16193   0.95450   0.79190   0.00000  Uiso   1.00
C549   C     0.16376   0.52489   0.74746   0.00000  Uiso   1.00
C550   C     0.16333   0.97644   0.74825   0.00000  Uiso   1.00
Cu551  Cu    0.16667   0.74999   0.79821   0.00000  Uiso   1.00
Cu552  Cu    0.16667   0.75000   0.70178   0.00000  Uiso   1.00
H553   H     0.32599   0.74861   0.69404   0.00000  Uiso   1.00
H554   H     0.00724   0.75223   0.80588   0.00000  Uiso   1.00
H555   H     0.10587   0.53079   0.79555   0.00000  Uiso   1.00
H556   H     0.16520   0.96835   0.67152   0.00000  Uiso   1.00
H557   H     0.10958   0.61127   0.79733   0.00000  Uiso   1.00
H558   H     0.16673   0.88843   0.67353   0.00000  Uiso   1.00
H559   H     0.22226   0.53060   0.69996   0.00000  Uiso   1.00
H560   H     0.16128   0.97315   0.82505   0.00000  Uiso   1.00
H561   H     0.12668   0.68805   0.52954   0.00000  Uiso   1.00
H562   H     0.24029   0.78181   0.97467   0.00000  Uiso   1.00
N563   N     0.16667   0.75001   0.62934   0.00000  Uiso   1.00
N564   N     0.16667   0.74999   0.87065   0.00000  Uiso   1.00
O565   O     0.16667   0.68572   0.79071   0.00000  Uiso   1.00
O566   O     0.16666   0.81427   0.70928   0.00000  Uiso   1.00
O567   O     0.16667   0.68573   0.70928   0.00000  Uiso   1.00
O568   O     0.16666   0.81427   0.79072   0.00000  Uiso   1.00
O569   O     0.09161   0.74999   0.78132   0.00000  Uiso   1.00
O570   O     0.24172   0.75000   0.71868   0.00000  Uiso   1.00
O571   O     0.09161   0.75000   0.69988   0.00000  Uiso   1.00
O572   O     0.24172   0.75000   0.80011   0.00000  Uiso   1.00
Cl573  Cl    0.24311   0.62140   0.68818   0.00000  Uiso   1.00
Cl574  Cl    0.15821   0.88542   0.85082   0.00000  Uiso   1.00
Cl575  Cl    0.20645   0.83835   0.53354   0.00000  Uiso   1.00
Cl576  Cl    0.06201   0.71910   0.95858   0.00000  Uiso   1.00
Cl577  Cl    0.23658   0.81975   0.64350   0.00000  Uiso   1.00
Cl578  Cl    0.08359   0.69169   0.85526   0.00000  Uiso   1.00
Cl579  Cl    0.10103   0.67703   0.62230   0.00000  Uiso   1.00
Cl580  Cl    0.25403   0.80409   0.88099   0.00000  Uiso   1.00
C581   C     0.50069   0.66520   0.74982   0.00000  Uiso   1.00
C582   C     0.49937   0.83515   0.75029   0.00000  Uiso   1.00
C583   C     0.52101   0.78732   0.55738   0.00000  Uiso   1.00
C584   C     0.45566   0.73326   0.93984   0.00000  Uiso   1.00
C585   C     0.52610   0.78312   0.60824   0.00000  Uiso   1.00
C586   C     0.46055   0.72865   0.89019   0.00000  Uiso   1.00
C587   C     0.47379   0.71777   0.60003   0.00000  Uiso   1.00
C588   C     0.53844   0.77136   0.90160   0.00000  Uiso   1.00
C589   C     0.47622   0.71675   0.55014   0.00000  Uiso   1.00
C590   C     0.53955   0.76904   0.95189   0.00000  Uiso   1.00
C591   C     0.49770   0.75248   0.52704   0.00000  Uiso   1.00
C592   C     0.49708   0.75194   0.97242   0.00000  Uiso   1.00
C593   C     0.40132   0.74995   0.73761   0.00000  Uiso   1.00
C594   C     0.59867   0.75025   0.76237   0.00000  Uiso   1.00
C595   C     0.34598   0.74977   0.73081   0.00000  Uiso   1.00
C596   C     0.65399   0.75082   0.76913   0.00000  Uiso   1.00
C597   C     0.46563   0.54810   0.77501   0.00000  Uiso   1.00
C598   C     0.49822   0.95202   0.70580   0.00000  Uiso   1.00
C599   C     0.46771   0.59393   0.77605   0.00000  Uiso   1.00
C600   C     0.49890   0.90621   0.70709   0.00000  Uiso   1.00
C601   C     0.50062   0.61718   0.74900   0.00000  Uiso   1.00
C602   C     0.49794   0.88378   0.75083   0.00000  Uiso   1.00
C603   C     0.53211   0.59413   0.72095   0.00000  Uiso   1.00
C604   C     0.49540   0.90865   0.79368   0.00000  Uiso   1.00
C605   C     0.53025   0.54815   0.72049   0.00000  Uiso   1.00
C606   C     0.49526   0.95450   0.79190   0.00000  Uiso   1.00
C607   C     0.49710   0.52489   0.74746   0.00000  Uiso   1.00
C608   C     0.49666   0.97644   0.74825   0.00000  Uiso   1.00
Cu609  Cu    0.50000   0.74999   0.79821   0.00000  Uiso   1.00
Cu610  Cu    0.50000   0.75000   0.70178   0.00000  Uiso   1.00
H611   H     0.65933   0.74861   0.69404   0.00000  Uiso   1.00
H612   H     0.34058   0.75223   0.80588   0.00000  Uiso   1.00
H613   H     0.43920   0.53079   0.79555   0.00000  Uiso   1.00
H614   H     0.49853   0.96835   0.67152   0.00000  Uiso   1.00
H615   H     0.44292   0.61127   0.79733   0.00000  Uiso   1.00
H616   H     0.50006   0.88843   0.67353   0.00000  Uiso   1.00
H617   H     0.55560   0.53060   0.69996   0.00000  Uiso   1.00
H618   H     0.49462   0.97315   0.82505   0.00000  Uiso   1.00
H619   H     0.46001   0.68805   0.52954   0.00000  Uiso   1.00
H620   H     0.57363   0.78181   0.97467   0.00000  Uiso   1.00
N621   N     0.50000   0.75001   0.62934   0.00000  Uiso   1.00
N622   N     0.50000   0.74999   0.87065   0.00000  Uiso   1.00
O623   O     0.50000   0.68572   0.79071   0.00000  Uiso   1.00
O624   O     0.50000   0.81427   0.70928   0.00000  Uiso   1.00
O625   O     0.50000   0.68573   0.70928   0.00000  Uiso   1.00
O626   O     0.50000   0.81427   0.79072   0.00000  Uiso   1.00
O627   O     0.42495   0.74999   0.78132   0.00000  Uiso   1.00
O628   O     0.57505   0.75000   0.71868   0.00000  Uiso   1.00
O629   O     0.42495   0.75000   0.69988   0.00000  Uiso   1.00
O630   O     0.57505   0.75000   0.80011   0.00000  Uiso   1.00
Cl631  Cl    0.57645   0.62140   0.68818   0.00000  Uiso   1.00
Cl632  Cl    0.49154   0.88542   0.85082   0.00000  Uiso   1.00
Cl633  Cl    0.53978   0.83835   0.53354   0.00000  Uiso   1.00
Cl634  Cl    0.39535   0.71910   0.95858   0.00000  Uiso   1.00
Cl635  Cl    0.56992   0.81975   0.64350   0.00000  Uiso   1.00
Cl636  Cl    0.41692   0.69169   0.85526   0.00000  Uiso   1.00
Cl637  Cl    0.43436   0.67703   0.62230   0.00000  Uiso   1.00
Cl638  Cl    0.58736   0.80409   0.88099   0.00000  Uiso   1.00
C639   C     0.83402   0.66520   0.74982   0.00000  Uiso   1.00
C640   C     0.83270   0.83515   0.75029   0.00000  Uiso   1.00
C641   C     0.85434   0.78732   0.55738   0.00000  Uiso   1.00
C642   C     0.78899   0.73326   0.93984   0.00000  Uiso   1.00
C643   C     0.85944   0.78312   0.60824   0.00000  Uiso   1.00
C644   C     0.79388   0.72865   0.89019   0.00000  Uiso   1.00
C645   C     0.80712   0.71777   0.60003   0.00000  Uiso   1.00
C646   C     0.87178   0.77136   0.90160   0.00000  Uiso   1.00
C647   C     0.80956   0.71675   0.55014   0.00000  Uiso   1.00
C648   C     0.87289   0.76904   0.95189   0.00000  Uiso   1.00
C649   C     0.83104   0.75248   0.52704   0.00000  Uiso   1.00
C650   C     0.83041   0.75194   0.97242   0.00000  Uiso   1.00
C651   C     0.73465   0.74995   0.73761   0.00000  Uiso   1.00
C652   C     0.93200   0.75025   0.76237   0.00000  Uiso   1.00
C653   C     0.67931   0.74977   0.73081   0.00000  Uiso   1.00
C654   C     0.98732   0.75082   0.76913   0.00000  Uiso   1.00
C655   C     0.79896   0.54810   0.77501   0.00000  Uiso   1.00
C656   C     0.83155   0.95202   0.70580   0.00000  Uiso   1.00
C657   C     0.80105   0.59393   0.77605   0.00000  Uiso   1.00
C658   C     0.83224   0.90621   0.70709   0.00000  Uiso   1.00
C659   C     0.83396   0.61718   0.74900   0.00000  Uiso   1.00
C660   C     0.83127   0.88378   0.75083   0.00000  Uiso   1.00
C661   C     0.86545   0.59413   0.72095   0.00000  Uiso   1.00
C662   C     0.82873   0.90865   0.79368   0.00000  Uiso   1.00
C663   C     0.86358   0.54815   0.72049   0.00000  Uiso   1.00
C664   C     0.82859   0.95450   0.79190   0.00000  Uiso   1.00
C665   C     0.83043   0.52489   0.74746   0.00000  Uiso   1.00
C666   C     0.82999   0.97644   0.74825   0.00000  Uiso   1.00
Cu667  Cu    0.83333   0.74999   0.79821   0.00000  Uiso   1.00
Cu668  Cu    0.83333   0.75000   0.70178   0.00000  Uiso   1.00
H669   H     0.99266   0.74861   0.69404   0.00000  Uiso   1.00
H670   H     0.67391   0.75223   0.80588   0.00000  Uiso   1.00
H671   H     0.77253   0.53079   0.79555   0.00000  Uiso   1.00
H672   H     0.83187   0.96835   0.67152   0.00000  Uiso   1.00
H673   H     0.77625   0.61127   0.79733   0.00000  Uiso   1.00
H674   H     0.83339   0.88843   0.67353   0.00000  Uiso   1.00
H675   H     0.88893   0.53060   0.69996   0.00000  Uiso   1.00
H676   H     0.82795   0.97315   0.82505   0.00000  Uiso   1.00
H677   H     0.79334   0.68805   0.52954   0.00000  Uiso   1.00
H678   H     0.90696   0.78181   0.97467   0.00000  Uiso   1.00
N679   N     0.83333   0.75001   0.62934   0.00000  Uiso   1.00
N680   N     0.83333   0.74999   0.87065   0.00000  Uiso   1.00
O681   O     0.83334   0.68572   0.79071   0.00000  Uiso   1.00
O682   O     0.83333   0.81427   0.70928   0.00000  Uiso   1.00
O683   O     0.83334   0.68573   0.70928   0.00000  Uiso   1.00
O684   O     0.83333   0.81427   0.79072   0.00000  Uiso   1.00
O685   O     0.75828   0.74999   0.78132   0.00000  Uiso   1.00
O686   O     0.90839   0.75000   0.71868   0.00000  Uiso   1.00
O687   O     0.75828   0.75000   0.69988   0.00000  Uiso   1.00
O688   O     0.90839   0.75000   0.80011   0.00000  Uiso   1.00
Cl689  Cl    0.90978   0.62140   0.68818   0.00000  Uiso   1.00
Cl690  Cl    0.82487   0.88542   0.85082   0.00000  Uiso   1.00
Cl691  Cl    0.87312   0.83835   0.53354   0.00000  Uiso   1.00
Cl692  Cl    0.72868   0.71910   0.95858   0.00000  Uiso   1.00
Cl693  Cl    0.90325   0.81975   0.64350   0.00000  Uiso   1.00
Cl694  Cl    0.75025   0.69169   0.85526   0.00000  Uiso   1.00
Cl695  Cl    0.76770   0.67703   0.62230   0.00000  Uiso   1.00
Cl696  Cl    0.92070   0.80409   0.88099   0.00000  Uiso   1.00
loop_
_geom_bond_atom_site_label_1
_geom_bond_atom_site_label_2
_geom_bond_distance
_geom_bond_site_symmetry_2
_ccdc_geom_bond_type
C1     C21     1.455   .     S
C1     O45     1.296   .     A
C1     O43     1.299   .     A
C2     C22     1.475   .     S
C2     O44     1.307   .     A
C2     O46     1.298   .     A
C3     Cl53    1.770   .     S
C3     C11     1.417   .     A
C3     C5      1.417   .     A
C4     C12     1.416   .     A
C4     C6      1.417   .     A
C4     Cl54    1.770   .     S
C5     Cl55    1.762   .     S
C5     N41     1.377   .     A
C6     Cl56    1.762   .     S
C6     N42     1.378   .     A
C7     N41     1.373   .     A
C7     Cl57    1.756   .     S
C7     C9      1.405   .     A
C8     N42     1.374   .     A
C8     Cl58    1.756   .     S
C8     C10     1.405   .     A
C9     C11     1.406   .     A
C9     H39     1.081   .     S
C10    C12     1.405   .     A
C10    H40     1.081   .     S
C11    C360    1.525   1_554 S
C12    C359    1.525   .     S
C13    C15     1.434   .     S
C13    O49     1.293   .     A
C13    O47     1.292   .     A
C14    O48     1.291   .     A
C14    O50     1.293   .     A
C14    C16     1.433   .     S
C15    C132    1.335   1_455 S
C15    H147    1.087   1_455 S
C16    C73     1.335   .     S
C16    H90     1.086   .     S
C17    H33     1.083   .     S
C17    C19     1.388   .     A
C17    C27     1.403   .     A
C18    H34     1.083   .     S
C18    C20     1.389   .     A
C18    C28     1.399   .     A
C19    H35     1.083   .     S
C19    C21     1.399   .     A
C20    C22     1.407   .     A
C20    H36     1.082   .     S
C21    C23     1.409   .     A
C22    C24     1.420   .     A
C23    Cl51    1.763   .     S
C23    C25     1.392   .     A
C24    Cl52    1.765   .     S
C24    C26     1.391   .     A
C25    H37     1.083   .     S
C25    C27     1.402   .     A
C26    C28     1.399   .     A
C26    H38     1.084   .     S
C27    C202    1.468   1_545 S
C28    C201    1.468   .     S
Cu29   Cu30    2.695   .     S
Cu29   N42     2.025   .     S
Cu29   O46     1.961   .     S
Cu29   O43     1.957   .     S
Cu29   O47     1.956   .     S
Cu29   O50     1.957   .     S
Cu30   N41     2.025   .     S
Cu30   O45     1.961   .     S
Cu30   O44     1.957   .     S
Cu30   O48     1.956   .     S
Cu30   O49     1.957   .     S
H31    C73     1.087   .     S
H32    C132    1.086   1_455 S
C59    C79     1.455   .     S
C59    O103    1.296   .     A
C59    O101    1.299   .     A
C60    C80     1.475   .     S
C60    O102    1.307   .     A
C60    O104    1.298   .     A
C61    Cl111   1.770   .     S
C61    C69     1.417   .     A
C61    C63     1.417   .     A
C62    C70     1.416   .     A
C62    C64     1.417   .     A
C62    Cl112   1.770   .     S
C63    Cl113   1.762   .     S
C63    N99     1.377   .     A
C64    Cl114   1.762   .     S
C64    N100    1.378   .     A
C65    N99     1.373   .     A
C65    Cl115   1.756   .     S
C65    C67     1.405   .     A
C66    N100    1.374   .     A
C66    Cl116   1.756   .     S
C66    C68     1.405   .     A
C67    C69     1.406   .     A
C67    H97     1.081   .     S
C68    C70     1.405   .     A
C68    H98     1.081   .     S
C69    C418    1.525   1_554 S
C70    C417    1.525   .     S
C71    C73     1.434   .     S
C71    O107    1.293   .     A
C71    O105    1.292   .     A
C72    O106    1.291   .     A
C72    O108    1.293   .     A
C72    C74     1.433   .     S
C74    C131    1.335   .     S
C74    H148    1.086   .     S
C75    H91     1.083   .     S
C75    C77     1.388   .     A
C75    C85     1.403   .     A
C76    H92     1.083   .     S
C76    C78     1.389   .     A
C76    C86     1.399   .     A
C77    H93     1.083   .     S
C77    C79     1.399   .     A
C78    C80     1.407   .     A
C78    H94     1.082   .     S
C79    C81     1.409   .     A
C80    C82     1.420   .     A
C81    Cl109   1.763   .     S
C81    C83     1.392   .     A
C82    Cl110   1.765   .     S
C82    C84     1.391   .     A
C83    H95     1.083   .     S
C83    C85     1.402   .     A
C84    C86     1.399   .     A
C84    H96     1.084   .     S
C85    C260    1.468   1_545 S
C86    C259    1.468   .     S
Cu87   Cu88    2.695   .     S
Cu87   N100    2.025   .     S
Cu87   O104    1.961   .     S
Cu87   O101    1.957   .     S
Cu87   O105    1.956   .     S
Cu87   O108    1.957   .     S
Cu88   N99     2.025   .     S
Cu88   O103    1.961   .     S
Cu88   O102    1.957   .     S
Cu88   O106    1.956   .     S
Cu88   O107    1.957   .     S
H89    C131    1.087   .     S
C117   C137    1.455   .     S
C117   O161    1.296   .     A
C117   O159    1.299   .     A
C118   C138    1.475   .     S
C118   O160    1.307   .     A
C118   O162    1.298   .     A
C119   Cl169   1.770   .     S
C119   C127    1.417   .     A
C119   C121    1.417   .     A
C120   C128    1.416   .     A
C120   C122    1.417   .     A
C120   Cl170   1.770   .     S
C121   Cl171   1.762   .     S
C121   N157    1.377   .     A
C122   Cl172   1.762   .     S
C122   N158    1.378   .     A
C123   N157    1.373   .     A
C123   Cl173   1.756   .     S
C123   C125    1.405   .     A
C124   N158    1.374   .     A
C124   Cl174   1.756   .     S
C124   C126    1.405   .     A
C125   C127    1.406   .     A
C125   H155    1.081   .     S
C126   C128    1.405   .     A
C126   H156    1.081   .     S
C127   C476    1.525   1_554 S
C128   C475    1.525   .     S
C129   C131    1.434   .     S
C129   O165    1.293   .     A
C129   O163    1.292   .     A
C130   O164    1.291   .     A
C130   O166    1.293   .     A
C130   C132    1.433   .     S
C132   C15     1.335   1_655 S
C132   H32     1.086   1_655 S
C133   H149    1.083   .     S
C133   C135    1.388   .     A
C133   C143    1.403   .     A
C134   H150    1.083   .     S
C134   C136    1.389   .     A
C134   C144    1.399   .     A
C135   H151    1.083   .     S
C135   C137    1.399   .     A
C136   C138    1.407   .     A
C136   H152    1.082   .     S
C137   C139    1.409   .     A
C138   C140    1.420   .     A
C139   Cl167   1.763   .     S
C139   C141    1.392   .     A
C140   Cl168   1.765   .     S
C140   C142    1.391   .     A
C141   H153    1.083   .     S
C141   C143    1.402   .     A
C142   C144    1.399   .     A
C142   H154    1.084   .     S
C143   C318    1.468   1_545 S
C144   C317    1.468   .     S
Cu145  Cu146   2.695   .     S
Cu145  N158    2.025   .     S
Cu145  O162    1.961   .     S
Cu145  O159    1.957   .     S
Cu145  O163    1.956   .     S
Cu145  O166    1.957   .     S
Cu146  N157    2.025   .     S
Cu146  O161    1.961   .     S
Cu146  O160    1.957   .     S
Cu146  O164    1.956   .     S
Cu146  O165    1.957   .     S
H147   C15     1.087   1_655 S
C175   C195    1.455   .     S
C175   O219    1.296   .     A
C175   O217    1.299   .     A
C176   C196    1.475   .     S
C176   O218    1.307   .     A
C176   O220    1.298   .     A
C177   Cl227   1.770   .     S
C177   C185    1.417   .     A
C177   C179    1.417   .     A
C178   C186    1.416   .     A
C178   C180    1.417   .     A
C178   Cl228   1.770   .     S
C179   Cl229   1.762   .     S
C179   N215    1.377   .     A
C180   Cl230   1.762   .     S
C180   N216    1.378   .     A
C181   N215    1.373   .     A
C181   Cl231   1.756   .     S
C181   C183    1.405   .     A
C182   N216    1.374   .     A
C182   Cl232   1.756   .     S
C182   C184    1.405   .     A
C183   C185    1.406   .     A
C183   H213    1.081   .     S
C184   C186    1.405   .     A
C184   H214    1.081   .     S
C185   C534    1.525   1_554 S
C186   C533    1.525   .     S
C187   C189    1.434   .     S
C187   O223    1.293   .     A
C187   O221    1.292   .     A
C188   O222    1.291   .     A
C188   O224    1.293   .     A
C188   C190    1.433   .     S
C189   C306    1.335   1_455 S
C189   H321    1.087   1_455 S
C190   C247    1.335   .     S
C190   H264    1.086   .     S
C191   H207    1.083   .     S
C191   C193    1.388   .     A
C191   C201    1.403   .     A
C192   H208    1.083   .     S
C192   C194    1.389   .     A
C192   C202    1.399   .     A
C193   H209    1.083   .     S
C193   C195    1.399   .     A
C194   C196    1.407   .     A
C194   H210    1.082   .     S
C195   C197    1.409   .     A
C196   C198    1.420   .     A
C197   Cl225   1.763   .     S
C197   C199    1.392   .     A
C198   Cl226   1.765   .     S
C198   C200    1.391   .     A
C199   H211    1.083   .     S
C199   C201    1.402   .     A
C200   C202    1.399   .     A
C200   H212    1.084   .     S
C202   C27     1.468   1_565 S
Cu203  Cu204   2.695   .     S
Cu203  N216    2.025   .     S
Cu203  O220    1.961   .     S
Cu203  O217    1.957   .     S
Cu203  O221    1.956   .     S
Cu203  O224    1.957   .     S
Cu204  N215    2.025   .     S
Cu204  O219    1.961   .     S
Cu204  O218    1.957   .     S
Cu204  O222    1.956   .     S
Cu204  O223    1.957   .     S
H205   C247    1.087   .     S
H206   C306    1.086   1_455 S
C233   C253    1.455   .     S
C233   O277    1.296   .     A
C233   O275    1.299   .     A
C234   C254    1.475   .     S
C234   O276    1.307   .     A
C234   O278    1.298   .     A
C235   Cl285   1.770   .     S
C235   C243    1.417   .     A
C235   C237    1.417   .     A
C236   C244    1.416   .     A
C236   C238    1.417   .     A
C236   Cl286   1.770   .     S
C237   Cl287   1.762   .     S
C237   N273    1.377   .     A
C238   Cl288   1.762   .     S
C238   N274    1.378   .     A
C239   N273    1.373   .     A
C239   Cl289   1.756   .     S
C239   C241    1.405   .     A
C240   N274    1.374   .     A
C240   Cl290   1.756   .     S
C240   C242    1.405   .     A
C241   C243    1.406   .     A
C241   H271    1.081   .     S
C242   C244    1.405   .     A
C242   H272    1.081   .     S
C243   C592    1.525   1_554 S
C244   C591    1.525   .     S
C245   C247    1.434   .     S
C245   O281    1.293   .     A
C245   O279    1.292   .     A
C246   O280    1.291   .     A
C246   O282    1.293   .     A
C246   C248    1.433   .     S
C248   C305    1.335   .     S
C248   H322    1.086   .     S
C249   H265    1.083   .     S
C249   C251    1.388   .     A
C249   C259    1.403   .     A
C250   H266    1.083   .     S
C250   C252    1.389   .     A
C250   C260    1.399   .     A
C251   H267    1.083   .     S
C251   C253    1.399   .     A
C252   C254    1.407   .     A
C252   H268    1.082   .     S
C253   C255    1.409   .     A
C254   C256    1.420   .     A
C255   Cl283   1.763   .     S
C255   C257    1.392   .     A
C256   Cl284   1.765   .     S
C256   C258    1.391   .     A
C257   H269    1.083   .     S
C257   C259    1.402   .     A
C258   C260    1.399   .     A
C258   H270    1.084   .     S
C260   C85     1.468   1_565 S
Cu261  Cu262   2.695   .     S
Cu261  N274    2.025   .     S
Cu261  O278    1.961   .     S
Cu261  O275    1.957   .     S
Cu261  O279    1.956   .     S
Cu261  O282    1.957   .     S
Cu262  N273    2.025   .     S
Cu262  O277    1.961   .     S
Cu262  O276    1.957   .     S
Cu262  O280    1.956   .     S
Cu262  O281    1.957   .     S
H263   C305    1.087   .     S
C291   C311    1.455   .     S
C291   O335    1.296   .     A
C291   O333    1.299   .     A
C292   C312    1.475   .     S
C292   O334    1.307   .     A
C292   O336    1.298   .     A
C293   Cl343   1.770   .     S
C293   C301    1.417   .     A
C293   C295    1.417   .     A
C294   C302    1.416   .     A
C294   C296    1.417   .     A
C294   Cl344   1.770   .     S
C295   Cl345   1.762   .     S
C295   N331    1.377   .     A
C296   Cl346   1.762   .     S
C296   N332    1.378   .     A
C297   N331    1.373   .     A
C297   Cl347   1.756   .     S
C297   C299    1.405   .     A
C298   N332    1.374   .     A
C298   Cl348   1.756   .     S
C298   C300    1.405   .     A
C299   C301    1.406   .     A
C299   H329    1.081   .     S
C300   C302    1.405   .     A
C300   H330    1.081   .     S
C301   C650    1.525   1_554 S
C302   C649    1.525   .     S
C303   C305    1.434   .     S
C303   O339    1.293   .     A
C303   O337    1.292   .     A
C304   O338    1.291   .     A
C304   O340    1.293   .     A
C304   C306    1.433   .     S
C306   C189    1.335   1_655 S
C306   H206    1.086   1_655 S
C307   H323    1.083   .     S
C307   C309    1.388   .     A
C307   C317    1.403   .     A
C308   H324    1.083   .     S
C308   C310    1.389   .     A
C308   C318    1.399   .     A
C309   H325    1.083   .     S
C309   C311    1.399   .     A
C310   C312    1.407   .     A
C310   H326    1.082   .     S
C311   C313    1.409   .     A
C312   C314    1.420   .     A
C313   Cl341   1.763   .     S
C313   C315    1.392   .     A
C314   Cl342   1.765   .     S
C314   C316    1.391   .     A
C315   H327    1.083   .     S
C315   C317    1.402   .     A
C316   C318    1.399   .     A
C316   H328    1.084   .     S
C318   C143    1.468   1_565 S
Cu319  Cu320   2.695   .     S
Cu319  N332    2.025   .     S
Cu319  O336    1.961   .     S
Cu319  O333    1.957   .     S
Cu319  O337    1.956   .     S
Cu319  O340    1.957   .     S
Cu320  N331    2.025   .     S
Cu320  O335    1.961   .     S
Cu320  O334    1.957   .     S
Cu320  O338    1.956   .     S
Cu320  O339    1.957   .     S
H321   C189    1.087   1_655 S
C349   C369    1.455   .     S
C349   O393    1.296   .     A
C349   O391    1.299   .     A
C350   C370    1.475   .     S
C350   O392    1.307   .     A
C350   O394    1.298   .     A
C351   Cl401   1.770   .     S
C351   C359    1.417   .     A
C351   C353    1.417   .     A
C352   C360    1.416   .     A
C352   C354    1.417   .     A
C352   Cl402   1.770   .     S
C353   Cl403   1.762   .     S
C353   N389    1.377   .     A
C354   Cl404   1.762   .     S
C354   N390    1.378   .     A
C355   N389    1.373   .     A
C355   Cl405   1.756   .     S
C355   C357    1.405   .     A
C356   N390    1.374   .     A
C356   Cl406   1.756   .     S
C356   C358    1.405   .     A
C357   C359    1.406   .     A
C357   H387    1.081   .     S
C358   C360    1.405   .     A
C358   H388    1.081   .     S
C360   C11     1.525   1_556 S
C361   C363    1.434   .     S
C361   O397    1.293   .     A
C361   O395    1.292   .     A
C362   O396    1.291   .     A
C362   O398    1.293   .     A
C362   C364    1.433   .     S
C363   C480    1.335   1_455 S
C363   H495    1.087   1_455 S
C364   C421    1.335   .     S
C364   H438    1.086   .     S
C365   H381    1.083   .     S
C365   C367    1.388   .     A
C365   C375    1.403   .     A
C366   H382    1.083   .     S
C366   C368    1.389   .     A
C366   C376    1.399   .     A
C367   H383    1.083   .     S
C367   C369    1.399   .     A
C368   C370    1.407   .     A
C368   H384    1.082   .     S
C369   C371    1.409   .     A
C370   C372    1.420   .     A
C371   Cl399   1.763   .     S
C371   C373    1.392   .     A
C372   Cl400   1.765   .     S
C372   C374    1.391   .     A
C373   H385    1.083   .     S
C373   C375    1.402   .     A
C374   C376    1.399   .     A
C374   H386    1.084   .     S
C375   C550    1.468   1_545 S
C376   C549    1.468   .     S
Cu377  Cu378   2.695   .     S
Cu377  N390    2.025   .     S
Cu377  O394    1.961   .     S
Cu377  O391    1.957   .     S
Cu377  O395    1.956   .     S
Cu377  O398    1.957   .     S
Cu378  N389    2.025   .     S
Cu378  O393    1.961   .     S
Cu378  O392    1.957   .     S
Cu378  O396    1.956   .     S
Cu378  O397    1.957   .     S
H379   C421    1.087   .     S
H380   C480    1.086   1_455 S
C407   C427    1.455   .     S
C407   O451    1.296   .     A
C407   O449    1.299   .     A
C408   C428    1.475   .     S
C408   O450    1.307   .     A
C408   O452    1.298   .     A
C409   Cl459   1.770   .     S
C409   C417    1.417   .     A
C409   C411    1.417   .     A
C410   C418    1.416   .     A
C410   C412    1.417   .     A
C410   Cl460   1.770   .     S
C411   Cl461   1.762   .     S
C411   N447    1.377   .     A
C412   Cl462   1.762   .     S
C412   N448    1.378   .     A
C413   N447    1.373   .     A
C413   Cl463   1.756   .     S
C413   C415    1.405   .     A
C414   N448    1.374   .     A
C414   Cl464   1.756   .     S
C414   C416    1.405   .     A
C415   C417    1.406   .     A
C415   H445    1.081   .     S
C416   C418    1.405   .     A
C416   H446    1.081   .     S
C418   C69     1.525   1_556 S
C419   C421    1.434   .     S
C419   O455    1.293   .     A
C419   O453    1.292   .     A
C420   O454    1.291   .     A
C420   O456    1.293   .     A
C420   C422    1.433   .     S
C422   C479    1.335   .     S
C422   H496    1.086   .     S
C423   H439    1.083   .     S
C423   C425    1.388   .     A
C423   C433    1.403   .     A
C424   H440    1.083   .     S
C424   C426    1.389   .     A
C424   C434    1.399   .     A
C425   H441    1.083   .     S
C425   C427    1.399   .     A
C426   C428    1.407   .     A
C426   H442    1.082   .     S
C427   C429    1.409   .     A
C428   C430    1.420   .     A
C429   Cl457   1.763   .     S
C429   C431    1.392   .     A
C430   Cl458   1.765   .     S
C430   C432    1.391   .     A
C431   H443    1.083   .     S
C431   C433    1.402   .     A
C432   C434    1.399   .     A
C432   H444    1.084   .     S
C433   C608    1.468   1_545 S
C434   C607    1.468   .     S
Cu435  Cu436   2.695   .     S
Cu435  N448    2.025   .     S
Cu435  O452    1.961   .     S
Cu435  O449    1.957   .     S
Cu435  O453    1.956   .     S
Cu435  O456    1.957   .     S
Cu436  N447    2.025   .     S
Cu436  O451    1.961   .     S
Cu436  O450    1.957   .     S
Cu436  O454    1.956   .     S
Cu436  O455    1.957   .     S
H437   C479    1.087   .     S
C465   C485    1.455   .     S
C465   O509    1.296   .     A
C465   O507    1.299   .     A
C466   C486    1.475   .     S
C466   O508    1.307   .     A
C466   O510    1.298   .     A
C467   Cl517   1.770   .     S
C467   C475    1.417   .     A
C467   C469    1.417   .     A
C468   C476    1.416   .     A
C468   C470    1.417   .     A
C468   Cl518   1.770   .     S
C469   Cl519   1.762   .     S
C469   N505    1.377   .     A
C470   Cl520   1.762   .     S
C470   N506    1.378   .     A
C471   N505    1.373   .     A
C471   Cl521   1.756   .     S
C471   C473    1.405   .     A
C472   N506    1.374   .     A
C472   Cl522   1.756   .     S
C472   C474    1.405   .     A
C473   C475    1.406   .     A
C473   H503    1.081   .     S
C474   C476    1.405   .     A
C474   H504    1.081   .     S
C476   C127    1.525   1_556 S
C477   C479    1.434   .     S
C477   O513    1.293   .     A
C477   O511    1.292   .     A
C478   O512    1.291   .     A
C478   O514    1.293   .     A
C478   C480    1.433   .     S
C480   C363    1.335   1_655 S
C480   H380    1.086   1_655 S
C481   H497    1.083   .     S
C481   C483    1.388   .     A
C481   C491    1.403   .     A
C482   H498    1.083   .     S
C482   C484    1.389   .     A
C482   C492    1.399   .     A
C483   H499    1.083   .     S
C483   C485    1.399   .     A
C484   C486    1.407   .     A
C484   H500    1.082   .     S
C485   C487    1.409   .     A
C486   C488    1.420   .     A
C487   Cl515   1.763   .     S
C487   C489    1.392   .     A
C488   Cl516   1.765   .     S
C488   C490    1.391   .     A
C489   H501    1.083   .     S
C489   C491    1.402   .     A
C490   C492    1.399   .     A
C490   H502    1.084   .     S
C491   C666    1.468   1_545 S
C492   C665    1.468   .     S
Cu493  Cu494   2.695   .     S
Cu493  N506    2.025   .     S
Cu493  O510    1.961   .     S
Cu493  O507    1.957   .     S
Cu493  O511    1.956   .     S
Cu493  O514    1.957   .     S
Cu494  N505    2.025   .     S
Cu494  O509    1.961   .     S
Cu494  O508    1.957   .     S
Cu494  O512    1.956   .     S
Cu494  O513    1.957   .     S
H495   C363    1.087   1_655 S
C523   C543    1.455   .     S
C523   O567    1.296   .     A
C523   O565    1.299   .     A
C524   C544    1.475   .     S
C524   O566    1.307   .     A
C524   O568    1.298   .     A
C525   Cl575   1.770   .     S
C525   C533    1.417   .     A
C525   C527    1.417   .     A
C526   C534    1.416   .     A
C526   C528    1.417   .     A
C526   Cl576   1.770   .     S
C527   Cl577   1.762   .     S
C527   N563    1.377   .     A
C528   Cl578   1.762   .     S
C528   N564    1.378   .     A
C529   N563    1.373   .     A
C529   Cl579   1.756   .     S
C529   C531    1.405   .     A
C530   N564    1.374   .     A
C530   Cl580   1.756   .     S
C530   C532    1.405   .     A
C531   C533    1.406   .     A
C531   H561    1.081   .     S
C532   C534    1.405   .     A
C532   H562    1.081   .     S
C534   C185    1.525   1_556 S
C535   C537    1.434   .     S
C535   O571    1.293   .     A
C535   O569    1.292   .     A
C536   O570    1.291   .     A
C536   O572    1.293   .     A
C536   C538    1.433   .     S
C537   C654    1.335   1_455 S
C537   H669    1.087   1_455 S
C538   C595    1.335   .     S
C538   H612    1.086   .     S
C539   H555    1.083   .     S
C539   C541    1.388   .     A
C539   C549    1.403   .     A
C540   H556    1.083   .     S
C540   C542    1.389   .     A
C540   C550    1.399   .     A
C541   H557    1.083   .     S
C541   C543    1.399   .     A
C542   C544    1.407   .     A
C542   H558    1.082   .     S
C543   C545    1.409   .     A
C544   C546    1.420   .     A
C545   Cl573   1.763   .     S
C545   C547    1.392   .     A
C546   Cl574   1.765   .     S
C546   C548    1.391   .     A
C547   H559    1.083   .     S
C547   C549    1.402   .     A
C548   C550    1.399   .     A
C548   H560    1.084   .     S
C550   C375    1.468   1_565 S
Cu551  Cu552   2.695   .     S
Cu551  N564    2.025   .     S
Cu551  O568    1.961   .     S
Cu551  O565    1.957   .     S
Cu551  O569    1.956   .     S
Cu551  O572    1.957   .     S
Cu552  N563    2.025   .     S
Cu552  O567    1.961   .     S
Cu552  O566    1.957   .     S
Cu552  O570    1.956   .     S
Cu552  O571    1.957   .     S
H553   C595    1.087   .     S
H554   C654    1.086   1_455 S
C581   C601    1.455   .     S
C581   O625    1.296   .     A
C581   O623    1.299   .     A
C582   C602    1.475   .     S
C582   O624    1.307   .     A
C582   O626    1.298   .     A
C583   Cl633   1.770   .     S
C583   C591    1.417   .     A
C583   C585    1.417   .     A
C584   C592    1.416   .     A
C584   C586    1.417   .     A
C584   Cl634   1.770   .     S
C585   Cl635   1.762   .     S
C585   N621    1.377   .     A
C586   Cl636   1.762   .     S
C586   N622    1.378   .     A
C587   N621    1.373   .     A
C587   Cl637   1.756   .     S
C587   C589    1.405   .     A
C588   N622    1.374   .     A
C588   Cl638   1.756   .     S
C588   C590    1.405   .     A
C589   C591    1.406   .     A
C589   H619    1.081   .     S
C590   C592    1.405   .     A
C590   H620    1.081   .     S
C592   C243    1.525   1_556 S
C593   C595    1.434   .     S
C593   O629    1.293   .     A
C593   O627    1.292   .     A
C594   O628    1.291   .     A
C594   O630    1.293   .     A
C594   C596    1.433   .     S
C596   C653    1.335   .     S
C596   H670    1.086   .     S
C597   H613    1.083   .     S
C597   C599    1.388   .     A
C597   C607    1.403   .     A
C598   H614    1.083   .     S
C598   C600    1.389   .     A
C598   C608    1.399   .     A
C599   H615    1.083   .     S
C599   C601    1.399   .     A
C600   C602    1.407   .     A
C600   H616    1.082   .     S
C601   C603    1.409   .     A
C602   C604    1.420   .     A
C603   Cl631   1.763   .     S
C603   C605    1.392   .     A
C604   Cl632   1.765   .     S
C604   C606    1.391   .     A
C605   H617    1.083   .     S
C605   C607    1.402   .     A
C606   C608    1.399   .     A
C606   H618    1.084   .     S
C608   C433    1.468   1_565 S
Cu609  Cu610   2.695   .     S
Cu609  N622    2.025   .     S
Cu609  O626    1.961   .     S
Cu609  O623    1.957   .     S
Cu609  O627    1.956   .     S
Cu609  O630    1.957   .     S
Cu610  N621    2.025   .     S
Cu610  O625    1.961   .     S
Cu610  O624    1.957   .     S
Cu610  O628    1.956   .     S
Cu610  O629    1.957   .     S
H611   C653    1.087   .     S
C639   C659    1.455   .     S
C639   O683    1.296   .     A
C639   O681    1.299   .     A
C640   C660    1.475   .     S
C640   O682    1.307   .     A
C640   O684    1.298   .     A
C641   Cl691   1.770   .     S
C641   C649    1.417   .     A
C641   C643    1.417   .     A
C642   C650    1.416   .     A
C642   C644    1.417   .     A
C642   Cl692   1.770   .     S
C643   Cl693   1.762   .     S
C643   N679    1.377   .     A
C644   Cl694   1.762   .     S
C644   N680    1.378   .     A
C645   N679    1.373   .     A
C645   Cl695   1.756   .     S
C645   C647    1.405   .     A
C646   N680    1.374   .     A
C646   Cl696   1.756   .     S
C646   C648    1.405   .     A
C647   C649    1.406   .     A
C647   H677    1.081   .     S
C648   C650    1.405   .     A
C648   H678    1.081   .     S
C650   C301    1.525   1_556 S
C651   C653    1.434   .     S
C651   O687    1.293   .     A
C651   O685    1.292   .     A
C652   O686    1.291   .     A
C652   O688    1.293   .     A
C652   C654    1.433   .     S
C654   C537    1.335   1_655 S
C654   H554    1.086   1_655 S
C655   H671    1.083   .     S
C655   C657    1.388   .     A
C655   C665    1.403   .     A
C656   H672    1.083   .     S
C656   C658    1.389   .     A
C656   C666    1.399   .     A
C657   H673    1.083   .     S
C657   C659    1.399   .     A
C658   C660    1.407   .     A
C658   H674    1.082   .     S
C659   C661    1.409   .     A
C660   C662    1.420   .     A
C661   Cl689   1.763   .     S
C661   C663    1.392   .     A
C662   Cl690   1.765   .     S
C662   C664    1.391   .     A
C663   H675    1.083   .     S
C663   C665    1.402   .     A
C664   C666    1.399   .     A
C664   H676    1.084   .     S
C666   C491    1.468   1_565 S
Cu667  Cu668   2.695   .     S
Cu667  N680    2.025   .     S
Cu667  O684    1.961   .     S
Cu667  O681    1.957   .     S
Cu667  O685    1.956   .     S
Cu667  O688    1.957   .     S
Cu668  N679    2.025   .     S
Cu668  O683    1.961   .     S
Cu668  O682    1.957   .     S
Cu668  O686    1.956   .     S
Cu668  O687    1.957   .     S
H669   C537    1.087   1_655 S
