data_str_m2_o10_o18_pcu_sym.133
_audit_creation_date              2020-01-03
_audit_creation_method            'Materials Studio'
_symmetry_space_group_name_H-M    'P1'
_symmetry_Int_Tables_number       1
_symmetry_cell_setting            triclinic
loop_
_symmetry_equiv_pos_as_xyz
  x,y,z
_cell_length_a                    22.2185
_cell_length_b                    26.1832
_cell_length_c                    31.8746
_cell_angle_alpha                 94.2380
_cell_angle_beta                  75.4502
_cell_angle_gamma                 102.5569
loop_
_atom_site_label
_atom_site_type_symbol
_atom_site_fract_x
_atom_site_fract_y
_atom_site_fract_z
_atom_site_U_iso_or_equiv
_atom_site_adp_type
_atom_site_occupancy
C1     C     0.18083   0.26650   0.25193   0.00000  Uiso   1.00
C2     C     0.15250   0.06683   0.24807   0.00000  Uiso   1.00
C3     C     0.09864   0.12136   0.03408   0.00000  Uiso   1.00
C4     C     0.23472   0.21198   0.46591   0.00000  Uiso   1.00
C5     C     0.05366   0.11393   0.00970   0.00000  Uiso   1.00
C6     C     0.27970   0.21940   0.49029   0.00000  Uiso   1.00
C7     C     0.18380   0.32122   0.25917   0.00000  Uiso   1.00
C8     C     0.14953   0.01211   0.24084   0.00000  Uiso   1.00
C9     C     0.12837   0.16352   0.33310   0.00000  Uiso   1.00
C10    C     0.20497   0.16981   0.16690   0.00000  Uiso   1.00
C11    C     0.10601   0.15957   0.38057   0.00000  Uiso   1.00
C12    C     0.22732   0.17377   0.11943   0.00000  Uiso   1.00
C13    C     0.02447   0.12525   0.44328   0.00000  Uiso   1.00
C14    C     0.30888   0.20807   0.05672   0.00000  Uiso   1.00
C15    C     0.04240   0.13849   0.39978   0.00000  Uiso   1.00
C16    C     0.29095   0.19483   0.10022   0.00000  Uiso   1.00
C17    C     0.15047   0.17242   0.40641   0.00000  Uiso   1.00
C18    C     0.18286   0.16095   0.09358   0.00000  Uiso   1.00
C19    C     0.13206   0.16328   0.45135   0.00000  Uiso   1.00
C20    C     0.20129   0.17007   0.04864   0.00000  Uiso   1.00
C21    C     0.06935   0.13518   0.46860   0.00000  Uiso   1.00
C22    C     0.26401   0.19815   0.03140   0.00000  Uiso   1.00
C23    C     0.17531   0.17716   0.47886   0.00000  Uiso   1.00
C24    C     0.15804   0.15619   0.02114   0.00000  Uiso   1.00
Cu25   Cu    0.10737   0.16108   0.24516   0.00000  Uiso   1.00
Cu26   Cu    0.22596   0.17225   0.25483   0.00000  Uiso   1.00
H27    H     0.32587   0.20462   0.11946   0.00000  Uiso   1.00
H28    H     0.00748   0.12868   0.38054   0.00000  Uiso   1.00
H29    H     0.30919   0.10547   0.45665   0.00000  Uiso   1.00
H30    H     0.02417   0.22783   0.04335   0.00000  Uiso   1.00
H31    H     0.08596   0.09773   0.06244   0.00000  Uiso   1.00
H32    H     0.24742   0.23562   0.43756   0.00000  Uiso   1.00
H33    H     0.00159   0.20496   0.28414   0.00000  Uiso   1.00
H34    H     0.33174   0.12838   0.21586   0.00000  Uiso   1.00
N35    N     0.31506   0.18068   0.26212   0.00000  Uiso   1.00
N36    N     0.01827   0.15265   0.23788   0.00000  Uiso   1.00
O37    O     0.12815   0.23809   0.24686   0.00000  Uiso   1.00
O38    O     0.20518   0.09524   0.25314   0.00000  Uiso   1.00
O39    O     0.22829   0.24753   0.25502   0.00000  Uiso   1.00
O40    O     0.10504   0.08580   0.24497   0.00000  Uiso   1.00
O41    O     0.08851   0.15930   0.30854   0.00000  Uiso   1.00
O42    O     0.24482   0.17403   0.19145   0.00000  Uiso   1.00
O43    O     0.18866   0.16874   0.31671   0.00000  Uiso   1.00
O44    O     0.14468   0.16460   0.18329   0.00000  Uiso   1.00
F45    F     0.32920   0.08273   0.02532   0.00000  Uiso   1.00
F46    F     0.00417   0.25059   0.47467   0.00000  Uiso   1.00
F47    F     0.12045   0.14587   0.11354   0.00000  Uiso   1.00
F48    F     0.21287   0.18755   0.38646   0.00000  Uiso   1.00
Br49   Br    0.22954   0.01939   0.30224   0.00000  Uiso   1.00
Br50   Br    0.10379   0.31394   0.19777   0.00000  Uiso   1.00
C51    C     0.51417   0.26650   0.25193   0.00000  Uiso   1.00
C52    C     0.48583   0.06683   0.24807   0.00000  Uiso   1.00
C53    C     0.43198   0.12136   0.03408   0.00000  Uiso   1.00
C54    C     0.56805   0.21198   0.46591   0.00000  Uiso   1.00
C55    C     0.38700   0.11393   0.00970   0.00000  Uiso   1.00
C56    C     0.61303   0.21940   0.49029   0.00000  Uiso   1.00
C57    C     0.51714   0.32122   0.25917   0.00000  Uiso   1.00
C58    C     0.48286   0.01211   0.24084   0.00000  Uiso   1.00
C59    C     0.46170   0.16352   0.33310   0.00000  Uiso   1.00
C60    C     0.53830   0.16981   0.16690   0.00000  Uiso   1.00
C61    C     0.43935   0.15957   0.38057   0.00000  Uiso   1.00
C62    C     0.56066   0.17377   0.11943   0.00000  Uiso   1.00
C63    C     0.35780   0.12525   0.44328   0.00000  Uiso   1.00
C64    C     0.64222   0.20807   0.05672   0.00000  Uiso   1.00
C65    C     0.37573   0.13849   0.39978   0.00000  Uiso   1.00
C66    C     0.62428   0.19483   0.10022   0.00000  Uiso   1.00
C67    C     0.48381   0.17242   0.40641   0.00000  Uiso   1.00
C68    C     0.51619   0.16095   0.09358   0.00000  Uiso   1.00
C69    C     0.46539   0.16328   0.45135   0.00000  Uiso   1.00
C70    C     0.53463   0.17007   0.04864   0.00000  Uiso   1.00
C71    C     0.40268   0.13518   0.46860   0.00000  Uiso   1.00
C72    C     0.59734   0.19815   0.03140   0.00000  Uiso   1.00
C73    C     0.50865   0.17716   0.47886   0.00000  Uiso   1.00
C74    C     0.49137   0.15619   0.02114   0.00000  Uiso   1.00
Cu75   Cu    0.44071   0.16108   0.24516   0.00000  Uiso   1.00
Cu76   Cu    0.55929   0.17225   0.25483   0.00000  Uiso   1.00
H77    H     0.65920   0.20462   0.11946   0.00000  Uiso   1.00
H78    H     0.34081   0.12868   0.38054   0.00000  Uiso   1.00
H79    H     0.64253   0.10547   0.45665   0.00000  Uiso   1.00
H80    H     0.35750   0.22783   0.04335   0.00000  Uiso   1.00
H81    H     0.41929   0.09773   0.06244   0.00000  Uiso   1.00
H82    H     0.58075   0.23562   0.43756   0.00000  Uiso   1.00
H83    H     0.33492   0.20496   0.28414   0.00000  Uiso   1.00
H84    H     0.66508   0.12838   0.21586   0.00000  Uiso   1.00
N85    N     0.64839   0.18068   0.26212   0.00000  Uiso   1.00
N86    N     0.35161   0.15265   0.23788   0.00000  Uiso   1.00
O87    O     0.46148   0.23809   0.24686   0.00000  Uiso   1.00
O88    O     0.53852   0.09524   0.25314   0.00000  Uiso   1.00
O89    O     0.56163   0.24753   0.25502   0.00000  Uiso   1.00
O90    O     0.43837   0.08580   0.24497   0.00000  Uiso   1.00
O91    O     0.42185   0.15930   0.30854   0.00000  Uiso   1.00
O92    O     0.57815   0.17403   0.19145   0.00000  Uiso   1.00
O93    O     0.52199   0.16874   0.31671   0.00000  Uiso   1.00
O94    O     0.47801   0.16460   0.18329   0.00000  Uiso   1.00
F95    F     0.66253   0.08273   0.02532   0.00000  Uiso   1.00
F96    F     0.33751   0.25059   0.47467   0.00000  Uiso   1.00
F97    F     0.45378   0.14587   0.11354   0.00000  Uiso   1.00
F98    F     0.54620   0.18755   0.38646   0.00000  Uiso   1.00
Br99   Br    0.56287   0.01939   0.30224   0.00000  Uiso   1.00
Br100  Br    0.43712   0.31394   0.19777   0.00000  Uiso   1.00
C101   C     0.84750   0.26650   0.25193   0.00000  Uiso   1.00
C102   C     0.81917   0.06683   0.24807   0.00000  Uiso   1.00
C103   C     0.76531   0.12136   0.03408   0.00000  Uiso   1.00
C104   C     0.90138   0.21198   0.46591   0.00000  Uiso   1.00
C105   C     0.72033   0.11393   0.00970   0.00000  Uiso   1.00
C106   C     0.94637   0.21940   0.49029   0.00000  Uiso   1.00
C107   C     0.85047   0.32122   0.25917   0.00000  Uiso   1.00
C108   C     0.81619   0.01211   0.24084   0.00000  Uiso   1.00
C109   C     0.79503   0.16352   0.33310   0.00000  Uiso   1.00
C110   C     0.87163   0.16981   0.16690   0.00000  Uiso   1.00
C111   C     0.77268   0.15957   0.38057   0.00000  Uiso   1.00
C112   C     0.89399   0.17377   0.11943   0.00000  Uiso   1.00
C113   C     0.69113   0.12525   0.44328   0.00000  Uiso   1.00
C114   C     0.97555   0.20807   0.05672   0.00000  Uiso   1.00
C115   C     0.70906   0.13849   0.39978   0.00000  Uiso   1.00
C116   C     0.95761   0.19483   0.10022   0.00000  Uiso   1.00
C117   C     0.81714   0.17242   0.40641   0.00000  Uiso   1.00
C118   C     0.84953   0.16095   0.09358   0.00000  Uiso   1.00
C119   C     0.79872   0.16328   0.45135   0.00000  Uiso   1.00
C120   C     0.86796   0.17007   0.04864   0.00000  Uiso   1.00
C121   C     0.73601   0.13518   0.46860   0.00000  Uiso   1.00
C122   C     0.93067   0.19815   0.03140   0.00000  Uiso   1.00
C123   C     0.84198   0.17716   0.47886   0.00000  Uiso   1.00
C124   C     0.82471   0.15619   0.02114   0.00000  Uiso   1.00
Cu125  Cu    0.77404   0.16108   0.24516   0.00000  Uiso   1.00
Cu126  Cu    0.89263   0.17225   0.25483   0.00000  Uiso   1.00
H127   H     0.99254   0.20462   0.11946   0.00000  Uiso   1.00
H128   H     0.67414   0.12868   0.38054   0.00000  Uiso   1.00
H129   H     0.97586   0.10547   0.45665   0.00000  Uiso   1.00
H130   H     0.69083   0.22783   0.04335   0.00000  Uiso   1.00
H131   H     0.75262   0.09773   0.06244   0.00000  Uiso   1.00
H132   H     0.91408   0.23562   0.43756   0.00000  Uiso   1.00
H133   H     0.66826   0.20496   0.28414   0.00000  Uiso   1.00
H134   H     0.99841   0.12838   0.21586   0.00000  Uiso   1.00
N135   N     0.98173   0.18068   0.26212   0.00000  Uiso   1.00
N136   N     0.68494   0.15265   0.23788   0.00000  Uiso   1.00
O137   O     0.79482   0.23809   0.24686   0.00000  Uiso   1.00
O138   O     0.87185   0.09524   0.25314   0.00000  Uiso   1.00
O139   O     0.89496   0.24753   0.25502   0.00000  Uiso   1.00
O140   O     0.77171   0.08580   0.24497   0.00000  Uiso   1.00
O141   O     0.75518   0.15930   0.30854   0.00000  Uiso   1.00
O142   O     0.91149   0.17403   0.19145   0.00000  Uiso   1.00
O143   O     0.85532   0.16874   0.31671   0.00000  Uiso   1.00
O144   O     0.81134   0.16460   0.18329   0.00000  Uiso   1.00
F145   F     0.99586   0.08273   0.02532   0.00000  Uiso   1.00
F146   F     0.67084   0.25059   0.47467   0.00000  Uiso   1.00
F147   F     0.78712   0.14587   0.11354   0.00000  Uiso   1.00
F148   F     0.87954   0.18755   0.38646   0.00000  Uiso   1.00
Br149  Br    0.89621   0.01939   0.30224   0.00000  Uiso   1.00
Br150  Br    0.77045   0.31394   0.19777   0.00000  Uiso   1.00
C151   C     0.18083   0.59983   0.25193   0.00000  Uiso   1.00
C152   C     0.15250   0.40017   0.24807   0.00000  Uiso   1.00
C153   C     0.09864   0.45469   0.03408   0.00000  Uiso   1.00
C154   C     0.23472   0.54532   0.46591   0.00000  Uiso   1.00
C155   C     0.05366   0.44727   0.00970   0.00000  Uiso   1.00
C156   C     0.27970   0.55273   0.49029   0.00000  Uiso   1.00
C157   C     0.18380   0.65456   0.25917   0.00000  Uiso   1.00
C158   C     0.14953   0.34544   0.24084   0.00000  Uiso   1.00
C159   C     0.12837   0.49686   0.33310   0.00000  Uiso   1.00
C160   C     0.20497   0.50315   0.16690   0.00000  Uiso   1.00
C161   C     0.10601   0.49291   0.38057   0.00000  Uiso   1.00
C162   C     0.22732   0.50710   0.11943   0.00000  Uiso   1.00
C163   C     0.02447   0.45859   0.44328   0.00000  Uiso   1.00
C164   C     0.30888   0.54140   0.05672   0.00000  Uiso   1.00
C165   C     0.04240   0.47183   0.39978   0.00000  Uiso   1.00
C166   C     0.29095   0.52816   0.10022   0.00000  Uiso   1.00
C167   C     0.15047   0.50575   0.40641   0.00000  Uiso   1.00
C168   C     0.18286   0.49428   0.09358   0.00000  Uiso   1.00
C169   C     0.13206   0.49661   0.45135   0.00000  Uiso   1.00
C170   C     0.20129   0.50341   0.04864   0.00000  Uiso   1.00
C171   C     0.06935   0.46851   0.46860   0.00000  Uiso   1.00
C172   C     0.26401   0.53149   0.03140   0.00000  Uiso   1.00
C173   C     0.17531   0.51049   0.47886   0.00000  Uiso   1.00
C174   C     0.15804   0.48952   0.02114   0.00000  Uiso   1.00
Cu175  Cu    0.10737   0.49441   0.24516   0.00000  Uiso   1.00
Cu176  Cu    0.22596   0.50559   0.25483   0.00000  Uiso   1.00
H177   H     0.32587   0.53796   0.11946   0.00000  Uiso   1.00
H178   H     0.00748   0.46201   0.38054   0.00000  Uiso   1.00
H179   H     0.30919   0.43881   0.45665   0.00000  Uiso   1.00
H180   H     0.02417   0.56117   0.04335   0.00000  Uiso   1.00
H181   H     0.08596   0.43106   0.06244   0.00000  Uiso   1.00
H182   H     0.24742   0.56895   0.43756   0.00000  Uiso   1.00
H183   H     0.00159   0.53829   0.28414   0.00000  Uiso   1.00
H184   H     0.33174   0.46171   0.21586   0.00000  Uiso   1.00
N185   N     0.31506   0.51401   0.26212   0.00000  Uiso   1.00
N186   N     0.01827   0.48599   0.23788   0.00000  Uiso   1.00
O187   O     0.12815   0.57142   0.24686   0.00000  Uiso   1.00
O188   O     0.20518   0.42858   0.25314   0.00000  Uiso   1.00
O189   O     0.22829   0.58086   0.25502   0.00000  Uiso   1.00
O190   O     0.10504   0.41914   0.24497   0.00000  Uiso   1.00
O191   O     0.08851   0.49263   0.30854   0.00000  Uiso   1.00
O192   O     0.24482   0.50737   0.19145   0.00000  Uiso   1.00
O193   O     0.18866   0.50207   0.31671   0.00000  Uiso   1.00
O194   O     0.14468   0.49793   0.18329   0.00000  Uiso   1.00
F195   F     0.32920   0.41607   0.02532   0.00000  Uiso   1.00
F196   F     0.00417   0.58392   0.47467   0.00000  Uiso   1.00
F197   F     0.12045   0.47920   0.11354   0.00000  Uiso   1.00
F198   F     0.21287   0.52088   0.38646   0.00000  Uiso   1.00
Br199  Br    0.22954   0.35273   0.30224   0.00000  Uiso   1.00
Br200  Br    0.10379   0.64727   0.19777   0.00000  Uiso   1.00
C201   C     0.51417   0.59983   0.25193   0.00000  Uiso   1.00
C202   C     0.48583   0.40017   0.24807   0.00000  Uiso   1.00
C203   C     0.43198   0.45469   0.03408   0.00000  Uiso   1.00
C204   C     0.56805   0.54532   0.46591   0.00000  Uiso   1.00
C205   C     0.38700   0.44727   0.00970   0.00000  Uiso   1.00
C206   C     0.61303   0.55273   0.49029   0.00000  Uiso   1.00
C207   C     0.51714   0.65456   0.25917   0.00000  Uiso   1.00
C208   C     0.48286   0.34544   0.24084   0.00000  Uiso   1.00
C209   C     0.46170   0.49686   0.33310   0.00000  Uiso   1.00
C210   C     0.53830   0.50315   0.16690   0.00000  Uiso   1.00
C211   C     0.43935   0.49291   0.38057   0.00000  Uiso   1.00
C212   C     0.56066   0.50710   0.11943   0.00000  Uiso   1.00
C213   C     0.35780   0.45859   0.44328   0.00000  Uiso   1.00
C214   C     0.64222   0.54140   0.05672   0.00000  Uiso   1.00
C215   C     0.37573   0.47183   0.39978   0.00000  Uiso   1.00
C216   C     0.62428   0.52816   0.10022   0.00000  Uiso   1.00
C217   C     0.48381   0.50575   0.40641   0.00000  Uiso   1.00
C218   C     0.51619   0.49428   0.09358   0.00000  Uiso   1.00
C219   C     0.46539   0.49661   0.45135   0.00000  Uiso   1.00
C220   C     0.53463   0.50341   0.04864   0.00000  Uiso   1.00
C221   C     0.40268   0.46851   0.46860   0.00000  Uiso   1.00
C222   C     0.59734   0.53149   0.03140   0.00000  Uiso   1.00
C223   C     0.50865   0.51049   0.47886   0.00000  Uiso   1.00
C224   C     0.49137   0.48952   0.02114   0.00000  Uiso   1.00
Cu225  Cu    0.44071   0.49441   0.24516   0.00000  Uiso   1.00
Cu226  Cu    0.55929   0.50559   0.25483   0.00000  Uiso   1.00
H227   H     0.65920   0.53796   0.11946   0.00000  Uiso   1.00
H228   H     0.34081   0.46201   0.38054   0.00000  Uiso   1.00
H229   H     0.64253   0.43881   0.45665   0.00000  Uiso   1.00
H230   H     0.35750   0.56117   0.04335   0.00000  Uiso   1.00
H231   H     0.41929   0.43106   0.06244   0.00000  Uiso   1.00
H232   H     0.58075   0.56895   0.43756   0.00000  Uiso   1.00
H233   H     0.33492   0.53829   0.28414   0.00000  Uiso   1.00
H234   H     0.66508   0.46171   0.21586   0.00000  Uiso   1.00
N235   N     0.64839   0.51401   0.26212   0.00000  Uiso   1.00
N236   N     0.35161   0.48599   0.23788   0.00000  Uiso   1.00
O237   O     0.46148   0.57142   0.24686   0.00000  Uiso   1.00
O238   O     0.53852   0.42858   0.25314   0.00000  Uiso   1.00
O239   O     0.56163   0.58086   0.25502   0.00000  Uiso   1.00
O240   O     0.43837   0.41914   0.24497   0.00000  Uiso   1.00
O241   O     0.42185   0.49263   0.30854   0.00000  Uiso   1.00
O242   O     0.57815   0.50737   0.19145   0.00000  Uiso   1.00
O243   O     0.52199   0.50207   0.31671   0.00000  Uiso   1.00
O244   O     0.47801   0.49793   0.18329   0.00000  Uiso   1.00
F245   F     0.66253   0.41607   0.02532   0.00000  Uiso   1.00
F246   F     0.33751   0.58392   0.47467   0.00000  Uiso   1.00
F247   F     0.45378   0.47920   0.11354   0.00000  Uiso   1.00
F248   F     0.54620   0.52088   0.38646   0.00000  Uiso   1.00
Br249  Br    0.56287   0.35273   0.30224   0.00000  Uiso   1.00
Br250  Br    0.43712   0.64727   0.19777   0.00000  Uiso   1.00
C251   C     0.84750   0.59983   0.25193   0.00000  Uiso   1.00
C252   C     0.81917   0.40017   0.24807   0.00000  Uiso   1.00
C253   C     0.76531   0.45469   0.03408   0.00000  Uiso   1.00
C254   C     0.90138   0.54532   0.46591   0.00000  Uiso   1.00
C255   C     0.72033   0.44727   0.00970   0.00000  Uiso   1.00
C256   C     0.94637   0.55273   0.49029   0.00000  Uiso   1.00
C257   C     0.85047   0.65456   0.25917   0.00000  Uiso   1.00
C258   C     0.81619   0.34544   0.24084   0.00000  Uiso   1.00
C259   C     0.79503   0.49686   0.33310   0.00000  Uiso   1.00
C260   C     0.87163   0.50315   0.16690   0.00000  Uiso   1.00
C261   C     0.77268   0.49291   0.38057   0.00000  Uiso   1.00
C262   C     0.89399   0.50710   0.11943   0.00000  Uiso   1.00
C263   C     0.69113   0.45859   0.44328   0.00000  Uiso   1.00
C264   C     0.97555   0.54140   0.05672   0.00000  Uiso   1.00
C265   C     0.70906   0.47183   0.39978   0.00000  Uiso   1.00
C266   C     0.95761   0.52816   0.10022   0.00000  Uiso   1.00
C267   C     0.81714   0.50575   0.40641   0.00000  Uiso   1.00
C268   C     0.84953   0.49428   0.09358   0.00000  Uiso   1.00
C269   C     0.79872   0.49661   0.45135   0.00000  Uiso   1.00
C270   C     0.86796   0.50341   0.04864   0.00000  Uiso   1.00
C271   C     0.73601   0.46851   0.46860   0.00000  Uiso   1.00
C272   C     0.93067   0.53149   0.03140   0.00000  Uiso   1.00
C273   C     0.84198   0.51049   0.47886   0.00000  Uiso   1.00
C274   C     0.82471   0.48952   0.02114   0.00000  Uiso   1.00
Cu275  Cu    0.77404   0.49441   0.24516   0.00000  Uiso   1.00
Cu276  Cu    0.89263   0.50559   0.25483   0.00000  Uiso   1.00
H277   H     0.99254   0.53796   0.11946   0.00000  Uiso   1.00
H278   H     0.67414   0.46201   0.38054   0.00000  Uiso   1.00
H279   H     0.97586   0.43881   0.45665   0.00000  Uiso   1.00
H280   H     0.69083   0.56117   0.04335   0.00000  Uiso   1.00
H281   H     0.75262   0.43106   0.06244   0.00000  Uiso   1.00
H282   H     0.91408   0.56895   0.43756   0.00000  Uiso   1.00
H283   H     0.66826   0.53829   0.28414   0.00000  Uiso   1.00
H284   H     0.99841   0.46171   0.21586   0.00000  Uiso   1.00
N285   N     0.98173   0.51401   0.26212   0.00000  Uiso   1.00
N286   N     0.68494   0.48599   0.23788   0.00000  Uiso   1.00
O287   O     0.79482   0.57142   0.24686   0.00000  Uiso   1.00
O288   O     0.87185   0.42858   0.25314   0.00000  Uiso   1.00
O289   O     0.89496   0.58086   0.25502   0.00000  Uiso   1.00
O290   O     0.77171   0.41914   0.24497   0.00000  Uiso   1.00
O291   O     0.75518   0.49263   0.30854   0.00000  Uiso   1.00
O292   O     0.91149   0.50737   0.19145   0.00000  Uiso   1.00
O293   O     0.85532   0.50207   0.31671   0.00000  Uiso   1.00
O294   O     0.81134   0.49793   0.18329   0.00000  Uiso   1.00
F295   F     0.99586   0.41607   0.02532   0.00000  Uiso   1.00
F296   F     0.67084   0.58392   0.47467   0.00000  Uiso   1.00
F297   F     0.78712   0.47920   0.11354   0.00000  Uiso   1.00
F298   F     0.87954   0.52088   0.38646   0.00000  Uiso   1.00
Br299  Br    0.89621   0.35273   0.30224   0.00000  Uiso   1.00
Br300  Br    0.77045   0.64727   0.19777   0.00000  Uiso   1.00
C301   C     0.18083   0.93317   0.25193   0.00000  Uiso   1.00
C302   C     0.15250   0.73350   0.24807   0.00000  Uiso   1.00
C303   C     0.09864   0.78802   0.03408   0.00000  Uiso   1.00
C304   C     0.23472   0.87865   0.46591   0.00000  Uiso   1.00
C305   C     0.05366   0.78060   0.00970   0.00000  Uiso   1.00
C306   C     0.27970   0.88606   0.49029   0.00000  Uiso   1.00
C307   C     0.18380   0.98789   0.25917   0.00000  Uiso   1.00
C308   C     0.14953   0.67877   0.24084   0.00000  Uiso   1.00
C309   C     0.12837   0.83019   0.33310   0.00000  Uiso   1.00
C310   C     0.20497   0.83648   0.16690   0.00000  Uiso   1.00
C311   C     0.10601   0.82624   0.38057   0.00000  Uiso   1.00
C312   C     0.22732   0.84043   0.11943   0.00000  Uiso   1.00
C313   C     0.02447   0.79192   0.44328   0.00000  Uiso   1.00
C314   C     0.30888   0.87473   0.05672   0.00000  Uiso   1.00
C315   C     0.04240   0.80516   0.39978   0.00000  Uiso   1.00
C316   C     0.29095   0.86149   0.10022   0.00000  Uiso   1.00
C317   C     0.15047   0.83908   0.40641   0.00000  Uiso   1.00
C318   C     0.18286   0.82762   0.09358   0.00000  Uiso   1.00
C319   C     0.13206   0.82994   0.45135   0.00000  Uiso   1.00
C320   C     0.20129   0.83674   0.04864   0.00000  Uiso   1.00
C321   C     0.06935   0.80185   0.46860   0.00000  Uiso   1.00
C322   C     0.26401   0.86482   0.03140   0.00000  Uiso   1.00
C323   C     0.17531   0.84383   0.47886   0.00000  Uiso   1.00
C324   C     0.15804   0.82286   0.02114   0.00000  Uiso   1.00
Cu325  Cu    0.10737   0.82775   0.24516   0.00000  Uiso   1.00
Cu326  Cu    0.22596   0.83892   0.25483   0.00000  Uiso   1.00
H327   H     0.32587   0.87129   0.11946   0.00000  Uiso   1.00
H328   H     0.00748   0.79535   0.38054   0.00000  Uiso   1.00
H329   H     0.30919   0.77214   0.45665   0.00000  Uiso   1.00
H330   H     0.02417   0.89450   0.04335   0.00000  Uiso   1.00
H331   H     0.08596   0.76439   0.06244   0.00000  Uiso   1.00
H332   H     0.24742   0.90228   0.43756   0.00000  Uiso   1.00
H333   H     0.00159   0.87162   0.28414   0.00000  Uiso   1.00
H334   H     0.33174   0.79504   0.21586   0.00000  Uiso   1.00
N335   N     0.31506   0.84735   0.26212   0.00000  Uiso   1.00
N336   N     0.01827   0.81932   0.23788   0.00000  Uiso   1.00
O337   O     0.12815   0.90476   0.24686   0.00000  Uiso   1.00
O338   O     0.20518   0.76191   0.25314   0.00000  Uiso   1.00
O339   O     0.22829   0.91420   0.25502   0.00000  Uiso   1.00
O340   O     0.10504   0.75247   0.24497   0.00000  Uiso   1.00
O341   O     0.08851   0.82597   0.30854   0.00000  Uiso   1.00
O342   O     0.24482   0.84070   0.19145   0.00000  Uiso   1.00
O343   O     0.18866   0.83540   0.31671   0.00000  Uiso   1.00
O344   O     0.14468   0.83126   0.18329   0.00000  Uiso   1.00
F345   F     0.32920   0.74940   0.02532   0.00000  Uiso   1.00
F346   F     0.00417   0.91725   0.47467   0.00000  Uiso   1.00
F347   F     0.12045   0.81254   0.11354   0.00000  Uiso   1.00
F348   F     0.21287   0.85421   0.38646   0.00000  Uiso   1.00
Br349  Br    0.22954   0.68606   0.30224   0.00000  Uiso   1.00
Br350  Br    0.10379   0.98061   0.19777   0.00000  Uiso   1.00
C351   C     0.51417   0.93317   0.25193   0.00000  Uiso   1.00
C352   C     0.48583   0.73350   0.24807   0.00000  Uiso   1.00
C353   C     0.43198   0.78802   0.03408   0.00000  Uiso   1.00
C354   C     0.56805   0.87865   0.46591   0.00000  Uiso   1.00
C355   C     0.38700   0.78060   0.00970   0.00000  Uiso   1.00
C356   C     0.61303   0.88606   0.49029   0.00000  Uiso   1.00
C357   C     0.51714   0.98789   0.25917   0.00000  Uiso   1.00
C358   C     0.48286   0.67877   0.24084   0.00000  Uiso   1.00
C359   C     0.46170   0.83019   0.33310   0.00000  Uiso   1.00
C360   C     0.53830   0.83648   0.16690   0.00000  Uiso   1.00
C361   C     0.43935   0.82624   0.38057   0.00000  Uiso   1.00
C362   C     0.56066   0.84043   0.11943   0.00000  Uiso   1.00
C363   C     0.35780   0.79192   0.44328   0.00000  Uiso   1.00
C364   C     0.64222   0.87473   0.05672   0.00000  Uiso   1.00
C365   C     0.37573   0.80516   0.39978   0.00000  Uiso   1.00
C366   C     0.62428   0.86149   0.10022   0.00000  Uiso   1.00
C367   C     0.48381   0.83908   0.40641   0.00000  Uiso   1.00
C368   C     0.51619   0.82762   0.09358   0.00000  Uiso   1.00
C369   C     0.46539   0.82994   0.45135   0.00000  Uiso   1.00
C370   C     0.53463   0.83674   0.04864   0.00000  Uiso   1.00
C371   C     0.40268   0.80185   0.46860   0.00000  Uiso   1.00
C372   C     0.59734   0.86482   0.03140   0.00000  Uiso   1.00
C373   C     0.50865   0.84383   0.47886   0.00000  Uiso   1.00
C374   C     0.49137   0.82286   0.02114   0.00000  Uiso   1.00
Cu375  Cu    0.44071   0.82775   0.24516   0.00000  Uiso   1.00
Cu376  Cu    0.55929   0.83892   0.25483   0.00000  Uiso   1.00
H377   H     0.65920   0.87129   0.11946   0.00000  Uiso   1.00
H378   H     0.34081   0.79535   0.38054   0.00000  Uiso   1.00
H379   H     0.64253   0.77214   0.45665   0.00000  Uiso   1.00
H380   H     0.35750   0.89450   0.04335   0.00000  Uiso   1.00
H381   H     0.41929   0.76439   0.06244   0.00000  Uiso   1.00
H382   H     0.58075   0.90228   0.43756   0.00000  Uiso   1.00
H383   H     0.33492   0.87162   0.28414   0.00000  Uiso   1.00
H384   H     0.66508   0.79504   0.21586   0.00000  Uiso   1.00
N385   N     0.64839   0.84735   0.26212   0.00000  Uiso   1.00
N386   N     0.35161   0.81932   0.23788   0.00000  Uiso   1.00
O387   O     0.46148   0.90476   0.24686   0.00000  Uiso   1.00
O388   O     0.53852   0.76191   0.25314   0.00000  Uiso   1.00
O389   O     0.56163   0.91420   0.25502   0.00000  Uiso   1.00
O390   O     0.43837   0.75247   0.24497   0.00000  Uiso   1.00
O391   O     0.42185   0.82597   0.30854   0.00000  Uiso   1.00
O392   O     0.57815   0.84070   0.19145   0.00000  Uiso   1.00
O393   O     0.52199   0.83540   0.31671   0.00000  Uiso   1.00
O394   O     0.47801   0.83126   0.18329   0.00000  Uiso   1.00
F395   F     0.66253   0.74940   0.02532   0.00000  Uiso   1.00
F396   F     0.33751   0.91725   0.47467   0.00000  Uiso   1.00
F397   F     0.45378   0.81254   0.11354   0.00000  Uiso   1.00
F398   F     0.54620   0.85421   0.38646   0.00000  Uiso   1.00
Br399  Br    0.56287   0.68606   0.30224   0.00000  Uiso   1.00
Br400  Br    0.43712   0.98061   0.19777   0.00000  Uiso   1.00
C401   C     0.84750   0.93317   0.25193   0.00000  Uiso   1.00
C402   C     0.81917   0.73350   0.24807   0.00000  Uiso   1.00
C403   C     0.76531   0.78802   0.03408   0.00000  Uiso   1.00
C404   C     0.90138   0.87865   0.46591   0.00000  Uiso   1.00
C405   C     0.72033   0.78060   0.00970   0.00000  Uiso   1.00
C406   C     0.94637   0.88606   0.49029   0.00000  Uiso   1.00
C407   C     0.85047   0.98789   0.25917   0.00000  Uiso   1.00
C408   C     0.81619   0.67877   0.24084   0.00000  Uiso   1.00
C409   C     0.79503   0.83019   0.33310   0.00000  Uiso   1.00
C410   C     0.87163   0.83648   0.16690   0.00000  Uiso   1.00
C411   C     0.77268   0.82624   0.38057   0.00000  Uiso   1.00
C412   C     0.89399   0.84043   0.11943   0.00000  Uiso   1.00
C413   C     0.69113   0.79192   0.44328   0.00000  Uiso   1.00
C414   C     0.97555   0.87473   0.05672   0.00000  Uiso   1.00
C415   C     0.70906   0.80516   0.39978   0.00000  Uiso   1.00
C416   C     0.95761   0.86149   0.10022   0.00000  Uiso   1.00
C417   C     0.81714   0.83908   0.40641   0.00000  Uiso   1.00
C418   C     0.84953   0.82762   0.09358   0.00000  Uiso   1.00
C419   C     0.79872   0.82994   0.45135   0.00000  Uiso   1.00
C420   C     0.86796   0.83674   0.04864   0.00000  Uiso   1.00
C421   C     0.73601   0.80185   0.46860   0.00000  Uiso   1.00
C422   C     0.93067   0.86482   0.03140   0.00000  Uiso   1.00
C423   C     0.84198   0.84383   0.47886   0.00000  Uiso   1.00
C424   C     0.82471   0.82286   0.02114   0.00000  Uiso   1.00
Cu425  Cu    0.77404   0.82775   0.24516   0.00000  Uiso   1.00
Cu426  Cu    0.89263   0.83892   0.25483   0.00000  Uiso   1.00
H427   H     0.99254   0.87129   0.11946   0.00000  Uiso   1.00
H428   H     0.67414   0.79535   0.38054   0.00000  Uiso   1.00
H429   H     0.97586   0.77214   0.45665   0.00000  Uiso   1.00
H430   H     0.69083   0.89450   0.04335   0.00000  Uiso   1.00
H431   H     0.75262   0.76439   0.06244   0.00000  Uiso   1.00
H432   H     0.91408   0.90228   0.43756   0.00000  Uiso   1.00
H433   H     0.66826   0.87162   0.28414   0.00000  Uiso   1.00
H434   H     0.99841   0.79504   0.21586   0.00000  Uiso   1.00
N435   N     0.98173   0.84735   0.26212   0.00000  Uiso   1.00
N436   N     0.68494   0.81932   0.23788   0.00000  Uiso   1.00
O437   O     0.79482   0.90476   0.24686   0.00000  Uiso   1.00
O438   O     0.87185   0.76191   0.25314   0.00000  Uiso   1.00
O439   O     0.89496   0.91420   0.25502   0.00000  Uiso   1.00
O440   O     0.77171   0.75247   0.24497   0.00000  Uiso   1.00
O441   O     0.75518   0.82597   0.30854   0.00000  Uiso   1.00
O442   O     0.91149   0.84070   0.19145   0.00000  Uiso   1.00
O443   O     0.85532   0.83540   0.31671   0.00000  Uiso   1.00
O444   O     0.81134   0.83126   0.18329   0.00000  Uiso   1.00
F445   F     0.99586   0.74940   0.02532   0.00000  Uiso   1.00
F446   F     0.67084   0.91725   0.47467   0.00000  Uiso   1.00
F447   F     0.78712   0.81254   0.11354   0.00000  Uiso   1.00
F448   F     0.87954   0.85421   0.38646   0.00000  Uiso   1.00
Br449  Br    0.89621   0.68606   0.30224   0.00000  Uiso   1.00
Br450  Br    0.77045   0.98061   0.19777   0.00000  Uiso   1.00
C451   C     0.18083   0.26650   0.75193   0.00000  Uiso   1.00
C452   C     0.15250   0.06683   0.74807   0.00000  Uiso   1.00
C453   C     0.09864   0.12136   0.53408   0.00000  Uiso   1.00
C454   C     0.23472   0.21198   0.96591   0.00000  Uiso   1.00
C455   C     0.05366   0.11393   0.50970   0.00000  Uiso   1.00
C456   C     0.27970   0.21940   0.99029   0.00000  Uiso   1.00
C457   C     0.18380   0.32122   0.75917   0.00000  Uiso   1.00
C458   C     0.14953   0.01211   0.74084   0.00000  Uiso   1.00
C459   C     0.12837   0.16352   0.83310   0.00000  Uiso   1.00
C460   C     0.20497   0.16981   0.66690   0.00000  Uiso   1.00
C461   C     0.10601   0.15957   0.88057   0.00000  Uiso   1.00
C462   C     0.22732   0.17377   0.61943   0.00000  Uiso   1.00
C463   C     0.02447   0.12525   0.94328   0.00000  Uiso   1.00
C464   C     0.30888   0.20807   0.55672   0.00000  Uiso   1.00
C465   C     0.04240   0.13849   0.89978   0.00000  Uiso   1.00
C466   C     0.29095   0.19483   0.60022   0.00000  Uiso   1.00
C467   C     0.15047   0.17242   0.90641   0.00000  Uiso   1.00
C468   C     0.18286   0.16095   0.59358   0.00000  Uiso   1.00
C469   C     0.13206   0.16328   0.95135   0.00000  Uiso   1.00
C470   C     0.20129   0.17007   0.54864   0.00000  Uiso   1.00
C471   C     0.06935   0.13518   0.96860   0.00000  Uiso   1.00
C472   C     0.26401   0.19815   0.53140   0.00000  Uiso   1.00
C473   C     0.17531   0.17716   0.97886   0.00000  Uiso   1.00
C474   C     0.15804   0.15619   0.52114   0.00000  Uiso   1.00
Cu475  Cu    0.10737   0.16108   0.74516   0.00000  Uiso   1.00
Cu476  Cu    0.22596   0.17225   0.75483   0.00000  Uiso   1.00
H477   H     0.32587   0.20462   0.61946   0.00000  Uiso   1.00
H478   H     0.00748   0.12868   0.88054   0.00000  Uiso   1.00
H479   H     0.30919   0.10547   0.95665   0.00000  Uiso   1.00
H480   H     0.02417   0.22783   0.54335   0.00000  Uiso   1.00
H481   H     0.08596   0.09773   0.56244   0.00000  Uiso   1.00
H482   H     0.24742   0.23562   0.93756   0.00000  Uiso   1.00
H483   H     0.00159   0.20496   0.78414   0.00000  Uiso   1.00
H484   H     0.33174   0.12838   0.71586   0.00000  Uiso   1.00
N485   N     0.31506   0.18068   0.76212   0.00000  Uiso   1.00
N486   N     0.01827   0.15265   0.73788   0.00000  Uiso   1.00
O487   O     0.12815   0.23809   0.74686   0.00000  Uiso   1.00
O488   O     0.20518   0.09524   0.75314   0.00000  Uiso   1.00
O489   O     0.22829   0.24753   0.75502   0.00000  Uiso   1.00
O490   O     0.10504   0.08580   0.74497   0.00000  Uiso   1.00
O491   O     0.08851   0.15930   0.80854   0.00000  Uiso   1.00
O492   O     0.24482   0.17403   0.69145   0.00000  Uiso   1.00
O493   O     0.18866   0.16874   0.81671   0.00000  Uiso   1.00
O494   O     0.14468   0.16460   0.68329   0.00000  Uiso   1.00
F495   F     0.32920   0.08273   0.52532   0.00000  Uiso   1.00
F496   F     0.00417   0.25059   0.97467   0.00000  Uiso   1.00
F497   F     0.12045   0.14587   0.61354   0.00000  Uiso   1.00
F498   F     0.21287   0.18755   0.88646   0.00000  Uiso   1.00
Br499  Br    0.22954   0.01939   0.80224   0.00000  Uiso   1.00
Br500  Br    0.10379   0.31394   0.69777   0.00000  Uiso   1.00
C501   C     0.51417   0.26650   0.75193   0.00000  Uiso   1.00
C502   C     0.48583   0.06683   0.74807   0.00000  Uiso   1.00
C503   C     0.43198   0.12136   0.53408   0.00000  Uiso   1.00
C504   C     0.56805   0.21198   0.96591   0.00000  Uiso   1.00
C505   C     0.38700   0.11393   0.50970   0.00000  Uiso   1.00
C506   C     0.61303   0.21940   0.99029   0.00000  Uiso   1.00
C507   C     0.51714   0.32122   0.75917   0.00000  Uiso   1.00
C508   C     0.48286   0.01211   0.74084   0.00000  Uiso   1.00
C509   C     0.46170   0.16352   0.83310   0.00000  Uiso   1.00
C510   C     0.53830   0.16981   0.66690   0.00000  Uiso   1.00
C511   C     0.43935   0.15957   0.88057   0.00000  Uiso   1.00
C512   C     0.56066   0.17377   0.61943   0.00000  Uiso   1.00
C513   C     0.35780   0.12525   0.94328   0.00000  Uiso   1.00
C514   C     0.64222   0.20807   0.55672   0.00000  Uiso   1.00
C515   C     0.37573   0.13849   0.89978   0.00000  Uiso   1.00
C516   C     0.62428   0.19483   0.60022   0.00000  Uiso   1.00
C517   C     0.48381   0.17242   0.90641   0.00000  Uiso   1.00
C518   C     0.51619   0.16095   0.59358   0.00000  Uiso   1.00
C519   C     0.46539   0.16328   0.95135   0.00000  Uiso   1.00
C520   C     0.53463   0.17007   0.54864   0.00000  Uiso   1.00
C521   C     0.40268   0.13518   0.96860   0.00000  Uiso   1.00
C522   C     0.59734   0.19815   0.53140   0.00000  Uiso   1.00
C523   C     0.50865   0.17716   0.97886   0.00000  Uiso   1.00
C524   C     0.49137   0.15619   0.52114   0.00000  Uiso   1.00
Cu525  Cu    0.44071   0.16108   0.74516   0.00000  Uiso   1.00
Cu526  Cu    0.55929   0.17225   0.75483   0.00000  Uiso   1.00
H527   H     0.65920   0.20462   0.61946   0.00000  Uiso   1.00
H528   H     0.34081   0.12868   0.88054   0.00000  Uiso   1.00
H529   H     0.64253   0.10547   0.95665   0.00000  Uiso   1.00
H530   H     0.35750   0.22783   0.54335   0.00000  Uiso   1.00
H531   H     0.41929   0.09773   0.56244   0.00000  Uiso   1.00
H532   H     0.58075   0.23562   0.93756   0.00000  Uiso   1.00
H533   H     0.33492   0.20496   0.78414   0.00000  Uiso   1.00
H534   H     0.66508   0.12838   0.71586   0.00000  Uiso   1.00
N535   N     0.64839   0.18068   0.76212   0.00000  Uiso   1.00
N536   N     0.35161   0.15265   0.73788   0.00000  Uiso   1.00
O537   O     0.46148   0.23809   0.74686   0.00000  Uiso   1.00
O538   O     0.53852   0.09524   0.75314   0.00000  Uiso   1.00
O539   O     0.56163   0.24753   0.75502   0.00000  Uiso   1.00
O540   O     0.43837   0.08580   0.74497   0.00000  Uiso   1.00
O541   O     0.42185   0.15930   0.80854   0.00000  Uiso   1.00
O542   O     0.57815   0.17403   0.69145   0.00000  Uiso   1.00
O543   O     0.52199   0.16874   0.81671   0.00000  Uiso   1.00
O544   O     0.47801   0.16460   0.68329   0.00000  Uiso   1.00
F545   F     0.66253   0.08273   0.52532   0.00000  Uiso   1.00
F546   F     0.33751   0.25059   0.97467   0.00000  Uiso   1.00
F547   F     0.45378   0.14587   0.61354   0.00000  Uiso   1.00
F548   F     0.54620   0.18755   0.88646   0.00000  Uiso   1.00
Br549  Br    0.56287   0.01939   0.80224   0.00000  Uiso   1.00
Br550  Br    0.43712   0.31394   0.69777   0.00000  Uiso   1.00
C551   C     0.84750   0.26650   0.75193   0.00000  Uiso   1.00
C552   C     0.81917   0.06683   0.74807   0.00000  Uiso   1.00
C553   C     0.76531   0.12136   0.53408   0.00000  Uiso   1.00
C554   C     0.90138   0.21198   0.96591   0.00000  Uiso   1.00
C555   C     0.72033   0.11393   0.50970   0.00000  Uiso   1.00
C556   C     0.94637   0.21940   0.99029   0.00000  Uiso   1.00
C557   C     0.85047   0.32122   0.75917   0.00000  Uiso   1.00
C558   C     0.81619   0.01211   0.74084   0.00000  Uiso   1.00
C559   C     0.79503   0.16352   0.83310   0.00000  Uiso   1.00
C560   C     0.87163   0.16981   0.66690   0.00000  Uiso   1.00
C561   C     0.77268   0.15957   0.88057   0.00000  Uiso   1.00
C562   C     0.89399   0.17377   0.61943   0.00000  Uiso   1.00
C563   C     0.69113   0.12525   0.94328   0.00000  Uiso   1.00
C564   C     0.97555   0.20807   0.55672   0.00000  Uiso   1.00
C565   C     0.70906   0.13849   0.89978   0.00000  Uiso   1.00
C566   C     0.95761   0.19483   0.60022   0.00000  Uiso   1.00
C567   C     0.81714   0.17242   0.90641   0.00000  Uiso   1.00
C568   C     0.84953   0.16095   0.59358   0.00000  Uiso   1.00
C569   C     0.79872   0.16328   0.95135   0.00000  Uiso   1.00
C570   C     0.86796   0.17007   0.54864   0.00000  Uiso   1.00
C571   C     0.73601   0.13518   0.96860   0.00000  Uiso   1.00
C572   C     0.93067   0.19815   0.53140   0.00000  Uiso   1.00
C573   C     0.84198   0.17716   0.97886   0.00000  Uiso   1.00
C574   C     0.82471   0.15619   0.52114   0.00000  Uiso   1.00
Cu575  Cu    0.77404   0.16108   0.74516   0.00000  Uiso   1.00
Cu576  Cu    0.89263   0.17225   0.75483   0.00000  Uiso   1.00
H577   H     0.99254   0.20462   0.61946   0.00000  Uiso   1.00
H578   H     0.67414   0.12868   0.88054   0.00000  Uiso   1.00
H579   H     0.97586   0.10547   0.95665   0.00000  Uiso   1.00
H580   H     0.69083   0.22783   0.54335   0.00000  Uiso   1.00
H581   H     0.75262   0.09773   0.56244   0.00000  Uiso   1.00
H582   H     0.91408   0.23562   0.93756   0.00000  Uiso   1.00
H583   H     0.66826   0.20496   0.78414   0.00000  Uiso   1.00
H584   H     0.99841   0.12838   0.71586   0.00000  Uiso   1.00
N585   N     0.98173   0.18068   0.76212   0.00000  Uiso   1.00
N586   N     0.68494   0.15265   0.73788   0.00000  Uiso   1.00
O587   O     0.79482   0.23809   0.74686   0.00000  Uiso   1.00
O588   O     0.87185   0.09524   0.75314   0.00000  Uiso   1.00
O589   O     0.89496   0.24753   0.75502   0.00000  Uiso   1.00
O590   O     0.77171   0.08580   0.74497   0.00000  Uiso   1.00
O591   O     0.75518   0.15930   0.80854   0.00000  Uiso   1.00
O592   O     0.91149   0.17403   0.69145   0.00000  Uiso   1.00
O593   O     0.85532   0.16874   0.81671   0.00000  Uiso   1.00
O594   O     0.81134   0.16460   0.68329   0.00000  Uiso   1.00
F595   F     0.99586   0.08273   0.52532   0.00000  Uiso   1.00
F596   F     0.67084   0.25059   0.97467   0.00000  Uiso   1.00
F597   F     0.78712   0.14587   0.61354   0.00000  Uiso   1.00
F598   F     0.87954   0.18755   0.88646   0.00000  Uiso   1.00
Br599  Br    0.89621   0.01939   0.80224   0.00000  Uiso   1.00
Br600  Br    0.77045   0.31394   0.69777   0.00000  Uiso   1.00
C601   C     0.18083   0.59983   0.75193   0.00000  Uiso   1.00
C602   C     0.15250   0.40017   0.74807   0.00000  Uiso   1.00
C603   C     0.09864   0.45469   0.53408   0.00000  Uiso   1.00
C604   C     0.23472   0.54532   0.96591   0.00000  Uiso   1.00
C605   C     0.05366   0.44727   0.50970   0.00000  Uiso   1.00
C606   C     0.27970   0.55273   0.99029   0.00000  Uiso   1.00
C607   C     0.18380   0.65456   0.75917   0.00000  Uiso   1.00
C608   C     0.14953   0.34544   0.74084   0.00000  Uiso   1.00
C609   C     0.12837   0.49686   0.83310   0.00000  Uiso   1.00
C610   C     0.20497   0.50315   0.66690   0.00000  Uiso   1.00
C611   C     0.10601   0.49291   0.88057   0.00000  Uiso   1.00
C612   C     0.22732   0.50710   0.61943   0.00000  Uiso   1.00
C613   C     0.02447   0.45859   0.94328   0.00000  Uiso   1.00
C614   C     0.30888   0.54140   0.55672   0.00000  Uiso   1.00
C615   C     0.04240   0.47183   0.89978   0.00000  Uiso   1.00
C616   C     0.29095   0.52816   0.60022   0.00000  Uiso   1.00
C617   C     0.15047   0.50575   0.90641   0.00000  Uiso   1.00
C618   C     0.18286   0.49428   0.59358   0.00000  Uiso   1.00
C619   C     0.13206   0.49661   0.95135   0.00000  Uiso   1.00
C620   C     0.20129   0.50341   0.54864   0.00000  Uiso   1.00
C621   C     0.06935   0.46851   0.96860   0.00000  Uiso   1.00
C622   C     0.26401   0.53149   0.53140   0.00000  Uiso   1.00
C623   C     0.17531   0.51049   0.97886   0.00000  Uiso   1.00
C624   C     0.15804   0.48952   0.52114   0.00000  Uiso   1.00
Cu625  Cu    0.10737   0.49441   0.74516   0.00000  Uiso   1.00
Cu626  Cu    0.22596   0.50559   0.75483   0.00000  Uiso   1.00
H627   H     0.32587   0.53796   0.61946   0.00000  Uiso   1.00
H628   H     0.00748   0.46201   0.88054   0.00000  Uiso   1.00
H629   H     0.30919   0.43881   0.95665   0.00000  Uiso   1.00
H630   H     0.02417   0.56117   0.54335   0.00000  Uiso   1.00
H631   H     0.08596   0.43106   0.56244   0.00000  Uiso   1.00
H632   H     0.24742   0.56895   0.93756   0.00000  Uiso   1.00
H633   H     0.00159   0.53829   0.78414   0.00000  Uiso   1.00
H634   H     0.33174   0.46171   0.71586   0.00000  Uiso   1.00
N635   N     0.31506   0.51401   0.76212   0.00000  Uiso   1.00
N636   N     0.01827   0.48599   0.73788   0.00000  Uiso   1.00
O637   O     0.12815   0.57142   0.74686   0.00000  Uiso   1.00
O638   O     0.20518   0.42858   0.75314   0.00000  Uiso   1.00
O639   O     0.22829   0.58086   0.75502   0.00000  Uiso   1.00
O640   O     0.10504   0.41914   0.74497   0.00000  Uiso   1.00
O641   O     0.08851   0.49263   0.80854   0.00000  Uiso   1.00
O642   O     0.24482   0.50737   0.69145   0.00000  Uiso   1.00
O643   O     0.18866   0.50207   0.81671   0.00000  Uiso   1.00
O644   O     0.14468   0.49793   0.68329   0.00000  Uiso   1.00
F645   F     0.32920   0.41607   0.52532   0.00000  Uiso   1.00
F646   F     0.00417   0.58392   0.97467   0.00000  Uiso   1.00
F647   F     0.12045   0.47920   0.61354   0.00000  Uiso   1.00
F648   F     0.21287   0.52088   0.88646   0.00000  Uiso   1.00
Br649  Br    0.22954   0.35273   0.80224   0.00000  Uiso   1.00
Br650  Br    0.10379   0.64727   0.69777   0.00000  Uiso   1.00
C651   C     0.51417   0.59983   0.75193   0.00000  Uiso   1.00
C652   C     0.48583   0.40017   0.74807   0.00000  Uiso   1.00
C653   C     0.43198   0.45469   0.53408   0.00000  Uiso   1.00
C654   C     0.56805   0.54532   0.96591   0.00000  Uiso   1.00
C655   C     0.38700   0.44727   0.50970   0.00000  Uiso   1.00
C656   C     0.61303   0.55273   0.99029   0.00000  Uiso   1.00
C657   C     0.51714   0.65456   0.75917   0.00000  Uiso   1.00
C658   C     0.48286   0.34544   0.74084   0.00000  Uiso   1.00
C659   C     0.46170   0.49686   0.83310   0.00000  Uiso   1.00
C660   C     0.53830   0.50315   0.66690   0.00000  Uiso   1.00
C661   C     0.43935   0.49291   0.88057   0.00000  Uiso   1.00
C662   C     0.56066   0.50710   0.61943   0.00000  Uiso   1.00
C663   C     0.35780   0.45859   0.94328   0.00000  Uiso   1.00
C664   C     0.64222   0.54140   0.55672   0.00000  Uiso   1.00
C665   C     0.37573   0.47183   0.89978   0.00000  Uiso   1.00
C666   C     0.62428   0.52816   0.60022   0.00000  Uiso   1.00
C667   C     0.48381   0.50575   0.90641   0.00000  Uiso   1.00
C668   C     0.51619   0.49428   0.59358   0.00000  Uiso   1.00
C669   C     0.46539   0.49661   0.95135   0.00000  Uiso   1.00
C670   C     0.53463   0.50341   0.54864   0.00000  Uiso   1.00
C671   C     0.40268   0.46851   0.96860   0.00000  Uiso   1.00
C672   C     0.59734   0.53149   0.53140   0.00000  Uiso   1.00
C673   C     0.50865   0.51049   0.97886   0.00000  Uiso   1.00
C674   C     0.49137   0.48952   0.52114   0.00000  Uiso   1.00
Cu675  Cu    0.44071   0.49441   0.74516   0.00000  Uiso   1.00
Cu676  Cu    0.55929   0.50559   0.75483   0.00000  Uiso   1.00
H677   H     0.65920   0.53796   0.61946   0.00000  Uiso   1.00
H678   H     0.34081   0.46201   0.88054   0.00000  Uiso   1.00
H679   H     0.64253   0.43881   0.95665   0.00000  Uiso   1.00
H680   H     0.35750   0.56117   0.54335   0.00000  Uiso   1.00
H681   H     0.41929   0.43106   0.56244   0.00000  Uiso   1.00
H682   H     0.58075   0.56895   0.93756   0.00000  Uiso   1.00
H683   H     0.33492   0.53829   0.78414   0.00000  Uiso   1.00
H684   H     0.66508   0.46171   0.71586   0.00000  Uiso   1.00
N685   N     0.64839   0.51401   0.76212   0.00000  Uiso   1.00
N686   N     0.35161   0.48599   0.73788   0.00000  Uiso   1.00
O687   O     0.46148   0.57142   0.74686   0.00000  Uiso   1.00
O688   O     0.53852   0.42858   0.75314   0.00000  Uiso   1.00
O689   O     0.56163   0.58086   0.75502   0.00000  Uiso   1.00
O690   O     0.43837   0.41914   0.74497   0.00000  Uiso   1.00
O691   O     0.42185   0.49263   0.80854   0.00000  Uiso   1.00
O692   O     0.57815   0.50737   0.69145   0.00000  Uiso   1.00
O693   O     0.52199   0.50207   0.81671   0.00000  Uiso   1.00
O694   O     0.47801   0.49793   0.68329   0.00000  Uiso   1.00
F695   F     0.66253   0.41607   0.52532   0.00000  Uiso   1.00
F696   F     0.33751   0.58392   0.97467   0.00000  Uiso   1.00
F697   F     0.45378   0.47920   0.61354   0.00000  Uiso   1.00
F698   F     0.54620   0.52088   0.88646   0.00000  Uiso   1.00
Br699  Br    0.56287   0.35273   0.80224   0.00000  Uiso   1.00
Br700  Br    0.43712   0.64727   0.69777   0.00000  Uiso   1.00
C701   C     0.84750   0.59983   0.75193   0.00000  Uiso   1.00
C702   C     0.81917   0.40017   0.74807   0.00000  Uiso   1.00
C703   C     0.76531   0.45469   0.53408   0.00000  Uiso   1.00
C704   C     0.90138   0.54532   0.96591   0.00000  Uiso   1.00
C705   C     0.72033   0.44727   0.50970   0.00000  Uiso   1.00
C706   C     0.94637   0.55273   0.99029   0.00000  Uiso   1.00
C707   C     0.85047   0.65456   0.75917   0.00000  Uiso   1.00
C708   C     0.81619   0.34544   0.74084   0.00000  Uiso   1.00
C709   C     0.79503   0.49686   0.83310   0.00000  Uiso   1.00
C710   C     0.87163   0.50315   0.66690   0.00000  Uiso   1.00
C711   C     0.77268   0.49291   0.88057   0.00000  Uiso   1.00
C712   C     0.89399   0.50710   0.61943   0.00000  Uiso   1.00
C713   C     0.69113   0.45859   0.94328   0.00000  Uiso   1.00
C714   C     0.97555   0.54140   0.55672   0.00000  Uiso   1.00
C715   C     0.70906   0.47183   0.89978   0.00000  Uiso   1.00
C716   C     0.95761   0.52816   0.60022   0.00000  Uiso   1.00
C717   C     0.81714   0.50575   0.90641   0.00000  Uiso   1.00
C718   C     0.84953   0.49428   0.59358   0.00000  Uiso   1.00
C719   C     0.79872   0.49661   0.95135   0.00000  Uiso   1.00
C720   C     0.86796   0.50341   0.54864   0.00000  Uiso   1.00
C721   C     0.73601   0.46851   0.96860   0.00000  Uiso   1.00
C722   C     0.93067   0.53149   0.53140   0.00000  Uiso   1.00
C723   C     0.84198   0.51049   0.97886   0.00000  Uiso   1.00
C724   C     0.82471   0.48952   0.52114   0.00000  Uiso   1.00
Cu725  Cu    0.77404   0.49441   0.74516   0.00000  Uiso   1.00
Cu726  Cu    0.89263   0.50559   0.75483   0.00000  Uiso   1.00
H727   H     0.99254   0.53796   0.61946   0.00000  Uiso   1.00
H728   H     0.67414   0.46201   0.88054   0.00000  Uiso   1.00
H729   H     0.97586   0.43881   0.95665   0.00000  Uiso   1.00
H730   H     0.69083   0.56117   0.54335   0.00000  Uiso   1.00
H731   H     0.75262   0.43106   0.56244   0.00000  Uiso   1.00
H732   H     0.91408   0.56895   0.93756   0.00000  Uiso   1.00
H733   H     0.66826   0.53829   0.78414   0.00000  Uiso   1.00
H734   H     0.99841   0.46171   0.71586   0.00000  Uiso   1.00
N735   N     0.98173   0.51401   0.76212   0.00000  Uiso   1.00
N736   N     0.68494   0.48599   0.73788   0.00000  Uiso   1.00
O737   O     0.79482   0.57142   0.74686   0.00000  Uiso   1.00
O738   O     0.87185   0.42858   0.75314   0.00000  Uiso   1.00
O739   O     0.89496   0.58086   0.75502   0.00000  Uiso   1.00
O740   O     0.77171   0.41914   0.74497   0.00000  Uiso   1.00
O741   O     0.75518   0.49263   0.80854   0.00000  Uiso   1.00
O742   O     0.91149   0.50737   0.69145   0.00000  Uiso   1.00
O743   O     0.85532   0.50207   0.81671   0.00000  Uiso   1.00
O744   O     0.81134   0.49793   0.68329   0.00000  Uiso   1.00
F745   F     0.99586   0.41607   0.52532   0.00000  Uiso   1.00
F746   F     0.67084   0.58392   0.97467   0.00000  Uiso   1.00
F747   F     0.78712   0.47920   0.61354   0.00000  Uiso   1.00
F748   F     0.87954   0.52088   0.88646   0.00000  Uiso   1.00
Br749  Br    0.89621   0.35273   0.80224   0.00000  Uiso   1.00
Br750  Br    0.77045   0.64727   0.69777   0.00000  Uiso   1.00
C751   C     0.18083   0.93317   0.75193   0.00000  Uiso   1.00
C752   C     0.15250   0.73350   0.74807   0.00000  Uiso   1.00
C753   C     0.09864   0.78802   0.53408   0.00000  Uiso   1.00
C754   C     0.23472   0.87865   0.96591   0.00000  Uiso   1.00
C755   C     0.05366   0.78060   0.50970   0.00000  Uiso   1.00
C756   C     0.27970   0.88606   0.99029   0.00000  Uiso   1.00
C757   C     0.18380   0.98789   0.75917   0.00000  Uiso   1.00
C758   C     0.14953   0.67877   0.74084   0.00000  Uiso   1.00
C759   C     0.12837   0.83019   0.83310   0.00000  Uiso   1.00
C760   C     0.20497   0.83648   0.66690   0.00000  Uiso   1.00
C761   C     0.10601   0.82624   0.88057   0.00000  Uiso   1.00
C762   C     0.22732   0.84043   0.61943   0.00000  Uiso   1.00
C763   C     0.02447   0.79192   0.94328   0.00000  Uiso   1.00
C764   C     0.30888   0.87473   0.55672   0.00000  Uiso   1.00
C765   C     0.04240   0.80516   0.89978   0.00000  Uiso   1.00
C766   C     0.29095   0.86149   0.60022   0.00000  Uiso   1.00
C767   C     0.15047   0.83908   0.90641   0.00000  Uiso   1.00
C768   C     0.18286   0.82762   0.59358   0.00000  Uiso   1.00
C769   C     0.13206   0.82994   0.95135   0.00000  Uiso   1.00
C770   C     0.20129   0.83674   0.54864   0.00000  Uiso   1.00
C771   C     0.06935   0.80185   0.96860   0.00000  Uiso   1.00
C772   C     0.26401   0.86482   0.53140   0.00000  Uiso   1.00
C773   C     0.17531   0.84383   0.97886   0.00000  Uiso   1.00
C774   C     0.15804   0.82286   0.52114   0.00000  Uiso   1.00
Cu775  Cu    0.10737   0.82775   0.74516   0.00000  Uiso   1.00
Cu776  Cu    0.22596   0.83892   0.75483   0.00000  Uiso   1.00
H777   H     0.32587   0.87129   0.61946   0.00000  Uiso   1.00
H778   H     0.00748   0.79535   0.88054   0.00000  Uiso   1.00
H779   H     0.30919   0.77214   0.95665   0.00000  Uiso   1.00
H780   H     0.02417   0.89450   0.54335   0.00000  Uiso   1.00
H781   H     0.08596   0.76439   0.56244   0.00000  Uiso   1.00
H782   H     0.24742   0.90228   0.93756   0.00000  Uiso   1.00
H783   H     0.00159   0.87162   0.78414   0.00000  Uiso   1.00
H784   H     0.33174   0.79504   0.71586   0.00000  Uiso   1.00
N785   N     0.31506   0.84735   0.76212   0.00000  Uiso   1.00
N786   N     0.01827   0.81932   0.73788   0.00000  Uiso   1.00
O787   O     0.12815   0.90476   0.74686   0.00000  Uiso   1.00
O788   O     0.20518   0.76191   0.75314   0.00000  Uiso   1.00
O789   O     0.22829   0.91420   0.75502   0.00000  Uiso   1.00
O790   O     0.10504   0.75247   0.74497   0.00000  Uiso   1.00
O791   O     0.08851   0.82597   0.80854   0.00000  Uiso   1.00
O792   O     0.24482   0.84070   0.69145   0.00000  Uiso   1.00
O793   O     0.18866   0.83540   0.81671   0.00000  Uiso   1.00
O794   O     0.14468   0.83126   0.68329   0.00000  Uiso   1.00
F795   F     0.32920   0.74940   0.52532   0.00000  Uiso   1.00
F796   F     0.00417   0.91725   0.97467   0.00000  Uiso   1.00
F797   F     0.12045   0.81254   0.61354   0.00000  Uiso   1.00
F798   F     0.21287   0.85421   0.88646   0.00000  Uiso   1.00
Br799  Br    0.22954   0.68606   0.80224   0.00000  Uiso   1.00
Br800  Br    0.10379   0.98061   0.69777   0.00000  Uiso   1.00
C801   C     0.51417   0.93317   0.75193   0.00000  Uiso   1.00
C802   C     0.48583   0.73350   0.74807   0.00000  Uiso   1.00
C803   C     0.43198   0.78802   0.53408   0.00000  Uiso   1.00
C804   C     0.56805   0.87865   0.96591   0.00000  Uiso   1.00
C805   C     0.38700   0.78060   0.50970   0.00000  Uiso   1.00
C806   C     0.61303   0.88606   0.99029   0.00000  Uiso   1.00
C807   C     0.51714   0.98789   0.75917   0.00000  Uiso   1.00
C808   C     0.48286   0.67877   0.74084   0.00000  Uiso   1.00
C809   C     0.46170   0.83019   0.83310   0.00000  Uiso   1.00
C810   C     0.53830   0.83648   0.66690   0.00000  Uiso   1.00
C811   C     0.43935   0.82624   0.88057   0.00000  Uiso   1.00
C812   C     0.56066   0.84043   0.61943   0.00000  Uiso   1.00
C813   C     0.35780   0.79192   0.94328   0.00000  Uiso   1.00
C814   C     0.64222   0.87473   0.55672   0.00000  Uiso   1.00
C815   C     0.37573   0.80516   0.89978   0.00000  Uiso   1.00
C816   C     0.62428   0.86149   0.60022   0.00000  Uiso   1.00
C817   C     0.48381   0.83908   0.90641   0.00000  Uiso   1.00
C818   C     0.51619   0.82762   0.59358   0.00000  Uiso   1.00
C819   C     0.46539   0.82994   0.95135   0.00000  Uiso   1.00
C820   C     0.53463   0.83674   0.54864   0.00000  Uiso   1.00
C821   C     0.40268   0.80185   0.96860   0.00000  Uiso   1.00
C822   C     0.59734   0.86482   0.53140   0.00000  Uiso   1.00
C823   C     0.50865   0.84383   0.97886   0.00000  Uiso   1.00
C824   C     0.49137   0.82286   0.52114   0.00000  Uiso   1.00
Cu825  Cu    0.44071   0.82775   0.74516   0.00000  Uiso   1.00
Cu826  Cu    0.55929   0.83892   0.75483   0.00000  Uiso   1.00
H827   H     0.65920   0.87129   0.61946   0.00000  Uiso   1.00
H828   H     0.34081   0.79535   0.88054   0.00000  Uiso   1.00
H829   H     0.64253   0.77214   0.95665   0.00000  Uiso   1.00
H830   H     0.35750   0.89450   0.54335   0.00000  Uiso   1.00
H831   H     0.41929   0.76439   0.56244   0.00000  Uiso   1.00
H832   H     0.58075   0.90228   0.93756   0.00000  Uiso   1.00
H833   H     0.33492   0.87162   0.78414   0.00000  Uiso   1.00
H834   H     0.66508   0.79504   0.71586   0.00000  Uiso   1.00
N835   N     0.64839   0.84735   0.76212   0.00000  Uiso   1.00
N836   N     0.35161   0.81932   0.73788   0.00000  Uiso   1.00
O837   O     0.46148   0.90476   0.74686   0.00000  Uiso   1.00
O838   O     0.53852   0.76191   0.75314   0.00000  Uiso   1.00
O839   O     0.56163   0.91420   0.75502   0.00000  Uiso   1.00
O840   O     0.43837   0.75247   0.74497   0.00000  Uiso   1.00
O841   O     0.42185   0.82597   0.80854   0.00000  Uiso   1.00
O842   O     0.57815   0.84070   0.69145   0.00000  Uiso   1.00
O843   O     0.52199   0.83540   0.81671   0.00000  Uiso   1.00
O844   O     0.47801   0.83126   0.68329   0.00000  Uiso   1.00
F845   F     0.66253   0.74940   0.52532   0.00000  Uiso   1.00
F846   F     0.33751   0.91725   0.97467   0.00000  Uiso   1.00
F847   F     0.45378   0.81254   0.61354   0.00000  Uiso   1.00
F848   F     0.54620   0.85421   0.88646   0.00000  Uiso   1.00
Br849  Br    0.56287   0.68606   0.80224   0.00000  Uiso   1.00
Br850  Br    0.43712   0.98061   0.69777   0.00000  Uiso   1.00
C851   C     0.84750   0.93317   0.75193   0.00000  Uiso   1.00
C852   C     0.81917   0.73350   0.74807   0.00000  Uiso   1.00
C853   C     0.76531   0.78802   0.53408   0.00000  Uiso   1.00
C854   C     0.90138   0.87865   0.96591   0.00000  Uiso   1.00
C855   C     0.72033   0.78060   0.50970   0.00000  Uiso   1.00
C856   C     0.94637   0.88606   0.99029   0.00000  Uiso   1.00
C857   C     0.85047   0.98789   0.75917   0.00000  Uiso   1.00
C858   C     0.81619   0.67877   0.74084   0.00000  Uiso   1.00
C859   C     0.79503   0.83019   0.83310   0.00000  Uiso   1.00
C860   C     0.87163   0.83648   0.66690   0.00000  Uiso   1.00
C861   C     0.77268   0.82624   0.88057   0.00000  Uiso   1.00
C862   C     0.89399   0.84043   0.61943   0.00000  Uiso   1.00
C863   C     0.69113   0.79192   0.94328   0.00000  Uiso   1.00
C864   C     0.97555   0.87473   0.55672   0.00000  Uiso   1.00
C865   C     0.70906   0.80516   0.89978   0.00000  Uiso   1.00
C866   C     0.95761   0.86149   0.60022   0.00000  Uiso   1.00
C867   C     0.81714   0.83908   0.90641   0.00000  Uiso   1.00
C868   C     0.84953   0.82762   0.59358   0.00000  Uiso   1.00
C869   C     0.79872   0.82994   0.95135   0.00000  Uiso   1.00
C870   C     0.86796   0.83674   0.54864   0.00000  Uiso   1.00
C871   C     0.73601   0.80185   0.96860   0.00000  Uiso   1.00
C872   C     0.93067   0.86482   0.53140   0.00000  Uiso   1.00
C873   C     0.84198   0.84383   0.97886   0.00000  Uiso   1.00
C874   C     0.82471   0.82286   0.52114   0.00000  Uiso   1.00
Cu875  Cu    0.77404   0.82775   0.74516   0.00000  Uiso   1.00
Cu876  Cu    0.89263   0.83892   0.75483   0.00000  Uiso   1.00
H877   H     0.99254   0.87129   0.61946   0.00000  Uiso   1.00
H878   H     0.67414   0.79535   0.88054   0.00000  Uiso   1.00
H879   H     0.97586   0.77214   0.95665   0.00000  Uiso   1.00
H880   H     0.69083   0.89450   0.54335   0.00000  Uiso   1.00
H881   H     0.75262   0.76439   0.56244   0.00000  Uiso   1.00
H882   H     0.91408   0.90228   0.93756   0.00000  Uiso   1.00
H883   H     0.66826   0.87162   0.78414   0.00000  Uiso   1.00
H884   H     0.99841   0.79504   0.71586   0.00000  Uiso   1.00
N885   N     0.98173   0.84735   0.76212   0.00000  Uiso   1.00
N886   N     0.68494   0.81932   0.73788   0.00000  Uiso   1.00
O887   O     0.79482   0.90476   0.74686   0.00000  Uiso   1.00
O888   O     0.87185   0.76191   0.75314   0.00000  Uiso   1.00
O889   O     0.89496   0.91420   0.75502   0.00000  Uiso   1.00
O890   O     0.77171   0.75247   0.74497   0.00000  Uiso   1.00
O891   O     0.75518   0.82597   0.80854   0.00000  Uiso   1.00
O892   O     0.91149   0.84070   0.69145   0.00000  Uiso   1.00
O893   O     0.85532   0.83540   0.81671   0.00000  Uiso   1.00
O894   O     0.81134   0.83126   0.68329   0.00000  Uiso   1.00
F895   F     0.99586   0.74940   0.52532   0.00000  Uiso   1.00
F896   F     0.67084   0.91725   0.97467   0.00000  Uiso   1.00
F897   F     0.78712   0.81254   0.61354   0.00000  Uiso   1.00
F898   F     0.87954   0.85421   0.88646   0.00000  Uiso   1.00
Br899  Br    0.89621   0.68606   0.80224   0.00000  Uiso   1.00
Br900  Br    0.77045   0.98061   0.69777   0.00000  Uiso   1.00
loop_
_geom_bond_atom_site_label_1
_geom_bond_atom_site_label_2
_geom_bond_distance
_geom_bond_site_symmetry_2
_ccdc_geom_bond_type
C1     O37     1.284   .     A
C1     O39     1.287   .     A
C1     C7      1.424   .     S
C2     O40     1.287   .     A
C2     O38     1.284   .     A
C2     C8      1.424   .     S
C3     C24     1.415   .     A
C3     H31     1.076   .     S
C3     C5      1.387   .     A
C4     H32     1.076   .     S
C4     C6      1.387   .     A
C4     C23     1.415   .     A
C5     C471    1.393   1_554 S
C5     F145    1.359   1_455 S
C6     C472    1.393   .     S
C6     F96     1.359   .     S
C7     C158    1.346   .     S
C7     Br199   1.941   .     S
C8     C307    1.346   1_545 S
C8     Br350   1.941   1_545 S
C9     O41     1.304   .     A
C9     C11     1.473   .     S
C9     O43     1.290   .     A
C10    O42     1.304   .     A
C10    O44     1.290   .     A
C10    C12     1.473   .     S
C11    C15     1.398   .     A
C11    C17     1.411   .     A
C12    C18     1.411   .     A
C12    C16     1.398   .     A
C13    C21     1.405   .     A
C13    C15     1.391   .     A
C13    H129    1.084   1_455 S
C14    C22     1.405   .     A
C14    C16     1.391   .     A
C14    H80     1.084   .     S
C15    H28     1.083   .     S
C16    H27     1.083   .     S
C17    F48     1.356   .     S
C17    C19     1.411   .     A
C18    F47     1.356   .     S
C18    C20     1.411   .     A
C19    C23     1.431   .     A
C19    C21     1.419   .     A
C20    C22     1.419   .     A
C20    C24     1.431   .     A
C21    C455    1.393   .     S
C22    C456    1.393   1_554 S
C23    C474    1.422   .     S
C24    C473    1.422   1_554 S
Cu25   O37     1.968   .     S
Cu25   O41     1.959   .     S
Cu25   O44     1.938   .     S
Cu25   O40     1.960   .     S
Cu25   N36     2.014   .     S
Cu25   Cu26    2.680   .     S
Cu26   O43     1.938   .     S
Cu26   O39     1.960   .     S
Cu26   N35     2.014   .     S
Cu26   O42     1.959   .     S
Cu26   O38     1.968   .     S
H29    C63     1.084   .     S
H30    C114    1.084   1_455 S
H33    N135    1.029   1_455 S
H34    N86     1.029   .     S
N35    H83     1.029   .     S
N35    N86     1.286   .     S
N36    H134    1.029   1_455 S
N36    N135    1.286   1_455 S
F45    C55     1.359   .     S
F46    C106    1.359   1_455 S
Br49   C307    1.941   1_545 S
Br50   C158    1.941   .     S
C51    O87     1.284   .     A
C51    O89     1.287   .     A
C51    C57     1.424   .     S
C52    O90     1.287   .     A
C52    O88     1.284   .     A
C52    C58     1.424   .     S
C53    C74     1.415   .     A
C53    H81     1.076   .     S
C53    C55     1.387   .     A
C54    H82     1.076   .     S
C54    C56     1.387   .     A
C54    C73     1.415   .     A
C55    C521    1.393   1_554 S
C56    C522    1.393   .     S
C56    F146    1.359   .     S
C57    C208    1.346   .     S
C57    Br249   1.941   .     S
C58    C357    1.346   1_545 S
C58    Br400   1.941   1_545 S
C59    O91     1.304   .     A
C59    C61     1.473   .     S
C59    O93     1.290   .     A
C60    O92     1.304   .     A
C60    O94     1.290   .     A
C60    C62     1.473   .     S
C61    C65     1.398   .     A
C61    C67     1.411   .     A
C62    C68     1.411   .     A
C62    C66     1.398   .     A
C63    C71     1.405   .     A
C63    C65     1.391   .     A
C64    C72     1.405   .     A
C64    C66     1.391   .     A
C64    H130    1.084   .     S
C65    H78     1.083   .     S
C66    H77     1.083   .     S
C67    F98     1.356   .     S
C67    C69     1.411   .     A
C68    F97     1.356   .     S
C68    C70     1.411   .     A
C69    C73     1.431   .     A
C69    C71     1.419   .     A
C70    C72     1.419   .     A
C70    C74     1.431   .     A
C71    C505    1.393   .     S
C72    C506    1.393   1_554 S
C73    C524    1.422   .     S
C74    C523    1.422   1_554 S
Cu75   O87     1.968   .     S
Cu75   O91     1.959   .     S
Cu75   O94     1.938   .     S
Cu75   O90     1.960   .     S
Cu75   N86     2.014   .     S
Cu75   Cu76    2.680   .     S
Cu76   O93     1.938   .     S
Cu76   O89     1.960   .     S
Cu76   N85     2.014   .     S
Cu76   O92     1.959   .     S
Cu76   O88     1.968   .     S
H79    C113    1.084   .     S
H84    N136    1.029   .     S
N85    H133    1.029   .     S
N85    N136    1.286   .     S
F95    C105    1.359   .     S
Br99   C357    1.941   1_545 S
Br100  C208    1.941   .     S
C101   O137    1.284   .     A
C101   O139    1.287   .     A
C101   C107    1.424   .     S
C102   O140    1.287   .     A
C102   O138    1.284   .     A
C102   C108    1.424   .     S
C103   C124    1.415   .     A
C103   H131    1.076   .     S
C103   C105    1.387   .     A
C104   H132    1.076   .     S
C104   C106    1.387   .     A
C104   C123    1.415   .     A
C105   C571    1.393   1_554 S
C106   C572    1.393   .     S
C106   F46     1.359   1_655 S
C107   C258    1.346   .     S
C107   Br299   1.941   .     S
C108   C407    1.346   1_545 S
C108   Br450   1.941   1_545 S
C109   O141    1.304   .     A
C109   C111    1.473   .     S
C109   O143    1.290   .     A
C110   O142    1.304   .     A
C110   O144    1.290   .     A
C110   C112    1.473   .     S
C111   C115    1.398   .     A
C111   C117    1.411   .     A
C112   C118    1.411   .     A
C112   C116    1.398   .     A
C113   C121    1.405   .     A
C113   C115    1.391   .     A
C114   C122    1.405   .     A
C114   C116    1.391   .     A
C114   H30     1.084   1_655 S
C115   H128    1.083   .     S
C116   H127    1.083   .     S
C117   F148    1.356   .     S
C117   C119    1.411   .     A
C118   F147    1.356   .     S
C118   C120    1.411   .     A
C119   C123    1.431   .     A
C119   C121    1.419   .     A
C120   C122    1.419   .     A
C120   C124    1.431   .     A
C121   C555    1.393   .     S
C122   C556    1.393   1_554 S
C123   C574    1.422   .     S
C124   C573    1.422   1_554 S
Cu125  O137    1.968   .     S
Cu125  O141    1.959   .     S
Cu125  O144    1.938   .     S
Cu125  O140    1.960   .     S
Cu125  N136    2.014   .     S
Cu125  Cu126   2.680   .     S
Cu126  O143    1.938   .     S
Cu126  O139    1.960   .     S
Cu126  N135    2.014   .     S
Cu126  O142    1.959   .     S
Cu126  O138    1.968   .     S
H129   C13     1.084   1_655 S
H134   N36     1.029   1_655 S
N135   H33     1.029   1_655 S
N135   N36     1.286   1_655 S
F145   C5      1.359   1_655 S
Br149  C407    1.941   1_545 S
Br150  C258    1.941   .     S
C151   O187    1.284   .     A
C151   O189    1.287   .     A
C151   C157    1.424   .     S
C152   O190    1.287   .     A
C152   O188    1.284   .     A
C152   C158    1.424   .     S
C153   C174    1.415   .     A
C153   H181    1.076   .     S
C153   C155    1.387   .     A
C154   H182    1.076   .     S
C154   C156    1.387   .     A
C154   C173    1.415   .     A
C155   C621    1.393   1_554 S
C155   F295    1.359   1_455 S
C156   C622    1.393   .     S
C156   F246    1.359   .     S
C157   C308    1.346   .     S
C157   Br349   1.941   .     S
C159   O191    1.304   .     A
C159   C161    1.473   .     S
C159   O193    1.290   .     A
C160   O192    1.304   .     A
C160   O194    1.290   .     A
C160   C162    1.473   .     S
C161   C165    1.398   .     A
C161   C167    1.411   .     A
C162   C168    1.411   .     A
C162   C166    1.398   .     A
C163   C171    1.405   .     A
C163   C165    1.391   .     A
C163   H279    1.084   1_455 S
C164   C172    1.405   .     A
C164   C166    1.391   .     A
C164   H230    1.084   .     S
C165   H178    1.083   .     S
C166   H177    1.083   .     S
C167   F198    1.356   .     S
C167   C169    1.411   .     A
C168   F197    1.356   .     S
C168   C170    1.411   .     A
C169   C173    1.431   .     A
C169   C171    1.419   .     A
C170   C172    1.419   .     A
C170   C174    1.431   .     A
C171   C605    1.393   .     S
C172   C606    1.393   1_554 S
C173   C624    1.422   .     S
C174   C623    1.422   1_554 S
Cu175  O187    1.968   .     S
Cu175  O191    1.959   .     S
Cu175  O194    1.938   .     S
Cu175  O190    1.960   .     S
Cu175  N186    2.014   .     S
Cu175  Cu176   2.680   .     S
Cu176  O193    1.938   .     S
Cu176  O189    1.960   .     S
Cu176  N185    2.014   .     S
Cu176  O192    1.959   .     S
Cu176  O188    1.968   .     S
H179   C213    1.084   .     S
H180   C264    1.084   1_455 S
H183   N285    1.029   1_455 S
H184   N236    1.029   .     S
N185   H233    1.029   .     S
N185   N236    1.286   .     S
N186   H284    1.029   1_455 S
N186   N285    1.286   1_455 S
F195   C205    1.359   .     S
F196   C256    1.359   1_455 S
Br200  C308    1.941   .     S
C201   O237    1.284   .     A
C201   O239    1.287   .     A
C201   C207    1.424   .     S
C202   O240    1.287   .     A
C202   O238    1.284   .     A
C202   C208    1.424   .     S
C203   C224    1.415   .     A
C203   H231    1.076   .     S
C203   C205    1.387   .     A
C204   H232    1.076   .     S
C204   C206    1.387   .     A
C204   C223    1.415   .     A
C205   C671    1.393   1_554 S
C206   C672    1.393   .     S
C206   F296    1.359   .     S
C207   C358    1.346   .     S
C207   Br399   1.941   .     S
C209   O241    1.304   .     A
C209   C211    1.473   .     S
C209   O243    1.290   .     A
C210   O242    1.304   .     A
C210   O244    1.290   .     A
C210   C212    1.473   .     S
C211   C215    1.398   .     A
C211   C217    1.411   .     A
C212   C218    1.411   .     A
C212   C216    1.398   .     A
C213   C221    1.405   .     A
C213   C215    1.391   .     A
C214   C222    1.405   .     A
C214   C216    1.391   .     A
C214   H280    1.084   .     S
C215   H228    1.083   .     S
C216   H227    1.083   .     S
C217   F248    1.356   .     S
C217   C219    1.411   .     A
C218   F247    1.356   .     S
C218   C220    1.411   .     A
C219   C223    1.431   .     A
C219   C221    1.419   .     A
C220   C222    1.419   .     A
C220   C224    1.431   .     A
C221   C655    1.393   .     S
C222   C656    1.393   1_554 S
C223   C674    1.422   .     S
C224   C673    1.422   1_554 S
Cu225  O237    1.968   .     S
Cu225  O241    1.959   .     S
Cu225  O244    1.938   .     S
Cu225  O240    1.960   .     S
Cu225  N236    2.014   .     S
Cu225  Cu226   2.680   .     S
Cu226  O243    1.938   .     S
Cu226  O239    1.960   .     S
Cu226  N235    2.014   .     S
Cu226  O242    1.959   .     S
Cu226  O238    1.968   .     S
H229   C263    1.084   .     S
H234   N286    1.029   .     S
N235   H283    1.029   .     S
N235   N286    1.286   .     S
F245   C255    1.359   .     S
Br250  C358    1.941   .     S
C251   O287    1.284   .     A
C251   O289    1.287   .     A
C251   C257    1.424   .     S
C252   O290    1.287   .     A
C252   O288    1.284   .     A
C252   C258    1.424   .     S
C253   C274    1.415   .     A
C253   H281    1.076   .     S
C253   C255    1.387   .     A
C254   H282    1.076   .     S
C254   C256    1.387   .     A
C254   C273    1.415   .     A
C255   C721    1.393   1_554 S
C256   C722    1.393   .     S
C256   F196    1.359   1_655 S
C257   C408    1.346   .     S
C257   Br449   1.941   .     S
C259   O291    1.304   .     A
C259   C261    1.473   .     S
C259   O293    1.290   .     A
C260   O292    1.304   .     A
C260   O294    1.290   .     A
C260   C262    1.473   .     S
C261   C265    1.398   .     A
C261   C267    1.411   .     A
C262   C268    1.411   .     A
C262   C266    1.398   .     A
C263   C271    1.405   .     A
C263   C265    1.391   .     A
C264   C272    1.405   .     A
C264   C266    1.391   .     A
C264   H180    1.084   1_655 S
C265   H278    1.083   .     S
C266   H277    1.083   .     S
C267   F298    1.356   .     S
C267   C269    1.411   .     A
C268   F297    1.356   .     S
C268   C270    1.411   .     A
C269   C273    1.431   .     A
C269   C271    1.419   .     A
C270   C272    1.419   .     A
C270   C274    1.431   .     A
C271   C705    1.393   .     S
C272   C706    1.393   1_554 S
C273   C724    1.422   .     S
C274   C723    1.422   1_554 S
Cu275  O287    1.968   .     S
Cu275  O291    1.959   .     S
Cu275  O294    1.938   .     S
Cu275  O290    1.960   .     S
Cu275  N286    2.014   .     S
Cu275  Cu276   2.680   .     S
Cu276  O293    1.938   .     S
Cu276  O289    1.960   .     S
Cu276  N285    2.014   .     S
Cu276  O292    1.959   .     S
Cu276  O288    1.968   .     S
H279   C163    1.084   1_655 S
H284   N186    1.029   1_655 S
N285   H183    1.029   1_655 S
N285   N186    1.286   1_655 S
F295   C155    1.359   1_655 S
Br300  C408    1.941   .     S
C301   O337    1.284   .     A
C301   O339    1.287   .     A
C301   C307    1.424   .     S
C302   O340    1.287   .     A
C302   O338    1.284   .     A
C302   C308    1.424   .     S
C303   C324    1.415   .     A
C303   H331    1.076   .     S
C303   C305    1.387   .     A
C304   H332    1.076   .     S
C304   C306    1.387   .     A
C304   C323    1.415   .     A
C305   C771    1.393   1_554 S
C305   F445    1.359   1_455 S
C306   C772    1.393   .     S
C306   F396    1.359   .     S
C307   C8      1.346   1_565 S
C307   Br49    1.941   1_565 S
C309   O341    1.304   .     A
C309   C311    1.473   .     S
C309   O343    1.290   .     A
C310   O342    1.304   .     A
C310   O344    1.290   .     A
C310   C312    1.473   .     S
C311   C315    1.398   .     A
C311   C317    1.411   .     A
C312   C318    1.411   .     A
C312   C316    1.398   .     A
C313   C321    1.405   .     A
C313   C315    1.391   .     A
C313   H429    1.084   1_455 S
C314   C322    1.405   .     A
C314   C316    1.391   .     A
C314   H380    1.084   .     S
C315   H328    1.083   .     S
C316   H327    1.083   .     S
C317   F348    1.356   .     S
C317   C319    1.411   .     A
C318   F347    1.356   .     S
C318   C320    1.411   .     A
C319   C323    1.431   .     A
C319   C321    1.419   .     A
C320   C322    1.419   .     A
C320   C324    1.431   .     A
C321   C755    1.393   .     S
C322   C756    1.393   1_554 S
C323   C774    1.422   .     S
C324   C773    1.422   1_554 S
Cu325  O337    1.968   .     S
Cu325  O341    1.959   .     S
Cu325  O344    1.938   .     S
Cu325  O340    1.960   .     S
Cu325  N336    2.014   .     S
Cu325  Cu326   2.680   .     S
Cu326  O343    1.938   .     S
Cu326  O339    1.960   .     S
Cu326  N335    2.014   .     S
Cu326  O342    1.959   .     S
Cu326  O338    1.968   .     S
H329   C363    1.084   .     S
H330   C414    1.084   1_455 S
H333   N435    1.029   1_455 S
H334   N386    1.029   .     S
N335   H383    1.029   .     S
N335   N386    1.286   .     S
N336   H434    1.029   1_455 S
N336   N435    1.286   1_455 S
F345   C355    1.359   .     S
F346   C406    1.359   1_455 S
Br350  C8      1.941   1_565 S
C351   O387    1.284   .     A
C351   O389    1.287   .     A
C351   C357    1.424   .     S
C352   O390    1.287   .     A
C352   O388    1.284   .     A
C352   C358    1.424   .     S
C353   C374    1.415   .     A
C353   H381    1.076   .     S
C353   C355    1.387   .     A
C354   H382    1.076   .     S
C354   C356    1.387   .     A
C354   C373    1.415   .     A
C355   C821    1.393   1_554 S
C356   C822    1.393   .     S
C356   F446    1.359   .     S
C357   C58     1.346   1_565 S
C357   Br99    1.941   1_565 S
C359   O391    1.304   .     A
C359   C361    1.473   .     S
C359   O393    1.290   .     A
C360   O392    1.304   .     A
C360   O394    1.290   .     A
C360   C362    1.473   .     S
C361   C365    1.398   .     A
C361   C367    1.411   .     A
C362   C368    1.411   .     A
C362   C366    1.398   .     A
C363   C371    1.405   .     A
C363   C365    1.391   .     A
C364   C372    1.405   .     A
C364   C366    1.391   .     A
C364   H430    1.084   .     S
C365   H378    1.083   .     S
C366   H377    1.083   .     S
C367   F398    1.356   .     S
C367   C369    1.411   .     A
C368   F397    1.356   .     S
C368   C370    1.411   .     A
C369   C373    1.431   .     A
C369   C371    1.419   .     A
C370   C372    1.419   .     A
C370   C374    1.431   .     A
C371   C805    1.393   .     S
C372   C806    1.393   1_554 S
C373   C824    1.422   .     S
C374   C823    1.422   1_554 S
Cu375  O387    1.968   .     S
Cu375  O391    1.959   .     S
Cu375  O394    1.938   .     S
Cu375  O390    1.960   .     S
Cu375  N386    2.014   .     S
Cu375  Cu376   2.680   .     S
Cu376  O393    1.938   .     S
Cu376  O389    1.960   .     S
Cu376  N385    2.014   .     S
Cu376  O392    1.959   .     S
Cu376  O388    1.968   .     S
H379   C413    1.084   .     S
H384   N436    1.029   .     S
N385   H433    1.029   .     S
N385   N436    1.286   .     S
F395   C405    1.359   .     S
Br400  C58     1.941   1_565 S
C401   O437    1.284   .     A
C401   O439    1.287   .     A
C401   C407    1.424   .     S
C402   O440    1.287   .     A
C402   O438    1.284   .     A
C402   C408    1.424   .     S
C403   C424    1.415   .     A
C403   H431    1.076   .     S
C403   C405    1.387   .     A
C404   H432    1.076   .     S
C404   C406    1.387   .     A
C404   C423    1.415   .     A
C405   C871    1.393   1_554 S
C406   C872    1.393   .     S
C406   F346    1.359   1_655 S
C407   C108    1.346   1_565 S
C407   Br149   1.941   1_565 S
C409   O441    1.304   .     A
C409   C411    1.473   .     S
C409   O443    1.290   .     A
C410   O442    1.304   .     A
C410   O444    1.290   .     A
C410   C412    1.473   .     S
C411   C415    1.398   .     A
C411   C417    1.411   .     A
C412   C418    1.411   .     A
C412   C416    1.398   .     A
C413   C421    1.405   .     A
C413   C415    1.391   .     A
C414   C422    1.405   .     A
C414   C416    1.391   .     A
C414   H330    1.084   1_655 S
C415   H428    1.083   .     S
C416   H427    1.083   .     S
C417   F448    1.356   .     S
C417   C419    1.411   .     A
C418   F447    1.356   .     S
C418   C420    1.411   .     A
C419   C423    1.431   .     A
C419   C421    1.419   .     A
C420   C422    1.419   .     A
C420   C424    1.431   .     A
C421   C855    1.393   .     S
C422   C856    1.393   1_554 S
C423   C874    1.422   .     S
C424   C873    1.422   1_554 S
Cu425  O437    1.968   .     S
Cu425  O441    1.959   .     S
Cu425  O444    1.938   .     S
Cu425  O440    1.960   .     S
Cu425  N436    2.014   .     S
Cu425  Cu426   2.680   .     S
Cu426  O443    1.938   .     S
Cu426  O439    1.960   .     S
Cu426  N435    2.014   .     S
Cu426  O442    1.959   .     S
Cu426  O438    1.968   .     S
H429   C313    1.084   1_655 S
H434   N336    1.029   1_655 S
N435   H333    1.029   1_655 S
N435   N336    1.286   1_655 S
F445   C305    1.359   1_655 S
Br450  C108    1.941   1_565 S
C451   O487    1.284   .     A
C451   O489    1.287   .     A
C451   C457    1.424   .     S
C452   O490    1.287   .     A
C452   O488    1.284   .     A
C452   C458    1.424   .     S
C453   C474    1.415   .     A
C453   H481    1.076   .     S
C453   C455    1.387   .     A
C454   H482    1.076   .     S
C454   C456    1.387   .     A
C454   C473    1.415   .     A
C455   F595    1.359   1_455 S
C456   C22     1.393   1_556 S
C456   F546    1.359   .     S
C457   C608    1.346   .     S
C457   Br649   1.941   .     S
C458   C757    1.346   1_545 S
C458   Br800   1.941   1_545 S
C459   O491    1.304   .     A
C459   C461    1.473   .     S
C459   O493    1.290   .     A
C460   O492    1.304   .     A
C460   O494    1.290   .     A
C460   C462    1.473   .     S
C461   C465    1.398   .     A
C461   C467    1.411   .     A
C462   C468    1.411   .     A
C462   C466    1.398   .     A
C463   C471    1.405   .     A
C463   C465    1.391   .     A
C463   H579    1.084   1_455 S
C464   C472    1.405   .     A
C464   C466    1.391   .     A
C464   H530    1.084   .     S
C465   H478    1.083   .     S
C466   H477    1.083   .     S
C467   F498    1.356   .     S
C467   C469    1.411   .     A
C468   F497    1.356   .     S
C468   C470    1.411   .     A
C469   C473    1.431   .     A
C469   C471    1.419   .     A
C470   C472    1.419   .     A
C470   C474    1.431   .     A
C471   C5      1.393   1_556 S
C473   C24     1.422   1_556 S
Cu475  O487    1.968   .     S
Cu475  O491    1.959   .     S
Cu475  O494    1.938   .     S
Cu475  O490    1.960   .     S
Cu475  N486    2.014   .     S
Cu475  Cu476   2.680   .     S
Cu476  O493    1.938   .     S
Cu476  O489    1.960   .     S
Cu476  N485    2.014   .     S
Cu476  O492    1.959   .     S
Cu476  O488    1.968   .     S
H479   C513    1.084   .     S
H480   C564    1.084   1_455 S
H483   N585    1.029   1_455 S
H484   N536    1.029   .     S
N485   H533    1.029   .     S
N485   N536    1.286   .     S
N486   H584    1.029   1_455 S
N486   N585    1.286   1_455 S
F495   C505    1.359   .     S
F496   C556    1.359   1_455 S
Br499  C757    1.941   1_545 S
Br500  C608    1.941   .     S
C501   O537    1.284   .     A
C501   O539    1.287   .     A
C501   C507    1.424   .     S
C502   O540    1.287   .     A
C502   O538    1.284   .     A
C502   C508    1.424   .     S
C503   C524    1.415   .     A
C503   H531    1.076   .     S
C503   C505    1.387   .     A
C504   H532    1.076   .     S
C504   C506    1.387   .     A
C504   C523    1.415   .     A
C506   C72     1.393   1_556 S
C506   F596    1.359   .     S
C507   C658    1.346   .     S
C507   Br699   1.941   .     S
C508   C807    1.346   1_545 S
C508   Br850   1.941   1_545 S
C509   O541    1.304   .     A
C509   C511    1.473   .     S
C509   O543    1.290   .     A
C510   O542    1.304   .     A
C510   O544    1.290   .     A
C510   C512    1.473   .     S
C511   C515    1.398   .     A
C511   C517    1.411   .     A
C512   C518    1.411   .     A
C512   C516    1.398   .     A
C513   C521    1.405   .     A
C513   C515    1.391   .     A
C514   C522    1.405   .     A
C514   C516    1.391   .     A
C514   H580    1.084   .     S
C515   H528    1.083   .     S
C516   H527    1.083   .     S
C517   F548    1.356   .     S
C517   C519    1.411   .     A
C518   F547    1.356   .     S
C518   C520    1.411   .     A
C519   C523    1.431   .     A
C519   C521    1.419   .     A
C520   C522    1.419   .     A
C520   C524    1.431   .     A
C521   C55     1.393   1_556 S
C523   C74     1.422   1_556 S
Cu525  O537    1.968   .     S
Cu525  O541    1.959   .     S
Cu525  O544    1.938   .     S
Cu525  O540    1.960   .     S
Cu525  N536    2.014   .     S
Cu525  Cu526   2.680   .     S
Cu526  O543    1.938   .     S
Cu526  O539    1.960   .     S
Cu526  N535    2.014   .     S
Cu526  O542    1.959   .     S
Cu526  O538    1.968   .     S
H529   C563    1.084   .     S
H534   N586    1.029   .     S
N535   H583    1.029   .     S
N535   N586    1.286   .     S
F545   C555    1.359   .     S
Br549  C807    1.941   1_545 S
Br550  C658    1.941   .     S
C551   O587    1.284   .     A
C551   O589    1.287   .     A
C551   C557    1.424   .     S
C552   O590    1.287   .     A
C552   O588    1.284   .     A
C552   C558    1.424   .     S
C553   C574    1.415   .     A
C553   H581    1.076   .     S
C553   C555    1.387   .     A
C554   H582    1.076   .     S
C554   C556    1.387   .     A
C554   C573    1.415   .     A
C556   C122    1.393   1_556 S
C556   F496    1.359   1_655 S
C557   C708    1.346   .     S
C557   Br749   1.941   .     S
C558   C857    1.346   1_545 S
C558   Br900   1.941   1_545 S
C559   O591    1.304   .     A
C559   C561    1.473   .     S
C559   O593    1.290   .     A
C560   O592    1.304   .     A
C560   O594    1.290   .     A
C560   C562    1.473   .     S
C561   C565    1.398   .     A
C561   C567    1.411   .     A
C562   C568    1.411   .     A
C562   C566    1.398   .     A
C563   C571    1.405   .     A
C563   C565    1.391   .     A
C564   C572    1.405   .     A
C564   C566    1.391   .     A
C564   H480    1.084   1_655 S
C565   H578    1.083   .     S
C566   H577    1.083   .     S
C567   F598    1.356   .     S
C567   C569    1.411   .     A
C568   F597    1.356   .     S
C568   C570    1.411   .     A
C569   C573    1.431   .     A
C569   C571    1.419   .     A
C570   C572    1.419   .     A
C570   C574    1.431   .     A
C571   C105    1.393   1_556 S
C573   C124    1.422   1_556 S
Cu575  O587    1.968   .     S
Cu575  O591    1.959   .     S
Cu575  O594    1.938   .     S
Cu575  O590    1.960   .     S
Cu575  N586    2.014   .     S
Cu575  Cu576   2.680   .     S
Cu576  O593    1.938   .     S
Cu576  O589    1.960   .     S
Cu576  N585    2.014   .     S
Cu576  O592    1.959   .     S
Cu576  O588    1.968   .     S
H579   C463    1.084   1_655 S
H584   N486    1.029   1_655 S
N585   H483    1.029   1_655 S
N585   N486    1.286   1_655 S
F595   C455    1.359   1_655 S
Br599  C857    1.941   1_545 S
Br600  C708    1.941   .     S
C601   O637    1.284   .     A
C601   O639    1.287   .     A
C601   C607    1.424   .     S
C602   O640    1.287   .     A
C602   O638    1.284   .     A
C602   C608    1.424   .     S
C603   C624    1.415   .     A
C603   H631    1.076   .     S
C603   C605    1.387   .     A
C604   H632    1.076   .     S
C604   C606    1.387   .     A
C604   C623    1.415   .     A
C605   F745    1.359   1_455 S
C606   C172    1.393   1_556 S
C606   F696    1.359   .     S
C607   C758    1.346   .     S
C607   Br799   1.941   .     S
C609   O641    1.304   .     A
C609   C611    1.473   .     S
C609   O643    1.290   .     A
C610   O642    1.304   .     A
C610   O644    1.290   .     A
C610   C612    1.473   .     S
C611   C615    1.398   .     A
C611   C617    1.411   .     A
C612   C618    1.411   .     A
C612   C616    1.398   .     A
C613   C621    1.405   .     A
C613   C615    1.391   .     A
C613   H729    1.084   1_455 S
C614   C622    1.405   .     A
C614   C616    1.391   .     A
C614   H680    1.084   .     S
C615   H628    1.083   .     S
C616   H627    1.083   .     S
C617   F648    1.356   .     S
C617   C619    1.411   .     A
C618   F647    1.356   .     S
C618   C620    1.411   .     A
C619   C623    1.431   .     A
C619   C621    1.419   .     A
C620   C622    1.419   .     A
C620   C624    1.431   .     A
C621   C155    1.393   1_556 S
C623   C174    1.422   1_556 S
Cu625  O637    1.968   .     S
Cu625  O641    1.959   .     S
Cu625  O644    1.938   .     S
Cu625  O640    1.960   .     S
Cu625  N636    2.014   .     S
Cu625  Cu626   2.680   .     S
Cu626  O643    1.938   .     S
Cu626  O639    1.960   .     S
Cu626  N635    2.014   .     S
Cu626  O642    1.959   .     S
Cu626  O638    1.968   .     S
H629   C663    1.084   .     S
H630   C714    1.084   1_455 S
H633   N735    1.029   1_455 S
H634   N686    1.029   .     S
N635   H683    1.029   .     S
N635   N686    1.286   .     S
N636   H734    1.029   1_455 S
N636   N735    1.286   1_455 S
F645   C655    1.359   .     S
F646   C706    1.359   1_455 S
Br650  C758    1.941   .     S
C651   O687    1.284   .     A
C651   O689    1.287   .     A
C651   C657    1.424   .     S
C652   O690    1.287   .     A
C652   O688    1.284   .     A
C652   C658    1.424   .     S
C653   C674    1.415   .     A
C653   H681    1.076   .     S
C653   C655    1.387   .     A
C654   H682    1.076   .     S
C654   C656    1.387   .     A
C654   C673    1.415   .     A
C656   C222    1.393   1_556 S
C656   F746    1.359   .     S
C657   C808    1.346   .     S
C657   Br849   1.941   .     S
C659   O691    1.304   .     A
C659   C661    1.473   .     S
C659   O693    1.290   .     A
C660   O692    1.304   .     A
C660   O694    1.290   .     A
C660   C662    1.473   .     S
C661   C665    1.398   .     A
C661   C667    1.411   .     A
C662   C668    1.411   .     A
C662   C666    1.398   .     A
C663   C671    1.405   .     A
C663   C665    1.391   .     A
C664   C672    1.405   .     A
C664   C666    1.391   .     A
C664   H730    1.084   .     S
C665   H678    1.083   .     S
C666   H677    1.083   .     S
C667   F698    1.356   .     S
C667   C669    1.411   .     A
C668   F697    1.356   .     S
C668   C670    1.411   .     A
C669   C673    1.431   .     A
C669   C671    1.419   .     A
C670   C672    1.419   .     A
C670   C674    1.431   .     A
C671   C205    1.393   1_556 S
C673   C224    1.422   1_556 S
Cu675  O687    1.968   .     S
Cu675  O691    1.959   .     S
Cu675  O694    1.938   .     S
Cu675  O690    1.960   .     S
Cu675  N686    2.014   .     S
Cu675  Cu676   2.680   .     S
Cu676  O693    1.938   .     S
Cu676  O689    1.960   .     S
Cu676  N685    2.014   .     S
Cu676  O692    1.959   .     S
Cu676  O688    1.968   .     S
H679   C713    1.084   .     S
H684   N736    1.029   .     S
N685   H733    1.029   .     S
N685   N736    1.286   .     S
F695   C705    1.359   .     S
Br700  C808    1.941   .     S
C701   O737    1.284   .     A
C701   O739    1.287   .     A
C701   C707    1.424   .     S
C702   O740    1.287   .     A
C702   O738    1.284   .     A
C702   C708    1.424   .     S
C703   C724    1.415   .     A
C703   H731    1.076   .     S
C703   C705    1.387   .     A
C704   H732    1.076   .     S
C704   C706    1.387   .     A
C704   C723    1.415   .     A
C706   C272    1.393   1_556 S
C706   F646    1.359   1_655 S
C707   C858    1.346   .     S
C707   Br899   1.941   .     S
C709   O741    1.304   .     A
C709   C711    1.473   .     S
C709   O743    1.290   .     A
C710   O742    1.304   .     A
C710   O744    1.290   .     A
C710   C712    1.473   .     S
C711   C715    1.398   .     A
C711   C717    1.411   .     A
C712   C718    1.411   .     A
C712   C716    1.398   .     A
C713   C721    1.405   .     A
C713   C715    1.391   .     A
C714   C722    1.405   .     A
C714   C716    1.391   .     A
C714   H630    1.084   1_655 S
C715   H728    1.083   .     S
C716   H727    1.083   .     S
C717   F748    1.356   .     S
C717   C719    1.411   .     A
C718   F747    1.356   .     S
C718   C720    1.411   .     A
C719   C723    1.431   .     A
C719   C721    1.419   .     A
C720   C722    1.419   .     A
C720   C724    1.431   .     A
C721   C255    1.393   1_556 S
C723   C274    1.422   1_556 S
Cu725  O737    1.968   .     S
Cu725  O741    1.959   .     S
Cu725  O744    1.938   .     S
Cu725  O740    1.960   .     S
Cu725  N736    2.014   .     S
Cu725  Cu726   2.680   .     S
Cu726  O743    1.938   .     S
Cu726  O739    1.960   .     S
Cu726  N735    2.014   .     S
Cu726  O742    1.959   .     S
Cu726  O738    1.968   .     S
H729   C613    1.084   1_655 S
H734   N636    1.029   1_655 S
N735   H633    1.029   1_655 S
N735   N636    1.286   1_655 S
F745   C605    1.359   1_655 S
Br750  C858    1.941   .     S
C751   O787    1.284   .     A
C751   O789    1.287   .     A
C751   C757    1.424   .     S
C752   O790    1.287   .     A
C752   O788    1.284   .     A
C752   C758    1.424   .     S
C753   C774    1.415   .     A
C753   H781    1.076   .     S
C753   C755    1.387   .     A
C754   H782    1.076   .     S
C754   C756    1.387   .     A
C754   C773    1.415   .     A
C755   F895    1.359   1_455 S
C756   C322    1.393   1_556 S
C756   F846    1.359   .     S
C757   C458    1.346   1_565 S
C757   Br499   1.941   1_565 S
C759   O791    1.304   .     A
C759   C761    1.473   .     S
C759   O793    1.290   .     A
C760   O792    1.304   .     A
C760   O794    1.290   .     A
C760   C762    1.473   .     S
C761   C765    1.398   .     A
C761   C767    1.411   .     A
C762   C768    1.411   .     A
C762   C766    1.398   .     A
C763   C771    1.405   .     A
C763   C765    1.391   .     A
C763   H879    1.084   1_455 S
C764   C772    1.405   .     A
C764   C766    1.391   .     A
C764   H830    1.084   .     S
C765   H778    1.083   .     S
C766   H777    1.083   .     S
C767   F798    1.356   .     S
C767   C769    1.411   .     A
C768   F797    1.356   .     S
C768   C770    1.411   .     A
C769   C773    1.431   .     A
C769   C771    1.419   .     A
C770   C772    1.419   .     A
C770   C774    1.431   .     A
C771   C305    1.393   1_556 S
C773   C324    1.422   1_556 S
Cu775  O787    1.968   .     S
Cu775  O791    1.959   .     S
Cu775  O794    1.938   .     S
Cu775  O790    1.960   .     S
Cu775  N786    2.014   .     S
Cu775  Cu776   2.680   .     S
Cu776  O793    1.938   .     S
Cu776  O789    1.960   .     S
Cu776  N785    2.014   .     S
Cu776  O792    1.959   .     S
Cu776  O788    1.968   .     S
H779   C813    1.084   .     S
H780   C864    1.084   1_455 S
H783   N885    1.029   1_455 S
H784   N836    1.029   .     S
N785   H833    1.029   .     S
N785   N836    1.286   .     S
N786   H884    1.029   1_455 S
N786   N885    1.286   1_455 S
F795   C805    1.359   .     S
F796   C856    1.359   1_455 S
Br800  C458    1.941   1_565 S
C801   O837    1.284   .     A
C801   O839    1.287   .     A
C801   C807    1.424   .     S
C802   O840    1.287   .     A
C802   O838    1.284   .     A
C802   C808    1.424   .     S
C803   C824    1.415   .     A
C803   H831    1.076   .     S
C803   C805    1.387   .     A
C804   H832    1.076   .     S
C804   C806    1.387   .     A
C804   C823    1.415   .     A
C806   C372    1.393   1_556 S
C806   F896    1.359   .     S
C807   C508    1.346   1_565 S
C807   Br549   1.941   1_565 S
C809   O841    1.304   .     A
C809   C811    1.473   .     S
C809   O843    1.290   .     A
C810   O842    1.304   .     A
C810   O844    1.290   .     A
C810   C812    1.473   .     S
C811   C815    1.398   .     A
C811   C817    1.411   .     A
C812   C818    1.411   .     A
C812   C816    1.398   .     A
C813   C821    1.405   .     A
C813   C815    1.391   .     A
C814   C822    1.405   .     A
C814   C816    1.391   .     A
C814   H880    1.084   .     S
C815   H828    1.083   .     S
C816   H827    1.083   .     S
C817   F848    1.356   .     S
C817   C819    1.411   .     A
C818   F847    1.356   .     S
C818   C820    1.411   .     A
C819   C823    1.431   .     A
C819   C821    1.419   .     A
C820   C822    1.419   .     A
C820   C824    1.431   .     A
C821   C355    1.393   1_556 S
C823   C374    1.422   1_556 S
Cu825  O837    1.968   .     S
Cu825  O841    1.959   .     S
Cu825  O844    1.938   .     S
Cu825  O840    1.960   .     S
Cu825  N836    2.014   .     S
Cu825  Cu826   2.680   .     S
Cu826  O843    1.938   .     S
Cu826  O839    1.960   .     S
Cu826  N835    2.014   .     S
Cu826  O842    1.959   .     S
Cu826  O838    1.968   .     S
H829   C863    1.084   .     S
H834   N886    1.029   .     S
N835   H883    1.029   .     S
N835   N886    1.286   .     S
F845   C855    1.359   .     S
Br850  C508    1.941   1_565 S
C851   O887    1.284   .     A
C851   O889    1.287   .     A
C851   C857    1.424   .     S
C852   O890    1.287   .     A
C852   O888    1.284   .     A
C852   C858    1.424   .     S
C853   C874    1.415   .     A
C853   H881    1.076   .     S
C853   C855    1.387   .     A
C854   H882    1.076   .     S
C854   C856    1.387   .     A
C854   C873    1.415   .     A
C856   C422    1.393   1_556 S
C856   F796    1.359   1_655 S
C857   C558    1.346   1_565 S
C857   Br599   1.941   1_565 S
C859   O891    1.304   .     A
C859   C861    1.473   .     S
C859   O893    1.290   .     A
C860   O892    1.304   .     A
C860   O894    1.290   .     A
C860   C862    1.473   .     S
C861   C865    1.398   .     A
C861   C867    1.411   .     A
C862   C868    1.411   .     A
C862   C866    1.398   .     A
C863   C871    1.405   .     A
C863   C865    1.391   .     A
C864   C872    1.405   .     A
C864   C866    1.391   .     A
C864   H780    1.084   1_655 S
C865   H878    1.083   .     S
C866   H877    1.083   .     S
C867   F898    1.356   .     S
C867   C869    1.411   .     A
C868   F897    1.356   .     S
C868   C870    1.411   .     A
C869   C873    1.431   .     A
C869   C871    1.419   .     A
C870   C872    1.419   .     A
C870   C874    1.431   .     A
C871   C405    1.393   1_556 S
C873   C424    1.422   1_556 S
Cu875  O887    1.968   .     S
Cu875  O891    1.959   .     S
Cu875  O894    1.938   .     S
Cu875  O890    1.960   .     S
Cu875  N886    2.014   .     S
Cu875  Cu876   2.680   .     S
Cu876  O893    1.938   .     S
Cu876  O889    1.960   .     S
Cu876  N885    2.014   .     S
Cu876  O892    1.959   .     S
Cu876  O888    1.968   .     S
H879   C763    1.084   1_655 S
H884   N786    1.029   1_655 S
N885   H783    1.029   1_655 S
N885   N786    1.286   1_655 S
F895   C755    1.359   1_655 S
Br900  C558    1.941   1_565 S
