data_str_m2_o1_o5_pcu_sym.2
_audit_creation_date              2020-01-03
_audit_creation_method            'Materials Studio'
_symmetry_space_group_name_H-M    'P1'
_symmetry_Int_Tables_number       1
_symmetry_cell_setting            triclinic
loop_
_symmetry_equiv_pos_as_xyz
  x,y,z
_cell_length_a                    32.5321
_cell_length_b                    28.8066
_cell_length_c                    27.2228
_cell_angle_alpha                 90.0000
_cell_angle_beta                  92.0371
_cell_angle_gamma                 90.0000
loop_
_atom_site_label
_atom_site_type_symbol
_atom_site_fract_x
_atom_site_fract_y
_atom_site_fract_z
_atom_site_U_iso_or_equiv
_atom_site_adp_type
_atom_site_occupancy
C1     C     0.08744   0.16676   0.16717   0.00000  Uiso   1.00
C2     C     0.02132   0.20938   0.16685   0.00000  Uiso   1.00
C3     C     0.29054   0.16715   0.16565   0.00000  Uiso   1.00
C4     C     0.04279   0.16715   0.16768   0.00000  Uiso   1.00
C5     C     0.14257   0.02494   0.13319   0.00000  Uiso   1.00
C6     C     0.19041   0.30839   0.20047   0.00000  Uiso   1.00
C7     C     0.19076   0.02494   0.20014   0.00000  Uiso   1.00
C8     C     0.14292   0.30839   0.13286   0.00000  Uiso   1.00
C9     C     0.07507   0.04566   0.09557   0.00000  Uiso   1.00
C10    C     0.20296   0.28479   0.28579   0.00000  Uiso   1.00
C11    C     0.25826   0.04566   0.23776   0.00000  Uiso   1.00
C12    C     0.24589   0.16676   0.16616   0.00000  Uiso   1.00
C13    C     0.13037   0.28479   0.04755   0.00000  Uiso   1.00
C14    C     0.16661   0.16665   0.07362   0.00000  Uiso   1.00
C15    C     0.16672   0.16665   0.25972   0.00000  Uiso   1.00
C16    C     0.16666   0.16657   0.02186   0.00000  Uiso   1.00
C17    C     0.16667   0.16657   0.31147   0.00000  Uiso   1.00
C18    C     0.02122   0.12520   0.16824   0.00000  Uiso   1.00
C19    C     0.31202   0.20938   0.16648   0.00000  Uiso   1.00
C20    C     0.31211   0.12520   0.16509   0.00000  Uiso   1.00
Cu21   Cu    0.16667   0.21355   0.16667   0.00000  Uiso   1.00
Cu22   Cu    0.16667   0.11978   0.16667   0.00000  Uiso   1.00
H23    H     0.03700   0.09233   0.17095   0.00000  Uiso   1.00
H24    H     0.21635   0.31524   0.30527   0.00000  Uiso   1.00
H25    H     0.21451   0.25332   0.30528   0.00000  Uiso   1.00
H26    H     0.16891   0.28577   0.28763   0.00000  Uiso   1.00
H27    H     0.20088   0.05198   0.27041   0.00000  Uiso   1.00
H28    H     0.26886   0.02384   0.26930   0.00000  Uiso   1.00
H29    H     0.27212   0.08052   0.24318   0.00000  Uiso   1.00
H30    H     0.26925   0.03015   0.20324   0.00000  Uiso   1.00
H31    H     0.08683   0.28579   0.10252   0.00000  Uiso   1.00
H32    H     0.11699   0.31525   0.02807   0.00000  Uiso   1.00
H33    H     0.11883   0.25332   0.02805   0.00000  Uiso   1.00
H34    H     0.29601   0.24234   0.16659   0.00000  Uiso   1.00
H35    H     0.16443   0.28577   0.04571   0.00000  Uiso   1.00
H36    H     0.29633   0.09233   0.16238   0.00000  Uiso   1.00
H37    H     0.03733   0.24234   0.16675   0.00000  Uiso   1.00
H38    H     0.13245   0.05198   0.06292   0.00000  Uiso   1.00
H39    H     0.06448   0.02384   0.06403   0.00000  Uiso   1.00
H40    H     0.06121   0.08051   0.09015   0.00000  Uiso   1.00
H41    H     0.06408   0.03014   0.13009   0.00000  Uiso   1.00
H42    H     0.24651   0.28579   0.23081   0.00000  Uiso   1.00
N43    N     0.16667   0.28402   0.16667   0.00000  Uiso   1.00
N44    N     0.16667   0.04931   0.16667   0.00000  Uiso   1.00
N45    N     0.11941   0.05011   0.09681   0.00000  Uiso   1.00
N46    N     0.21529   0.28318   0.23520   0.00000  Uiso   1.00
N47    N     0.21392   0.05011   0.23653   0.00000  Uiso   1.00
N48    N     0.11805   0.28318   0.09813   0.00000  Uiso   1.00
O49    O     0.10655   0.20625   0.16666   0.00000  Uiso   1.00
O50    O     0.22679   0.12709   0.16667   0.00000  Uiso   1.00
O51    O     0.22679   0.20625   0.16667   0.00000  Uiso   1.00
O52    O     0.10655   0.12709   0.16666   0.00000  Uiso   1.00
O53    O     0.16667   0.20625   0.09613   0.00000  Uiso   1.00
O54    O     0.16667   0.12708   0.23720   0.00000  Uiso   1.00
O55    O     0.16667   0.20625   0.23720   0.00000  Uiso   1.00
O56    O     0.16667   0.12708   0.09613   0.00000  Uiso   1.00
C57    C     0.42078   0.16676   0.16717   0.00000  Uiso   1.00
C58    C     0.35465   0.20938   0.16685   0.00000  Uiso   1.00
C59    C     0.62387   0.16715   0.16565   0.00000  Uiso   1.00
C60    C     0.37612   0.16715   0.16768   0.00000  Uiso   1.00
C61    C     0.47591   0.02494   0.13319   0.00000  Uiso   1.00
C62    C     0.52375   0.30839   0.20047   0.00000  Uiso   1.00
C63    C     0.52409   0.02494   0.20014   0.00000  Uiso   1.00
C64    C     0.47625   0.30839   0.13286   0.00000  Uiso   1.00
C65    C     0.40841   0.04566   0.09557   0.00000  Uiso   1.00
C66    C     0.53630   0.28479   0.28579   0.00000  Uiso   1.00
C67    C     0.59159   0.04566   0.23776   0.00000  Uiso   1.00
C68    C     0.57922   0.16676   0.16616   0.00000  Uiso   1.00
C69    C     0.46371   0.28479   0.04755   0.00000  Uiso   1.00
C70    C     0.49994   0.16665   0.07362   0.00000  Uiso   1.00
C71    C     0.50006   0.16665   0.25972   0.00000  Uiso   1.00
C72    C     0.49999   0.16657   0.02186   0.00000  Uiso   1.00
C73    C     0.50001   0.16657   0.31147   0.00000  Uiso   1.00
C74    C     0.35455   0.12520   0.16824   0.00000  Uiso   1.00
C75    C     0.64535   0.20938   0.16648   0.00000  Uiso   1.00
C76    C     0.64545   0.12520   0.16509   0.00000  Uiso   1.00
Cu77   Cu    0.50000   0.21355   0.16667   0.00000  Uiso   1.00
Cu78   Cu    0.50000   0.11978   0.16667   0.00000  Uiso   1.00
H79    H     0.37033   0.09233   0.17095   0.00000  Uiso   1.00
H80    H     0.54969   0.31524   0.30527   0.00000  Uiso   1.00
H81    H     0.54784   0.25332   0.30528   0.00000  Uiso   1.00
H82    H     0.50224   0.28577   0.28763   0.00000  Uiso   1.00
H83    H     0.53422   0.05198   0.27041   0.00000  Uiso   1.00
H84    H     0.60219   0.02384   0.26930   0.00000  Uiso   1.00
H85    H     0.60546   0.08052   0.24318   0.00000  Uiso   1.00
H86    H     0.60259   0.03015   0.20324   0.00000  Uiso   1.00
H87    H     0.42016   0.28579   0.10252   0.00000  Uiso   1.00
H88    H     0.45032   0.31525   0.02807   0.00000  Uiso   1.00
H89    H     0.45216   0.25332   0.02805   0.00000  Uiso   1.00
H90    H     0.62934   0.24234   0.16659   0.00000  Uiso   1.00
H91    H     0.49776   0.28577   0.04571   0.00000  Uiso   1.00
H92    H     0.62967   0.09233   0.16238   0.00000  Uiso   1.00
H93    H     0.37066   0.24234   0.16675   0.00000  Uiso   1.00
H94    H     0.46579   0.05198   0.06292   0.00000  Uiso   1.00
H95    H     0.39781   0.02384   0.06403   0.00000  Uiso   1.00
H96    H     0.39454   0.08051   0.09015   0.00000  Uiso   1.00
H97    H     0.39741   0.03014   0.13009   0.00000  Uiso   1.00
H98    H     0.57984   0.28579   0.23081   0.00000  Uiso   1.00
N99    N     0.50000   0.28402   0.16667   0.00000  Uiso   1.00
N100   N     0.50000   0.04931   0.16667   0.00000  Uiso   1.00
N101   N     0.45274   0.05011   0.09681   0.00000  Uiso   1.00
N102   N     0.54862   0.28318   0.23520   0.00000  Uiso   1.00
N103   N     0.54726   0.05011   0.23653   0.00000  Uiso   1.00
N104   N     0.45138   0.28318   0.09813   0.00000  Uiso   1.00
O105   O     0.43988   0.20625   0.16666   0.00000  Uiso   1.00
O106   O     0.56012   0.12709   0.16667   0.00000  Uiso   1.00
O107   O     0.56012   0.20625   0.16667   0.00000  Uiso   1.00
O108   O     0.43988   0.12709   0.16666   0.00000  Uiso   1.00
O109   O     0.50000   0.20625   0.09613   0.00000  Uiso   1.00
O110   O     0.50000   0.12708   0.23720   0.00000  Uiso   1.00
O111   O     0.50000   0.20625   0.23720   0.00000  Uiso   1.00
O112   O     0.50000   0.12708   0.09613   0.00000  Uiso   1.00
C113   C     0.75411   0.16676   0.16717   0.00000  Uiso   1.00
C114   C     0.68798   0.20938   0.16685   0.00000  Uiso   1.00
C115   C     0.95721   0.16715   0.16565   0.00000  Uiso   1.00
C116   C     0.70946   0.16715   0.16768   0.00000  Uiso   1.00
C117   C     0.80924   0.02494   0.13319   0.00000  Uiso   1.00
C118   C     0.85708   0.30839   0.20047   0.00000  Uiso   1.00
C119   C     0.85742   0.02494   0.20014   0.00000  Uiso   1.00
C120   C     0.80959   0.30839   0.13286   0.00000  Uiso   1.00
C121   C     0.74174   0.04566   0.09557   0.00000  Uiso   1.00
C122   C     0.86963   0.28479   0.28579   0.00000  Uiso   1.00
C123   C     0.92492   0.04566   0.23776   0.00000  Uiso   1.00
C124   C     0.91256   0.16676   0.16616   0.00000  Uiso   1.00
C125   C     0.79704   0.28479   0.04755   0.00000  Uiso   1.00
C126   C     0.83328   0.16665   0.07362   0.00000  Uiso   1.00
C127   C     0.83339   0.16665   0.25972   0.00000  Uiso   1.00
C128   C     0.83333   0.16657   0.02186   0.00000  Uiso   1.00
C129   C     0.83334   0.16657   0.31147   0.00000  Uiso   1.00
C130   C     0.68789   0.12520   0.16824   0.00000  Uiso   1.00
C131   C     0.97868   0.20938   0.16648   0.00000  Uiso   1.00
C132   C     0.97878   0.12520   0.16509   0.00000  Uiso   1.00
Cu133  Cu    0.83333   0.21355   0.16667   0.00000  Uiso   1.00
Cu134  Cu    0.83333   0.11978   0.16667   0.00000  Uiso   1.00
H135   H     0.70367   0.09233   0.17095   0.00000  Uiso   1.00
H136   H     0.88302   0.31524   0.30527   0.00000  Uiso   1.00
H137   H     0.88117   0.25332   0.30528   0.00000  Uiso   1.00
H138   H     0.83558   0.28577   0.28763   0.00000  Uiso   1.00
H139   H     0.86755   0.05198   0.27041   0.00000  Uiso   1.00
H140   H     0.93552   0.02384   0.26930   0.00000  Uiso   1.00
H141   H     0.93879   0.08052   0.24318   0.00000  Uiso   1.00
H142   H     0.93592   0.03015   0.20324   0.00000  Uiso   1.00
H143   H     0.75349   0.28579   0.10252   0.00000  Uiso   1.00
H144   H     0.78365   0.31525   0.02807   0.00000  Uiso   1.00
H145   H     0.78550   0.25332   0.02805   0.00000  Uiso   1.00
H146   H     0.96267   0.24234   0.16659   0.00000  Uiso   1.00
H147   H     0.83109   0.28577   0.04571   0.00000  Uiso   1.00
H148   H     0.96300   0.09233   0.16238   0.00000  Uiso   1.00
H149   H     0.70399   0.24234   0.16675   0.00000  Uiso   1.00
H150   H     0.79912   0.05198   0.06292   0.00000  Uiso   1.00
H151   H     0.73115   0.02384   0.06403   0.00000  Uiso   1.00
H152   H     0.72788   0.08051   0.09015   0.00000  Uiso   1.00
H153   H     0.73075   0.03014   0.13009   0.00000  Uiso   1.00
H154   H     0.91317   0.28579   0.23081   0.00000  Uiso   1.00
N155   N     0.83333   0.28402   0.16667   0.00000  Uiso   1.00
N156   N     0.83333   0.04931   0.16667   0.00000  Uiso   1.00
N157   N     0.78608   0.05011   0.09681   0.00000  Uiso   1.00
N158   N     0.88195   0.28318   0.23520   0.00000  Uiso   1.00
N159   N     0.88059   0.05011   0.23653   0.00000  Uiso   1.00
N160   N     0.78472   0.28318   0.09813   0.00000  Uiso   1.00
O161   O     0.77321   0.20625   0.16666   0.00000  Uiso   1.00
O162   O     0.89345   0.12709   0.16667   0.00000  Uiso   1.00
O163   O     0.89345   0.20625   0.16667   0.00000  Uiso   1.00
O164   O     0.77321   0.12709   0.16666   0.00000  Uiso   1.00
O165   O     0.83333   0.20625   0.09613   0.00000  Uiso   1.00
O166   O     0.83333   0.12708   0.23720   0.00000  Uiso   1.00
O167   O     0.83333   0.20625   0.23720   0.00000  Uiso   1.00
O168   O     0.83333   0.12708   0.09613   0.00000  Uiso   1.00
C169   C     0.08744   0.50009   0.16717   0.00000  Uiso   1.00
C170   C     0.02132   0.54271   0.16685   0.00000  Uiso   1.00
C171   C     0.29054   0.50048   0.16565   0.00000  Uiso   1.00
C172   C     0.04279   0.50048   0.16768   0.00000  Uiso   1.00
C173   C     0.14257   0.35828   0.13319   0.00000  Uiso   1.00
C174   C     0.19041   0.64172   0.20047   0.00000  Uiso   1.00
C175   C     0.19076   0.35828   0.20014   0.00000  Uiso   1.00
C176   C     0.14292   0.64172   0.13286   0.00000  Uiso   1.00
C177   C     0.07507   0.37900   0.09557   0.00000  Uiso   1.00
C178   C     0.20296   0.61813   0.28579   0.00000  Uiso   1.00
C179   C     0.25826   0.37900   0.23776   0.00000  Uiso   1.00
C180   C     0.24589   0.50009   0.16616   0.00000  Uiso   1.00
C181   C     0.13037   0.61813   0.04755   0.00000  Uiso   1.00
C182   C     0.16661   0.49998   0.07362   0.00000  Uiso   1.00
C183   C     0.16672   0.49998   0.25972   0.00000  Uiso   1.00
C184   C     0.16666   0.49990   0.02186   0.00000  Uiso   1.00
C185   C     0.16667   0.49990   0.31147   0.00000  Uiso   1.00
C186   C     0.02122   0.45853   0.16824   0.00000  Uiso   1.00
C187   C     0.31202   0.54271   0.16648   0.00000  Uiso   1.00
C188   C     0.31211   0.45854   0.16509   0.00000  Uiso   1.00
Cu189  Cu    0.16667   0.54689   0.16667   0.00000  Uiso   1.00
Cu190  Cu    0.16667   0.45311   0.16667   0.00000  Uiso   1.00
H191   H     0.03700   0.42566   0.17095   0.00000  Uiso   1.00
H192   H     0.21635   0.64858   0.30527   0.00000  Uiso   1.00
H193   H     0.21451   0.58665   0.30528   0.00000  Uiso   1.00
H194   H     0.16891   0.61911   0.28763   0.00000  Uiso   1.00
H195   H     0.20088   0.38531   0.27041   0.00000  Uiso   1.00
H196   H     0.26886   0.35717   0.26930   0.00000  Uiso   1.00
H197   H     0.27212   0.41385   0.24318   0.00000  Uiso   1.00
H198   H     0.26925   0.36348   0.20324   0.00000  Uiso   1.00
H199   H     0.08683   0.61912   0.10252   0.00000  Uiso   1.00
H200   H     0.11699   0.64858   0.02807   0.00000  Uiso   1.00
H201   H     0.11883   0.58665   0.02805   0.00000  Uiso   1.00
H202   H     0.29601   0.57568   0.16659   0.00000  Uiso   1.00
H203   H     0.16443   0.61911   0.04571   0.00000  Uiso   1.00
H204   H     0.29633   0.42566   0.16238   0.00000  Uiso   1.00
H205   H     0.03733   0.57568   0.16675   0.00000  Uiso   1.00
H206   H     0.13245   0.38532   0.06292   0.00000  Uiso   1.00
H207   H     0.06448   0.35717   0.06403   0.00000  Uiso   1.00
H208   H     0.06121   0.41385   0.09015   0.00000  Uiso   1.00
H209   H     0.06408   0.36348   0.13009   0.00000  Uiso   1.00
H210   H     0.24651   0.61913   0.23081   0.00000  Uiso   1.00
N211   N     0.16667   0.61736   0.16667   0.00000  Uiso   1.00
N212   N     0.16667   0.38264   0.16667   0.00000  Uiso   1.00
N213   N     0.11941   0.38344   0.09681   0.00000  Uiso   1.00
N214   N     0.21529   0.61651   0.23520   0.00000  Uiso   1.00
N215   N     0.21392   0.38344   0.23653   0.00000  Uiso   1.00
N216   N     0.11805   0.61651   0.09813   0.00000  Uiso   1.00
O217   O     0.10655   0.53958   0.16666   0.00000  Uiso   1.00
O218   O     0.22679   0.46042   0.16667   0.00000  Uiso   1.00
O219   O     0.22679   0.53958   0.16667   0.00000  Uiso   1.00
O220   O     0.10655   0.46042   0.16666   0.00000  Uiso   1.00
O221   O     0.16667   0.53959   0.09613   0.00000  Uiso   1.00
O222   O     0.16667   0.46041   0.23720   0.00000  Uiso   1.00
O223   O     0.16667   0.53959   0.23720   0.00000  Uiso   1.00
O224   O     0.16667   0.46041   0.09613   0.00000  Uiso   1.00
C225   C     0.42078   0.50009   0.16717   0.00000  Uiso   1.00
C226   C     0.35465   0.54271   0.16685   0.00000  Uiso   1.00
C227   C     0.62387   0.50048   0.16565   0.00000  Uiso   1.00
C228   C     0.37612   0.50048   0.16768   0.00000  Uiso   1.00
C229   C     0.47591   0.35828   0.13319   0.00000  Uiso   1.00
C230   C     0.52375   0.64172   0.20047   0.00000  Uiso   1.00
C231   C     0.52409   0.35828   0.20014   0.00000  Uiso   1.00
C232   C     0.47625   0.64172   0.13286   0.00000  Uiso   1.00
C233   C     0.40841   0.37900   0.09557   0.00000  Uiso   1.00
C234   C     0.53630   0.61813   0.28579   0.00000  Uiso   1.00
C235   C     0.59159   0.37900   0.23776   0.00000  Uiso   1.00
C236   C     0.57922   0.50009   0.16616   0.00000  Uiso   1.00
C237   C     0.46371   0.61813   0.04755   0.00000  Uiso   1.00
C238   C     0.49994   0.49998   0.07362   0.00000  Uiso   1.00
C239   C     0.50006   0.49998   0.25972   0.00000  Uiso   1.00
C240   C     0.49999   0.49990   0.02186   0.00000  Uiso   1.00
C241   C     0.50001   0.49990   0.31147   0.00000  Uiso   1.00
C242   C     0.35455   0.45853   0.16824   0.00000  Uiso   1.00
C243   C     0.64535   0.54271   0.16648   0.00000  Uiso   1.00
C244   C     0.64545   0.45854   0.16509   0.00000  Uiso   1.00
Cu245  Cu    0.50000   0.54689   0.16667   0.00000  Uiso   1.00
Cu246  Cu    0.50000   0.45311   0.16667   0.00000  Uiso   1.00
H247   H     0.37033   0.42566   0.17095   0.00000  Uiso   1.00
H248   H     0.54969   0.64858   0.30527   0.00000  Uiso   1.00
H249   H     0.54784   0.58665   0.30528   0.00000  Uiso   1.00
H250   H     0.50224   0.61911   0.28763   0.00000  Uiso   1.00
H251   H     0.53422   0.38531   0.27041   0.00000  Uiso   1.00
H252   H     0.60219   0.35717   0.26930   0.00000  Uiso   1.00
H253   H     0.60546   0.41385   0.24318   0.00000  Uiso   1.00
H254   H     0.60259   0.36348   0.20324   0.00000  Uiso   1.00
H255   H     0.42016   0.61912   0.10252   0.00000  Uiso   1.00
H256   H     0.45032   0.64858   0.02807   0.00000  Uiso   1.00
H257   H     0.45216   0.58665   0.02805   0.00000  Uiso   1.00
H258   H     0.62934   0.57568   0.16659   0.00000  Uiso   1.00
H259   H     0.49776   0.61911   0.04571   0.00000  Uiso   1.00
H260   H     0.62967   0.42566   0.16238   0.00000  Uiso   1.00
H261   H     0.37066   0.57568   0.16675   0.00000  Uiso   1.00
H262   H     0.46579   0.38532   0.06292   0.00000  Uiso   1.00
H263   H     0.39781   0.35717   0.06403   0.00000  Uiso   1.00
H264   H     0.39454   0.41385   0.09015   0.00000  Uiso   1.00
H265   H     0.39741   0.36348   0.13009   0.00000  Uiso   1.00
H266   H     0.57984   0.61913   0.23081   0.00000  Uiso   1.00
N267   N     0.50000   0.61736   0.16667   0.00000  Uiso   1.00
N268   N     0.50000   0.38264   0.16667   0.00000  Uiso   1.00
N269   N     0.45274   0.38344   0.09681   0.00000  Uiso   1.00
N270   N     0.54862   0.61651   0.23520   0.00000  Uiso   1.00
N271   N     0.54726   0.38344   0.23653   0.00000  Uiso   1.00
N272   N     0.45138   0.61651   0.09813   0.00000  Uiso   1.00
O273   O     0.43988   0.53958   0.16666   0.00000  Uiso   1.00
O274   O     0.56012   0.46042   0.16667   0.00000  Uiso   1.00
O275   O     0.56012   0.53958   0.16667   0.00000  Uiso   1.00
O276   O     0.43988   0.46042   0.16666   0.00000  Uiso   1.00
O277   O     0.50000   0.53959   0.09613   0.00000  Uiso   1.00
O278   O     0.50000   0.46041   0.23720   0.00000  Uiso   1.00
O279   O     0.50000   0.53959   0.23720   0.00000  Uiso   1.00
O280   O     0.50000   0.46041   0.09613   0.00000  Uiso   1.00
C281   C     0.75411   0.50009   0.16717   0.00000  Uiso   1.00
C282   C     0.68798   0.54271   0.16685   0.00000  Uiso   1.00
C283   C     0.95721   0.50048   0.16565   0.00000  Uiso   1.00
C284   C     0.70946   0.50048   0.16768   0.00000  Uiso   1.00
C285   C     0.80924   0.35828   0.13319   0.00000  Uiso   1.00
C286   C     0.85708   0.64172   0.20047   0.00000  Uiso   1.00
C287   C     0.85742   0.35828   0.20014   0.00000  Uiso   1.00
C288   C     0.80959   0.64172   0.13286   0.00000  Uiso   1.00
C289   C     0.74174   0.37900   0.09557   0.00000  Uiso   1.00
C290   C     0.86963   0.61813   0.28579   0.00000  Uiso   1.00
C291   C     0.92492   0.37900   0.23776   0.00000  Uiso   1.00
C292   C     0.91256   0.50009   0.16616   0.00000  Uiso   1.00
C293   C     0.79704   0.61813   0.04755   0.00000  Uiso   1.00
C294   C     0.83328   0.49998   0.07362   0.00000  Uiso   1.00
C295   C     0.83339   0.49998   0.25972   0.00000  Uiso   1.00
C296   C     0.83333   0.49990   0.02186   0.00000  Uiso   1.00
C297   C     0.83334   0.49990   0.31147   0.00000  Uiso   1.00
C298   C     0.68789   0.45853   0.16824   0.00000  Uiso   1.00
C299   C     0.97868   0.54271   0.16648   0.00000  Uiso   1.00
C300   C     0.97878   0.45854   0.16509   0.00000  Uiso   1.00
Cu301  Cu    0.83333   0.54689   0.16667   0.00000  Uiso   1.00
Cu302  Cu    0.83333   0.45311   0.16667   0.00000  Uiso   1.00
H303   H     0.70367   0.42566   0.17095   0.00000  Uiso   1.00
H304   H     0.88302   0.64858   0.30527   0.00000  Uiso   1.00
H305   H     0.88117   0.58665   0.30528   0.00000  Uiso   1.00
H306   H     0.83558   0.61911   0.28763   0.00000  Uiso   1.00
H307   H     0.86755   0.38531   0.27041   0.00000  Uiso   1.00
H308   H     0.93552   0.35717   0.26930   0.00000  Uiso   1.00
H309   H     0.93879   0.41385   0.24318   0.00000  Uiso   1.00
H310   H     0.93592   0.36348   0.20324   0.00000  Uiso   1.00
H311   H     0.75349   0.61912   0.10252   0.00000  Uiso   1.00
H312   H     0.78365   0.64858   0.02807   0.00000  Uiso   1.00
H313   H     0.78550   0.58665   0.02805   0.00000  Uiso   1.00
H314   H     0.96267   0.57568   0.16659   0.00000  Uiso   1.00
H315   H     0.83109   0.61911   0.04571   0.00000  Uiso   1.00
H316   H     0.96300   0.42566   0.16238   0.00000  Uiso   1.00
H317   H     0.70399   0.57568   0.16675   0.00000  Uiso   1.00
H318   H     0.79912   0.38532   0.06292   0.00000  Uiso   1.00
H319   H     0.73115   0.35717   0.06403   0.00000  Uiso   1.00
H320   H     0.72788   0.41385   0.09015   0.00000  Uiso   1.00
H321   H     0.73075   0.36348   0.13009   0.00000  Uiso   1.00
H322   H     0.91317   0.61913   0.23081   0.00000  Uiso   1.00
N323   N     0.83333   0.61736   0.16667   0.00000  Uiso   1.00
N324   N     0.83333   0.38264   0.16667   0.00000  Uiso   1.00
N325   N     0.78608   0.38344   0.09681   0.00000  Uiso   1.00
N326   N     0.88195   0.61651   0.23520   0.00000  Uiso   1.00
N327   N     0.88059   0.38344   0.23653   0.00000  Uiso   1.00
N328   N     0.78472   0.61651   0.09813   0.00000  Uiso   1.00
O329   O     0.77321   0.53958   0.16666   0.00000  Uiso   1.00
O330   O     0.89345   0.46042   0.16667   0.00000  Uiso   1.00
O331   O     0.89345   0.53958   0.16667   0.00000  Uiso   1.00
O332   O     0.77321   0.46042   0.16666   0.00000  Uiso   1.00
O333   O     0.83333   0.53959   0.09613   0.00000  Uiso   1.00
O334   O     0.83333   0.46041   0.23720   0.00000  Uiso   1.00
O335   O     0.83333   0.53959   0.23720   0.00000  Uiso   1.00
O336   O     0.83333   0.46041   0.09613   0.00000  Uiso   1.00
C337   C     0.08744   0.83342   0.16717   0.00000  Uiso   1.00
C338   C     0.02132   0.87605   0.16685   0.00000  Uiso   1.00
C339   C     0.29054   0.83381   0.16565   0.00000  Uiso   1.00
C340   C     0.04279   0.83381   0.16768   0.00000  Uiso   1.00
C341   C     0.14257   0.69161   0.13319   0.00000  Uiso   1.00
C342   C     0.19041   0.97505   0.20047   0.00000  Uiso   1.00
C343   C     0.19076   0.69161   0.20014   0.00000  Uiso   1.00
C344   C     0.14292   0.97505   0.13286   0.00000  Uiso   1.00
C345   C     0.07507   0.71233   0.09557   0.00000  Uiso   1.00
C346   C     0.20296   0.95146   0.28579   0.00000  Uiso   1.00
C347   C     0.25826   0.71233   0.23776   0.00000  Uiso   1.00
C348   C     0.24589   0.83342   0.16616   0.00000  Uiso   1.00
C349   C     0.13037   0.95146   0.04755   0.00000  Uiso   1.00
C350   C     0.16661   0.83331   0.07362   0.00000  Uiso   1.00
C351   C     0.16672   0.83331   0.25972   0.00000  Uiso   1.00
C352   C     0.16666   0.83323   0.02186   0.00000  Uiso   1.00
C353   C     0.16667   0.83323   0.31147   0.00000  Uiso   1.00
C354   C     0.02122   0.79187   0.16824   0.00000  Uiso   1.00
C355   C     0.31202   0.87605   0.16648   0.00000  Uiso   1.00
C356   C     0.31211   0.79187   0.16509   0.00000  Uiso   1.00
Cu357  Cu    0.16667   0.88022   0.16667   0.00000  Uiso   1.00
Cu358  Cu    0.16667   0.78645   0.16667   0.00000  Uiso   1.00
H359   H     0.03700   0.75900   0.17095   0.00000  Uiso   1.00
H360   H     0.21635   0.98191   0.30527   0.00000  Uiso   1.00
H361   H     0.21451   0.91998   0.30528   0.00000  Uiso   1.00
H362   H     0.16891   0.95244   0.28763   0.00000  Uiso   1.00
H363   H     0.20088   0.71864   0.27041   0.00000  Uiso   1.00
H364   H     0.26886   0.69051   0.26930   0.00000  Uiso   1.00
H365   H     0.27212   0.74718   0.24318   0.00000  Uiso   1.00
H366   H     0.26925   0.69681   0.20324   0.00000  Uiso   1.00
H367   H     0.08683   0.95246   0.10252   0.00000  Uiso   1.00
H368   H     0.11699   0.98191   0.02807   0.00000  Uiso   1.00
H369   H     0.11883   0.91999   0.02805   0.00000  Uiso   1.00
H370   H     0.29601   0.90901   0.16659   0.00000  Uiso   1.00
H371   H     0.16443   0.95244   0.04571   0.00000  Uiso   1.00
H372   H     0.29633   0.75900   0.16238   0.00000  Uiso   1.00
H373   H     0.03733   0.90901   0.16675   0.00000  Uiso   1.00
H374   H     0.13245   0.71865   0.06292   0.00000  Uiso   1.00
H375   H     0.06448   0.69050   0.06403   0.00000  Uiso   1.00
H376   H     0.06121   0.74718   0.09015   0.00000  Uiso   1.00
H377   H     0.06408   0.69681   0.13009   0.00000  Uiso   1.00
H378   H     0.24651   0.95246   0.23081   0.00000  Uiso   1.00
N379   N     0.16667   0.95069   0.16667   0.00000  Uiso   1.00
N380   N     0.16667   0.71598   0.16667   0.00000  Uiso   1.00
N381   N     0.11941   0.71677   0.09681   0.00000  Uiso   1.00
N382   N     0.21529   0.94984   0.23520   0.00000  Uiso   1.00
N383   N     0.21392   0.71677   0.23653   0.00000  Uiso   1.00
N384   N     0.11805   0.94984   0.09813   0.00000  Uiso   1.00
O385   O     0.10655   0.87291   0.16666   0.00000  Uiso   1.00
O386   O     0.22679   0.79375   0.16667   0.00000  Uiso   1.00
O387   O     0.22679   0.87291   0.16667   0.00000  Uiso   1.00
O388   O     0.10655   0.79375   0.16666   0.00000  Uiso   1.00
O389   O     0.16667   0.87292   0.09613   0.00000  Uiso   1.00
O390   O     0.16667   0.79375   0.23720   0.00000  Uiso   1.00
O391   O     0.16667   0.87292   0.23720   0.00000  Uiso   1.00
O392   O     0.16667   0.79375   0.09613   0.00000  Uiso   1.00
C393   C     0.42078   0.83342   0.16717   0.00000  Uiso   1.00
C394   C     0.35465   0.87605   0.16685   0.00000  Uiso   1.00
C395   C     0.62387   0.83381   0.16565   0.00000  Uiso   1.00
C396   C     0.37612   0.83381   0.16768   0.00000  Uiso   1.00
C397   C     0.47591   0.69161   0.13319   0.00000  Uiso   1.00
C398   C     0.52375   0.97505   0.20047   0.00000  Uiso   1.00
C399   C     0.52409   0.69161   0.20014   0.00000  Uiso   1.00
C400   C     0.47625   0.97505   0.13286   0.00000  Uiso   1.00
C401   C     0.40841   0.71233   0.09557   0.00000  Uiso   1.00
C402   C     0.53630   0.95146   0.28579   0.00000  Uiso   1.00
C403   C     0.59159   0.71233   0.23776   0.00000  Uiso   1.00
C404   C     0.57922   0.83342   0.16616   0.00000  Uiso   1.00
C405   C     0.46371   0.95146   0.04755   0.00000  Uiso   1.00
C406   C     0.49994   0.83331   0.07362   0.00000  Uiso   1.00
C407   C     0.50006   0.83331   0.25972   0.00000  Uiso   1.00
C408   C     0.49999   0.83323   0.02186   0.00000  Uiso   1.00
C409   C     0.50001   0.83323   0.31147   0.00000  Uiso   1.00
C410   C     0.35455   0.79187   0.16824   0.00000  Uiso   1.00
C411   C     0.64535   0.87605   0.16648   0.00000  Uiso   1.00
C412   C     0.64545   0.79187   0.16509   0.00000  Uiso   1.00
Cu413  Cu    0.50000   0.88022   0.16667   0.00000  Uiso   1.00
Cu414  Cu    0.50000   0.78645   0.16667   0.00000  Uiso   1.00
H415   H     0.37033   0.75900   0.17095   0.00000  Uiso   1.00
H416   H     0.54969   0.98191   0.30527   0.00000  Uiso   1.00
H417   H     0.54784   0.91998   0.30528   0.00000  Uiso   1.00
H418   H     0.50224   0.95244   0.28763   0.00000  Uiso   1.00
H419   H     0.53422   0.71864   0.27041   0.00000  Uiso   1.00
H420   H     0.60219   0.69051   0.26930   0.00000  Uiso   1.00
H421   H     0.60546   0.74718   0.24318   0.00000  Uiso   1.00
H422   H     0.60259   0.69681   0.20324   0.00000  Uiso   1.00
H423   H     0.42016   0.95246   0.10252   0.00000  Uiso   1.00
H424   H     0.45032   0.98191   0.02807   0.00000  Uiso   1.00
H425   H     0.45216   0.91999   0.02805   0.00000  Uiso   1.00
H426   H     0.62934   0.90901   0.16659   0.00000  Uiso   1.00
H427   H     0.49776   0.95244   0.04571   0.00000  Uiso   1.00
H428   H     0.62967   0.75900   0.16238   0.00000  Uiso   1.00
H429   H     0.37066   0.90901   0.16675   0.00000  Uiso   1.00
H430   H     0.46579   0.71865   0.06292   0.00000  Uiso   1.00
H431   H     0.39781   0.69050   0.06403   0.00000  Uiso   1.00
H432   H     0.39454   0.74718   0.09015   0.00000  Uiso   1.00
H433   H     0.39741   0.69681   0.13009   0.00000  Uiso   1.00
H434   H     0.57984   0.95246   0.23081   0.00000  Uiso   1.00
N435   N     0.50000   0.95069   0.16667   0.00000  Uiso   1.00
N436   N     0.50000   0.71598   0.16667   0.00000  Uiso   1.00
N437   N     0.45274   0.71677   0.09681   0.00000  Uiso   1.00
N438   N     0.54862   0.94984   0.23520   0.00000  Uiso   1.00
N439   N     0.54726   0.71677   0.23653   0.00000  Uiso   1.00
N440   N     0.45138   0.94984   0.09813   0.00000  Uiso   1.00
O441   O     0.43988   0.87291   0.16666   0.00000  Uiso   1.00
O442   O     0.56012   0.79375   0.16667   0.00000  Uiso   1.00
O443   O     0.56012   0.87291   0.16667   0.00000  Uiso   1.00
O444   O     0.43988   0.79375   0.16666   0.00000  Uiso   1.00
O445   O     0.50000   0.87292   0.09613   0.00000  Uiso   1.00
O446   O     0.50000   0.79375   0.23720   0.00000  Uiso   1.00
O447   O     0.50000   0.87292   0.23720   0.00000  Uiso   1.00
O448   O     0.50000   0.79375   0.09613   0.00000  Uiso   1.00
C449   C     0.75411   0.83342   0.16717   0.00000  Uiso   1.00
C450   C     0.68798   0.87605   0.16685   0.00000  Uiso   1.00
C451   C     0.95721   0.83381   0.16565   0.00000  Uiso   1.00
C452   C     0.70946   0.83381   0.16768   0.00000  Uiso   1.00
C453   C     0.80924   0.69161   0.13319   0.00000  Uiso   1.00
C454   C     0.85708   0.97505   0.20047   0.00000  Uiso   1.00
C455   C     0.85742   0.69161   0.20014   0.00000  Uiso   1.00
C456   C     0.80959   0.97505   0.13286   0.00000  Uiso   1.00
C457   C     0.74174   0.71233   0.09557   0.00000  Uiso   1.00
C458   C     0.86963   0.95146   0.28579   0.00000  Uiso   1.00
C459   C     0.92492   0.71233   0.23776   0.00000  Uiso   1.00
C460   C     0.91256   0.83342   0.16616   0.00000  Uiso   1.00
C461   C     0.79704   0.95146   0.04755   0.00000  Uiso   1.00
C462   C     0.83328   0.83331   0.07362   0.00000  Uiso   1.00
C463   C     0.83339   0.83331   0.25972   0.00000  Uiso   1.00
C464   C     0.83333   0.83323   0.02186   0.00000  Uiso   1.00
C465   C     0.83334   0.83323   0.31147   0.00000  Uiso   1.00
C466   C     0.68789   0.79187   0.16824   0.00000  Uiso   1.00
C467   C     0.97868   0.87605   0.16648   0.00000  Uiso   1.00
C468   C     0.97878   0.79187   0.16509   0.00000  Uiso   1.00
Cu469  Cu    0.83333   0.88022   0.16667   0.00000  Uiso   1.00
Cu470  Cu    0.83333   0.78645   0.16667   0.00000  Uiso   1.00
H471   H     0.70367   0.75900   0.17095   0.00000  Uiso   1.00
H472   H     0.88302   0.98191   0.30527   0.00000  Uiso   1.00
H473   H     0.88117   0.91998   0.30528   0.00000  Uiso   1.00
H474   H     0.83558   0.95244   0.28763   0.00000  Uiso   1.00
H475   H     0.86755   0.71864   0.27041   0.00000  Uiso   1.00
H476   H     0.93552   0.69051   0.26930   0.00000  Uiso   1.00
H477   H     0.93879   0.74718   0.24318   0.00000  Uiso   1.00
H478   H     0.93592   0.69681   0.20324   0.00000  Uiso   1.00
H479   H     0.75349   0.95246   0.10252   0.00000  Uiso   1.00
H480   H     0.78365   0.98191   0.02807   0.00000  Uiso   1.00
H481   H     0.78550   0.91999   0.02805   0.00000  Uiso   1.00
H482   H     0.96267   0.90901   0.16659   0.00000  Uiso   1.00
H483   H     0.83109   0.95244   0.04571   0.00000  Uiso   1.00
H484   H     0.96300   0.75900   0.16238   0.00000  Uiso   1.00
H485   H     0.70399   0.90901   0.16675   0.00000  Uiso   1.00
H486   H     0.79912   0.71865   0.06292   0.00000  Uiso   1.00
H487   H     0.73115   0.69050   0.06403   0.00000  Uiso   1.00
H488   H     0.72788   0.74718   0.09015   0.00000  Uiso   1.00
H489   H     0.73075   0.69681   0.13009   0.00000  Uiso   1.00
H490   H     0.91317   0.95246   0.23081   0.00000  Uiso   1.00
N491   N     0.83333   0.95069   0.16667   0.00000  Uiso   1.00
N492   N     0.83333   0.71598   0.16667   0.00000  Uiso   1.00
N493   N     0.78608   0.71677   0.09681   0.00000  Uiso   1.00
N494   N     0.88195   0.94984   0.23520   0.00000  Uiso   1.00
N495   N     0.88059   0.71677   0.23653   0.00000  Uiso   1.00
N496   N     0.78472   0.94984   0.09813   0.00000  Uiso   1.00
O497   O     0.77321   0.87291   0.16666   0.00000  Uiso   1.00
O498   O     0.89345   0.79375   0.16667   0.00000  Uiso   1.00
O499   O     0.89345   0.87291   0.16667   0.00000  Uiso   1.00
O500   O     0.77321   0.79375   0.16666   0.00000  Uiso   1.00
O501   O     0.83333   0.87292   0.09613   0.00000  Uiso   1.00
O502   O     0.83333   0.79375   0.23720   0.00000  Uiso   1.00
O503   O     0.83333   0.87292   0.23720   0.00000  Uiso   1.00
O504   O     0.83333   0.79375   0.09613   0.00000  Uiso   1.00
C505   C     0.08744   0.16676   0.50051   0.00000  Uiso   1.00
C506   C     0.02132   0.20938   0.50018   0.00000  Uiso   1.00
C507   C     0.29054   0.16715   0.49899   0.00000  Uiso   1.00
C508   C     0.04279   0.16715   0.50101   0.00000  Uiso   1.00
C509   C     0.14257   0.02494   0.46652   0.00000  Uiso   1.00
C510   C     0.19041   0.30839   0.53380   0.00000  Uiso   1.00
C511   C     0.19076   0.02494   0.53348   0.00000  Uiso   1.00
C512   C     0.14292   0.30839   0.46619   0.00000  Uiso   1.00
C513   C     0.07507   0.04566   0.42890   0.00000  Uiso   1.00
C514   C     0.20296   0.28479   0.61912   0.00000  Uiso   1.00
C515   C     0.25826   0.04566   0.57110   0.00000  Uiso   1.00
C516   C     0.24589   0.16676   0.49949   0.00000  Uiso   1.00
C517   C     0.13037   0.28479   0.38088   0.00000  Uiso   1.00
C518   C     0.16661   0.16665   0.40695   0.00000  Uiso   1.00
C519   C     0.16672   0.16665   0.59305   0.00000  Uiso   1.00
C520   C     0.16666   0.16657   0.35520   0.00000  Uiso   1.00
C521   C     0.16667   0.16657   0.64480   0.00000  Uiso   1.00
C522   C     0.02122   0.12520   0.50158   0.00000  Uiso   1.00
C523   C     0.31202   0.20938   0.49982   0.00000  Uiso   1.00
C524   C     0.31211   0.12520   0.49842   0.00000  Uiso   1.00
Cu525  Cu    0.16667   0.21355   0.50000   0.00000  Uiso   1.00
Cu526  Cu    0.16667   0.11978   0.50000   0.00000  Uiso   1.00
H527   H     0.03700   0.09233   0.50428   0.00000  Uiso   1.00
H528   H     0.21635   0.31524   0.63860   0.00000  Uiso   1.00
H529   H     0.21451   0.25332   0.63862   0.00000  Uiso   1.00
H530   H     0.16891   0.28577   0.62096   0.00000  Uiso   1.00
H531   H     0.20088   0.05198   0.60375   0.00000  Uiso   1.00
H532   H     0.26886   0.02384   0.60263   0.00000  Uiso   1.00
H533   H     0.27212   0.08052   0.57651   0.00000  Uiso   1.00
H534   H     0.26925   0.03015   0.53657   0.00000  Uiso   1.00
H535   H     0.08683   0.28579   0.43585   0.00000  Uiso   1.00
H536   H     0.11699   0.31525   0.36140   0.00000  Uiso   1.00
H537   H     0.11883   0.25332   0.36138   0.00000  Uiso   1.00
H538   H     0.29601   0.24234   0.49992   0.00000  Uiso   1.00
H539   H     0.16443   0.28577   0.37904   0.00000  Uiso   1.00
H540   H     0.29633   0.09233   0.49571   0.00000  Uiso   1.00
H541   H     0.03733   0.24234   0.50008   0.00000  Uiso   1.00
H542   H     0.13245   0.05198   0.39625   0.00000  Uiso   1.00
H543   H     0.06448   0.02384   0.39736   0.00000  Uiso   1.00
H544   H     0.06121   0.08051   0.42349   0.00000  Uiso   1.00
H545   H     0.06408   0.03014   0.46342   0.00000  Uiso   1.00
H546   H     0.24651   0.28579   0.56414   0.00000  Uiso   1.00
N547   N     0.16667   0.28402   0.50000   0.00000  Uiso   1.00
N548   N     0.16667   0.04931   0.50000   0.00000  Uiso   1.00
N549   N     0.11941   0.05011   0.43014   0.00000  Uiso   1.00
N550   N     0.21529   0.28318   0.56854   0.00000  Uiso   1.00
N551   N     0.21392   0.05011   0.56986   0.00000  Uiso   1.00
N552   N     0.11805   0.28318   0.43146   0.00000  Uiso   1.00
O553   O     0.10655   0.20625   0.50000   0.00000  Uiso   1.00
O554   O     0.22679   0.12709   0.50000   0.00000  Uiso   1.00
O555   O     0.22679   0.20625   0.50000   0.00000  Uiso   1.00
O556   O     0.10655   0.12709   0.50000   0.00000  Uiso   1.00
O557   O     0.16667   0.20625   0.42946   0.00000  Uiso   1.00
O558   O     0.16667   0.12708   0.57054   0.00000  Uiso   1.00
O559   O     0.16667   0.20625   0.57054   0.00000  Uiso   1.00
O560   O     0.16667   0.12708   0.42946   0.00000  Uiso   1.00
C561   C     0.42078   0.16676   0.50051   0.00000  Uiso   1.00
C562   C     0.35465   0.20938   0.50018   0.00000  Uiso   1.00
C563   C     0.62387   0.16715   0.49899   0.00000  Uiso   1.00
C564   C     0.37612   0.16715   0.50101   0.00000  Uiso   1.00
C565   C     0.47591   0.02494   0.46652   0.00000  Uiso   1.00
C566   C     0.52375   0.30839   0.53380   0.00000  Uiso   1.00
C567   C     0.52409   0.02494   0.53348   0.00000  Uiso   1.00
C568   C     0.47625   0.30839   0.46619   0.00000  Uiso   1.00
C569   C     0.40841   0.04566   0.42890   0.00000  Uiso   1.00
C570   C     0.53630   0.28479   0.61912   0.00000  Uiso   1.00
C571   C     0.59159   0.04566   0.57110   0.00000  Uiso   1.00
C572   C     0.57922   0.16676   0.49949   0.00000  Uiso   1.00
C573   C     0.46371   0.28479   0.38088   0.00000  Uiso   1.00
C574   C     0.49994   0.16665   0.40695   0.00000  Uiso   1.00
C575   C     0.50006   0.16665   0.59305   0.00000  Uiso   1.00
C576   C     0.49999   0.16657   0.35520   0.00000  Uiso   1.00
C577   C     0.50001   0.16657   0.64480   0.00000  Uiso   1.00
C578   C     0.35455   0.12520   0.50158   0.00000  Uiso   1.00
C579   C     0.64535   0.20938   0.49982   0.00000  Uiso   1.00
C580   C     0.64545   0.12520   0.49842   0.00000  Uiso   1.00
Cu581  Cu    0.50000   0.21355   0.50000   0.00000  Uiso   1.00
Cu582  Cu    0.50000   0.11978   0.50000   0.00000  Uiso   1.00
H583   H     0.37033   0.09233   0.50428   0.00000  Uiso   1.00
H584   H     0.54969   0.31524   0.63860   0.00000  Uiso   1.00
H585   H     0.54784   0.25332   0.63862   0.00000  Uiso   1.00
H586   H     0.50224   0.28577   0.62096   0.00000  Uiso   1.00
H587   H     0.53422   0.05198   0.60375   0.00000  Uiso   1.00
H588   H     0.60219   0.02384   0.60263   0.00000  Uiso   1.00
H589   H     0.60546   0.08052   0.57651   0.00000  Uiso   1.00
H590   H     0.60259   0.03015   0.53657   0.00000  Uiso   1.00
H591   H     0.42016   0.28579   0.43585   0.00000  Uiso   1.00
H592   H     0.45032   0.31525   0.36140   0.00000  Uiso   1.00
H593   H     0.45216   0.25332   0.36138   0.00000  Uiso   1.00
H594   H     0.62934   0.24234   0.49992   0.00000  Uiso   1.00
H595   H     0.49776   0.28577   0.37904   0.00000  Uiso   1.00
H596   H     0.62967   0.09233   0.49571   0.00000  Uiso   1.00
H597   H     0.37066   0.24234   0.50008   0.00000  Uiso   1.00
H598   H     0.46579   0.05198   0.39625   0.00000  Uiso   1.00
H599   H     0.39781   0.02384   0.39736   0.00000  Uiso   1.00
H600   H     0.39454   0.08051   0.42349   0.00000  Uiso   1.00
H601   H     0.39741   0.03014   0.46342   0.00000  Uiso   1.00
H602   H     0.57984   0.28579   0.56414   0.00000  Uiso   1.00
N603   N     0.50000   0.28402   0.50000   0.00000  Uiso   1.00
N604   N     0.50000   0.04931   0.50000   0.00000  Uiso   1.00
N605   N     0.45274   0.05011   0.43014   0.00000  Uiso   1.00
N606   N     0.54862   0.28318   0.56854   0.00000  Uiso   1.00
N607   N     0.54726   0.05011   0.56986   0.00000  Uiso   1.00
N608   N     0.45138   0.28318   0.43146   0.00000  Uiso   1.00
O609   O     0.43988   0.20625   0.50000   0.00000  Uiso   1.00
O610   O     0.56012   0.12709   0.50000   0.00000  Uiso   1.00
O611   O     0.56012   0.20625   0.50000   0.00000  Uiso   1.00
O612   O     0.43988   0.12709   0.50000   0.00000  Uiso   1.00
O613   O     0.50000   0.20625   0.42946   0.00000  Uiso   1.00
O614   O     0.50000   0.12708   0.57054   0.00000  Uiso   1.00
O615   O     0.50000   0.20625   0.57054   0.00000  Uiso   1.00
O616   O     0.50000   0.12708   0.42946   0.00000  Uiso   1.00
C617   C     0.75411   0.16676   0.50051   0.00000  Uiso   1.00
C618   C     0.68798   0.20938   0.50018   0.00000  Uiso   1.00
C619   C     0.95721   0.16715   0.49899   0.00000  Uiso   1.00
C620   C     0.70946   0.16715   0.50101   0.00000  Uiso   1.00
C621   C     0.80924   0.02494   0.46652   0.00000  Uiso   1.00
C622   C     0.85708   0.30839   0.53380   0.00000  Uiso   1.00
C623   C     0.85742   0.02494   0.53348   0.00000  Uiso   1.00
C624   C     0.80959   0.30839   0.46619   0.00000  Uiso   1.00
C625   C     0.74174   0.04566   0.42890   0.00000  Uiso   1.00
C626   C     0.86963   0.28479   0.61912   0.00000  Uiso   1.00
C627   C     0.92492   0.04566   0.57110   0.00000  Uiso   1.00
C628   C     0.91256   0.16676   0.49949   0.00000  Uiso   1.00
C629   C     0.79704   0.28479   0.38088   0.00000  Uiso   1.00
C630   C     0.83328   0.16665   0.40695   0.00000  Uiso   1.00
C631   C     0.83339   0.16665   0.59305   0.00000  Uiso   1.00
C632   C     0.83333   0.16657   0.35520   0.00000  Uiso   1.00
C633   C     0.83334   0.16657   0.64480   0.00000  Uiso   1.00
C634   C     0.68789   0.12520   0.50158   0.00000  Uiso   1.00
C635   C     0.97868   0.20938   0.49982   0.00000  Uiso   1.00
C636   C     0.97878   0.12520   0.49842   0.00000  Uiso   1.00
Cu637  Cu    0.83333   0.21355   0.50000   0.00000  Uiso   1.00
Cu638  Cu    0.83333   0.11978   0.50000   0.00000  Uiso   1.00
H639   H     0.70367   0.09233   0.50428   0.00000  Uiso   1.00
H640   H     0.88302   0.31524   0.63860   0.00000  Uiso   1.00
H641   H     0.88117   0.25332   0.63862   0.00000  Uiso   1.00
H642   H     0.83558   0.28577   0.62096   0.00000  Uiso   1.00
H643   H     0.86755   0.05198   0.60375   0.00000  Uiso   1.00
H644   H     0.93552   0.02384   0.60263   0.00000  Uiso   1.00
H645   H     0.93879   0.08052   0.57651   0.00000  Uiso   1.00
H646   H     0.93592   0.03015   0.53657   0.00000  Uiso   1.00
H647   H     0.75349   0.28579   0.43585   0.00000  Uiso   1.00
H648   H     0.78365   0.31525   0.36140   0.00000  Uiso   1.00
H649   H     0.78550   0.25332   0.36138   0.00000  Uiso   1.00
H650   H     0.96267   0.24234   0.49992   0.00000  Uiso   1.00
H651   H     0.83109   0.28577   0.37904   0.00000  Uiso   1.00
H652   H     0.96300   0.09233   0.49571   0.00000  Uiso   1.00
H653   H     0.70399   0.24234   0.50008   0.00000  Uiso   1.00
H654   H     0.79912   0.05198   0.39625   0.00000  Uiso   1.00
H655   H     0.73115   0.02384   0.39736   0.00000  Uiso   1.00
H656   H     0.72788   0.08051   0.42349   0.00000  Uiso   1.00
H657   H     0.73075   0.03014   0.46342   0.00000  Uiso   1.00
H658   H     0.91317   0.28579   0.56414   0.00000  Uiso   1.00
N659   N     0.83333   0.28402   0.50000   0.00000  Uiso   1.00
N660   N     0.83333   0.04931   0.50000   0.00000  Uiso   1.00
N661   N     0.78608   0.05011   0.43014   0.00000  Uiso   1.00
N662   N     0.88195   0.28318   0.56854   0.00000  Uiso   1.00
N663   N     0.88059   0.05011   0.56986   0.00000  Uiso   1.00
N664   N     0.78472   0.28318   0.43146   0.00000  Uiso   1.00
O665   O     0.77321   0.20625   0.50000   0.00000  Uiso   1.00
O666   O     0.89345   0.12709   0.50000   0.00000  Uiso   1.00
O667   O     0.89345   0.20625   0.50000   0.00000  Uiso   1.00
O668   O     0.77321   0.12709   0.50000   0.00000  Uiso   1.00
O669   O     0.83333   0.20625   0.42946   0.00000  Uiso   1.00
O670   O     0.83333   0.12708   0.57054   0.00000  Uiso   1.00
O671   O     0.83333   0.20625   0.57054   0.00000  Uiso   1.00
O672   O     0.83333   0.12708   0.42946   0.00000  Uiso   1.00
C673   C     0.08744   0.50009   0.50051   0.00000  Uiso   1.00
C674   C     0.02132   0.54271   0.50018   0.00000  Uiso   1.00
C675   C     0.29054   0.50048   0.49899   0.00000  Uiso   1.00
C676   C     0.04279   0.50048   0.50101   0.00000  Uiso   1.00
C677   C     0.14257   0.35828   0.46652   0.00000  Uiso   1.00
C678   C     0.19041   0.64172   0.53380   0.00000  Uiso   1.00
C679   C     0.19076   0.35828   0.53348   0.00000  Uiso   1.00
C680   C     0.14292   0.64172   0.46619   0.00000  Uiso   1.00
C681   C     0.07507   0.37900   0.42890   0.00000  Uiso   1.00
C682   C     0.20296   0.61813   0.61912   0.00000  Uiso   1.00
C683   C     0.25826   0.37900   0.57110   0.00000  Uiso   1.00
C684   C     0.24589   0.50009   0.49949   0.00000  Uiso   1.00
C685   C     0.13037   0.61813   0.38088   0.00000  Uiso   1.00
C686   C     0.16661   0.49998   0.40695   0.00000  Uiso   1.00
C687   C     0.16672   0.49998   0.59305   0.00000  Uiso   1.00
C688   C     0.16666   0.49990   0.35520   0.00000  Uiso   1.00
C689   C     0.16667   0.49990   0.64480   0.00000  Uiso   1.00
C690   C     0.02122   0.45853   0.50158   0.00000  Uiso   1.00
C691   C     0.31202   0.54271   0.49982   0.00000  Uiso   1.00
C692   C     0.31211   0.45854   0.49842   0.00000  Uiso   1.00
Cu693  Cu    0.16667   0.54689   0.50000   0.00000  Uiso   1.00
Cu694  Cu    0.16667   0.45311   0.50000   0.00000  Uiso   1.00
H695   H     0.03700   0.42566   0.50428   0.00000  Uiso   1.00
H696   H     0.21635   0.64858   0.63860   0.00000  Uiso   1.00
H697   H     0.21451   0.58665   0.63862   0.00000  Uiso   1.00
H698   H     0.16891   0.61911   0.62096   0.00000  Uiso   1.00
H699   H     0.20088   0.38531   0.60375   0.00000  Uiso   1.00
H700   H     0.26886   0.35717   0.60263   0.00000  Uiso   1.00
H701   H     0.27212   0.41385   0.57651   0.00000  Uiso   1.00
H702   H     0.26925   0.36348   0.53657   0.00000  Uiso   1.00
H703   H     0.08683   0.61912   0.43585   0.00000  Uiso   1.00
H704   H     0.11699   0.64858   0.36140   0.00000  Uiso   1.00
H705   H     0.11883   0.58665   0.36138   0.00000  Uiso   1.00
H706   H     0.29601   0.57568   0.49992   0.00000  Uiso   1.00
H707   H     0.16443   0.61911   0.37904   0.00000  Uiso   1.00
H708   H     0.29633   0.42566   0.49571   0.00000  Uiso   1.00
H709   H     0.03733   0.57568   0.50008   0.00000  Uiso   1.00
H710   H     0.13245   0.38532   0.39625   0.00000  Uiso   1.00
H711   H     0.06448   0.35717   0.39736   0.00000  Uiso   1.00
H712   H     0.06121   0.41385   0.42349   0.00000  Uiso   1.00
H713   H     0.06408   0.36348   0.46342   0.00000  Uiso   1.00
H714   H     0.24651   0.61913   0.56414   0.00000  Uiso   1.00
N715   N     0.16667   0.61736   0.50000   0.00000  Uiso   1.00
N716   N     0.16667   0.38264   0.50000   0.00000  Uiso   1.00
N717   N     0.11941   0.38344   0.43014   0.00000  Uiso   1.00
N718   N     0.21529   0.61651   0.56854   0.00000  Uiso   1.00
N719   N     0.21392   0.38344   0.56986   0.00000  Uiso   1.00
N720   N     0.11805   0.61651   0.43146   0.00000  Uiso   1.00
O721   O     0.10655   0.53958   0.50000   0.00000  Uiso   1.00
O722   O     0.22679   0.46042   0.50000   0.00000  Uiso   1.00
O723   O     0.22679   0.53958   0.50000   0.00000  Uiso   1.00
O724   O     0.10655   0.46042   0.50000   0.00000  Uiso   1.00
O725   O     0.16667   0.53959   0.42946   0.00000  Uiso   1.00
O726   O     0.16667   0.46041   0.57054   0.00000  Uiso   1.00
O727   O     0.16667   0.53959   0.57054   0.00000  Uiso   1.00
O728   O     0.16667   0.46041   0.42946   0.00000  Uiso   1.00
C729   C     0.42078   0.50009   0.50051   0.00000  Uiso   1.00
C730   C     0.35465   0.54271   0.50018   0.00000  Uiso   1.00
C731   C     0.62387   0.50048   0.49899   0.00000  Uiso   1.00
C732   C     0.37612   0.50048   0.50101   0.00000  Uiso   1.00
C733   C     0.47591   0.35828   0.46652   0.00000  Uiso   1.00
C734   C     0.52375   0.64172   0.53380   0.00000  Uiso   1.00
C735   C     0.52409   0.35828   0.53348   0.00000  Uiso   1.00
C736   C     0.47625   0.64172   0.46619   0.00000  Uiso   1.00
C737   C     0.40841   0.37900   0.42890   0.00000  Uiso   1.00
C738   C     0.53630   0.61813   0.61912   0.00000  Uiso   1.00
C739   C     0.59159   0.37900   0.57110   0.00000  Uiso   1.00
C740   C     0.57922   0.50009   0.49949   0.00000  Uiso   1.00
C741   C     0.46371   0.61813   0.38088   0.00000  Uiso   1.00
C742   C     0.49994   0.49998   0.40695   0.00000  Uiso   1.00
C743   C     0.50006   0.49998   0.59305   0.00000  Uiso   1.00
C744   C     0.49999   0.49990   0.35520   0.00000  Uiso   1.00
C745   C     0.50001   0.49990   0.64480   0.00000  Uiso   1.00
C746   C     0.35455   0.45853   0.50158   0.00000  Uiso   1.00
C747   C     0.64535   0.54271   0.49982   0.00000  Uiso   1.00
C748   C     0.64545   0.45854   0.49842   0.00000  Uiso   1.00
Cu749  Cu    0.50000   0.54689   0.50000   0.00000  Uiso   1.00
Cu750  Cu    0.50000   0.45311   0.50000   0.00000  Uiso   1.00
H751   H     0.37033   0.42566   0.50428   0.00000  Uiso   1.00
H752   H     0.54969   0.64858   0.63860   0.00000  Uiso   1.00
H753   H     0.54784   0.58665   0.63862   0.00000  Uiso   1.00
H754   H     0.50224   0.61911   0.62096   0.00000  Uiso   1.00
H755   H     0.53422   0.38531   0.60375   0.00000  Uiso   1.00
H756   H     0.60219   0.35717   0.60263   0.00000  Uiso   1.00
H757   H     0.60546   0.41385   0.57651   0.00000  Uiso   1.00
H758   H     0.60259   0.36348   0.53657   0.00000  Uiso   1.00
H759   H     0.42016   0.61912   0.43585   0.00000  Uiso   1.00
H760   H     0.45032   0.64858   0.36140   0.00000  Uiso   1.00
H761   H     0.45216   0.58665   0.36138   0.00000  Uiso   1.00
H762   H     0.62934   0.57568   0.49992   0.00000  Uiso   1.00
H763   H     0.49776   0.61911   0.37904   0.00000  Uiso   1.00
H764   H     0.62967   0.42566   0.49571   0.00000  Uiso   1.00
H765   H     0.37066   0.57568   0.50008   0.00000  Uiso   1.00
H766   H     0.46579   0.38532   0.39625   0.00000  Uiso   1.00
H767   H     0.39781   0.35717   0.39736   0.00000  Uiso   1.00
H768   H     0.39454   0.41385   0.42349   0.00000  Uiso   1.00
H769   H     0.39741   0.36348   0.46342   0.00000  Uiso   1.00
H770   H     0.57984   0.61913   0.56414   0.00000  Uiso   1.00
N771   N     0.50000   0.61736   0.50000   0.00000  Uiso   1.00
N772   N     0.50000   0.38264   0.50000   0.00000  Uiso   1.00
N773   N     0.45274   0.38344   0.43014   0.00000  Uiso   1.00
N774   N     0.54862   0.61651   0.56854   0.00000  Uiso   1.00
N775   N     0.54726   0.38344   0.56986   0.00000  Uiso   1.00
N776   N     0.45138   0.61651   0.43146   0.00000  Uiso   1.00
O777   O     0.43988   0.53958   0.50000   0.00000  Uiso   1.00
O778   O     0.56012   0.46042   0.50000   0.00000  Uiso   1.00
O779   O     0.56012   0.53958   0.50000   0.00000  Uiso   1.00
O780   O     0.43988   0.46042   0.50000   0.00000  Uiso   1.00
O781   O     0.50000   0.53959   0.42946   0.00000  Uiso   1.00
O782   O     0.50000   0.46041   0.57054   0.00000  Uiso   1.00
O783   O     0.50000   0.53959   0.57054   0.00000  Uiso   1.00
O784   O     0.50000   0.46041   0.42946   0.00000  Uiso   1.00
C785   C     0.75411   0.50009   0.50051   0.00000  Uiso   1.00
C786   C     0.68798   0.54271   0.50018   0.00000  Uiso   1.00
C787   C     0.95721   0.50048   0.49899   0.00000  Uiso   1.00
C788   C     0.70946   0.50048   0.50101   0.00000  Uiso   1.00
C789   C     0.80924   0.35828   0.46652   0.00000  Uiso   1.00
C790   C     0.85708   0.64172   0.53380   0.00000  Uiso   1.00
C791   C     0.85742   0.35828   0.53348   0.00000  Uiso   1.00
C792   C     0.80959   0.64172   0.46619   0.00000  Uiso   1.00
C793   C     0.74174   0.37900   0.42890   0.00000  Uiso   1.00
C794   C     0.86963   0.61813   0.61912   0.00000  Uiso   1.00
C795   C     0.92492   0.37900   0.57110   0.00000  Uiso   1.00
C796   C     0.91256   0.50009   0.49949   0.00000  Uiso   1.00
C797   C     0.79704   0.61813   0.38088   0.00000  Uiso   1.00
C798   C     0.83328   0.49998   0.40695   0.00000  Uiso   1.00
C799   C     0.83339   0.49998   0.59305   0.00000  Uiso   1.00
C800   C     0.83333   0.49990   0.35520   0.00000  Uiso   1.00
C801   C     0.83334   0.49990   0.64480   0.00000  Uiso   1.00
C802   C     0.68789   0.45853   0.50158   0.00000  Uiso   1.00
C803   C     0.97868   0.54271   0.49982   0.00000  Uiso   1.00
C804   C     0.97878   0.45854   0.49842   0.00000  Uiso   1.00
Cu805  Cu    0.83333   0.54689   0.50000   0.00000  Uiso   1.00
Cu806  Cu    0.83333   0.45311   0.50000   0.00000  Uiso   1.00
H807   H     0.70367   0.42566   0.50428   0.00000  Uiso   1.00
H808   H     0.88302   0.64858   0.63860   0.00000  Uiso   1.00
H809   H     0.88117   0.58665   0.63862   0.00000  Uiso   1.00
H810   H     0.83558   0.61911   0.62096   0.00000  Uiso   1.00
H811   H     0.86755   0.38531   0.60375   0.00000  Uiso   1.00
H812   H     0.93552   0.35717   0.60263   0.00000  Uiso   1.00
H813   H     0.93879   0.41385   0.57651   0.00000  Uiso   1.00
H814   H     0.93592   0.36348   0.53657   0.00000  Uiso   1.00
H815   H     0.75349   0.61912   0.43585   0.00000  Uiso   1.00
H816   H     0.78365   0.64858   0.36140   0.00000  Uiso   1.00
H817   H     0.78550   0.58665   0.36138   0.00000  Uiso   1.00
H818   H     0.96267   0.57568   0.49992   0.00000  Uiso   1.00
H819   H     0.83109   0.61911   0.37904   0.00000  Uiso   1.00
H820   H     0.96300   0.42566   0.49571   0.00000  Uiso   1.00
H821   H     0.70399   0.57568   0.50008   0.00000  Uiso   1.00
H822   H     0.79912   0.38532   0.39625   0.00000  Uiso   1.00
H823   H     0.73115   0.35717   0.39736   0.00000  Uiso   1.00
H824   H     0.72788   0.41385   0.42349   0.00000  Uiso   1.00
H825   H     0.73075   0.36348   0.46342   0.00000  Uiso   1.00
H826   H     0.91317   0.61913   0.56414   0.00000  Uiso   1.00
N827   N     0.83333   0.61736   0.50000   0.00000  Uiso   1.00
N828   N     0.83333   0.38264   0.50000   0.00000  Uiso   1.00
N829   N     0.78608   0.38344   0.43014   0.00000  Uiso   1.00
N830   N     0.88195   0.61651   0.56854   0.00000  Uiso   1.00
N831   N     0.88059   0.38344   0.56986   0.00000  Uiso   1.00
N832   N     0.78472   0.61651   0.43146   0.00000  Uiso   1.00
O833   O     0.77321   0.53958   0.50000   0.00000  Uiso   1.00
O834   O     0.89345   0.46042   0.50000   0.00000  Uiso   1.00
O835   O     0.89345   0.53958   0.50000   0.00000  Uiso   1.00
O836   O     0.77321   0.46042   0.50000   0.00000  Uiso   1.00
O837   O     0.83333   0.53959   0.42946   0.00000  Uiso   1.00
O838   O     0.83333   0.46041   0.57054   0.00000  Uiso   1.00
O839   O     0.83333   0.53959   0.57054   0.00000  Uiso   1.00
O840   O     0.83333   0.46041   0.42946   0.00000  Uiso   1.00
C841   C     0.08744   0.83342   0.50051   0.00000  Uiso   1.00
C842   C     0.02132   0.87605   0.50018   0.00000  Uiso   1.00
C843   C     0.29054   0.83381   0.49899   0.00000  Uiso   1.00
C844   C     0.04279   0.83381   0.50101   0.00000  Uiso   1.00
C845   C     0.14257   0.69161   0.46652   0.00000  Uiso   1.00
C846   C     0.19041   0.97505   0.53380   0.00000  Uiso   1.00
C847   C     0.19076   0.69161   0.53348   0.00000  Uiso   1.00
C848   C     0.14292   0.97505   0.46619   0.00000  Uiso   1.00
C849   C     0.07507   0.71233   0.42890   0.00000  Uiso   1.00
C850   C     0.20296   0.95146   0.61912   0.00000  Uiso   1.00
C851   C     0.25826   0.71233   0.57110   0.00000  Uiso   1.00
C852   C     0.24589   0.83342   0.49949   0.00000  Uiso   1.00
C853   C     0.13037   0.95146   0.38088   0.00000  Uiso   1.00
C854   C     0.16661   0.83331   0.40695   0.00000  Uiso   1.00
C855   C     0.16672   0.83331   0.59305   0.00000  Uiso   1.00
C856   C     0.16666   0.83323   0.35520   0.00000  Uiso   1.00
C857   C     0.16667   0.83323   0.64480   0.00000  Uiso   1.00
C858   C     0.02122   0.79187   0.50158   0.00000  Uiso   1.00
C859   C     0.31202   0.87605   0.49982   0.00000  Uiso   1.00
C860   C     0.31211   0.79187   0.49842   0.00000  Uiso   1.00
Cu861  Cu    0.16667   0.88022   0.50000   0.00000  Uiso   1.00
Cu862  Cu    0.16667   0.78645   0.50000   0.00000  Uiso   1.00
H863   H     0.03700   0.75900   0.50428   0.00000  Uiso   1.00
H864   H     0.21635   0.98191   0.63860   0.00000  Uiso   1.00
H865   H     0.21451   0.91998   0.63862   0.00000  Uiso   1.00
H866   H     0.16891   0.95244   0.62096   0.00000  Uiso   1.00
H867   H     0.20088   0.71864   0.60375   0.00000  Uiso   1.00
H868   H     0.26886   0.69051   0.60263   0.00000  Uiso   1.00
H869   H     0.27212   0.74718   0.57651   0.00000  Uiso   1.00
H870   H     0.26925   0.69681   0.53657   0.00000  Uiso   1.00
H871   H     0.08683   0.95246   0.43585   0.00000  Uiso   1.00
H872   H     0.11699   0.98191   0.36140   0.00000  Uiso   1.00
H873   H     0.11883   0.91999   0.36138   0.00000  Uiso   1.00
H874   H     0.29601   0.90901   0.49992   0.00000  Uiso   1.00
H875   H     0.16443   0.95244   0.37904   0.00000  Uiso   1.00
H876   H     0.29633   0.75900   0.49571   0.00000  Uiso   1.00
H877   H     0.03733   0.90901   0.50008   0.00000  Uiso   1.00
H878   H     0.13245   0.71865   0.39625   0.00000  Uiso   1.00
H879   H     0.06448   0.69050   0.39736   0.00000  Uiso   1.00
H880   H     0.06121   0.74718   0.42349   0.00000  Uiso   1.00
H881   H     0.06408   0.69681   0.46342   0.00000  Uiso   1.00
H882   H     0.24651   0.95246   0.56414   0.00000  Uiso   1.00
N883   N     0.16667   0.95069   0.50000   0.00000  Uiso   1.00
N884   N     0.16667   0.71598   0.50000   0.00000  Uiso   1.00
N885   N     0.11941   0.71677   0.43014   0.00000  Uiso   1.00
N886   N     0.21529   0.94984   0.56854   0.00000  Uiso   1.00
N887   N     0.21392   0.71677   0.56986   0.00000  Uiso   1.00
N888   N     0.11805   0.94984   0.43146   0.00000  Uiso   1.00
O889   O     0.10655   0.87291   0.50000   0.00000  Uiso   1.00
O890   O     0.22679   0.79375   0.50000   0.00000  Uiso   1.00
O891   O     0.22679   0.87291   0.50000   0.00000  Uiso   1.00
O892   O     0.10655   0.79375   0.50000   0.00000  Uiso   1.00
O893   O     0.16667   0.87292   0.42946   0.00000  Uiso   1.00
O894   O     0.16667   0.79375   0.57054   0.00000  Uiso   1.00
O895   O     0.16667   0.87292   0.57054   0.00000  Uiso   1.00
O896   O     0.16667   0.79375   0.42946   0.00000  Uiso   1.00
C897   C     0.42078   0.83342   0.50051   0.00000  Uiso   1.00
C898   C     0.35465   0.87605   0.50018   0.00000  Uiso   1.00
C899   C     0.62387   0.83381   0.49899   0.00000  Uiso   1.00
C900   C     0.37612   0.83381   0.50101   0.00000  Uiso   1.00
C901   C     0.47591   0.69161   0.46652   0.00000  Uiso   1.00
C902   C     0.52375   0.97505   0.53380   0.00000  Uiso   1.00
C903   C     0.52409   0.69161   0.53348   0.00000  Uiso   1.00
C904   C     0.47625   0.97505   0.46619   0.00000  Uiso   1.00
C905   C     0.40841   0.71233   0.42890   0.00000  Uiso   1.00
C906   C     0.53630   0.95146   0.61912   0.00000  Uiso   1.00
C907   C     0.59159   0.71233   0.57110   0.00000  Uiso   1.00
C908   C     0.57922   0.83342   0.49949   0.00000  Uiso   1.00
C909   C     0.46371   0.95146   0.38088   0.00000  Uiso   1.00
C910   C     0.49994   0.83331   0.40695   0.00000  Uiso   1.00
C911   C     0.50006   0.83331   0.59305   0.00000  Uiso   1.00
C912   C     0.49999   0.83323   0.35520   0.00000  Uiso   1.00
C913   C     0.50001   0.83323   0.64480   0.00000  Uiso   1.00
C914   C     0.35455   0.79187   0.50158   0.00000  Uiso   1.00
C915   C     0.64535   0.87605   0.49982   0.00000  Uiso   1.00
C916   C     0.64545   0.79187   0.49842   0.00000  Uiso   1.00
Cu917  Cu    0.50000   0.88022   0.50000   0.00000  Uiso   1.00
Cu918  Cu    0.50000   0.78645   0.50000   0.00000  Uiso   1.00
H919   H     0.37033   0.75900   0.50428   0.00000  Uiso   1.00
H920   H     0.54969   0.98191   0.63860   0.00000  Uiso   1.00
H921   H     0.54784   0.91998   0.63862   0.00000  Uiso   1.00
H922   H     0.50224   0.95244   0.62096   0.00000  Uiso   1.00
H923   H     0.53422   0.71864   0.60375   0.00000  Uiso   1.00
H924   H     0.60219   0.69051   0.60263   0.00000  Uiso   1.00
H925   H     0.60546   0.74718   0.57651   0.00000  Uiso   1.00
H926   H     0.60259   0.69681   0.53657   0.00000  Uiso   1.00
H927   H     0.42016   0.95246   0.43585   0.00000  Uiso   1.00
H928   H     0.45032   0.98191   0.36140   0.00000  Uiso   1.00
H929   H     0.45216   0.91999   0.36138   0.00000  Uiso   1.00
H930   H     0.62934   0.90901   0.49992   0.00000  Uiso   1.00
H931   H     0.49776   0.95244   0.37904   0.00000  Uiso   1.00
H932   H     0.62967   0.75900   0.49571   0.00000  Uiso   1.00
H933   H     0.37066   0.90901   0.50008   0.00000  Uiso   1.00
H934   H     0.46579   0.71865   0.39625   0.00000  Uiso   1.00
H935   H     0.39781   0.69050   0.39736   0.00000  Uiso   1.00
H936   H     0.39454   0.74718   0.42349   0.00000  Uiso   1.00
H937   H     0.39741   0.69681   0.46342   0.00000  Uiso   1.00
H938   H     0.57984   0.95246   0.56414   0.00000  Uiso   1.00
N939   N     0.50000   0.95069   0.50000   0.00000  Uiso   1.00
N940   N     0.50000   0.71598   0.50000   0.00000  Uiso   1.00
N941   N     0.45274   0.71677   0.43014   0.00000  Uiso   1.00
N942   N     0.54862   0.94984   0.56854   0.00000  Uiso   1.00
N943   N     0.54726   0.71677   0.56986   0.00000  Uiso   1.00
N944   N     0.45138   0.94984   0.43146   0.00000  Uiso   1.00
O945   O     0.43988   0.87291   0.50000   0.00000  Uiso   1.00
O946   O     0.56012   0.79375   0.50000   0.00000  Uiso   1.00
O947   O     0.56012   0.87291   0.50000   0.00000  Uiso   1.00
O948   O     0.43988   0.79375   0.50000   0.00000  Uiso   1.00
O949   O     0.50000   0.87292   0.42946   0.00000  Uiso   1.00
O950   O     0.50000   0.79375   0.57054   0.00000  Uiso   1.00
O951   O     0.50000   0.87292   0.57054   0.00000  Uiso   1.00
O952   O     0.50000   0.79375   0.42946   0.00000  Uiso   1.00
C953   C     0.75411   0.83342   0.50051   0.00000  Uiso   1.00
C954   C     0.68798   0.87605   0.50018   0.00000  Uiso   1.00
C955   C     0.95721   0.83381   0.49899   0.00000  Uiso   1.00
C956   C     0.70946   0.83381   0.50101   0.00000  Uiso   1.00
C957   C     0.80924   0.69161   0.46652   0.00000  Uiso   1.00
C958   C     0.85708   0.97505   0.53380   0.00000  Uiso   1.00
C959   C     0.85742   0.69161   0.53348   0.00000  Uiso   1.00
C960   C     0.80959   0.97505   0.46619   0.00000  Uiso   1.00
C961   C     0.74174   0.71233   0.42890   0.00000  Uiso   1.00
C962   C     0.86963   0.95146   0.61912   0.00000  Uiso   1.00
C963   C     0.92492   0.71233   0.57110   0.00000  Uiso   1.00
C964   C     0.91256   0.83342   0.49949   0.00000  Uiso   1.00
C965   C     0.79704   0.95146   0.38088   0.00000  Uiso   1.00
C966   C     0.83328   0.83331   0.40695   0.00000  Uiso   1.00
C967   C     0.83339   0.83331   0.59305   0.00000  Uiso   1.00
C968   C     0.83333   0.83323   0.35520   0.00000  Uiso   1.00
C969   C     0.83334   0.83323   0.64480   0.00000  Uiso   1.00
C970   C     0.68789   0.79187   0.50158   0.00000  Uiso   1.00
C971   C     0.97868   0.87605   0.49982   0.00000  Uiso   1.00
C972   C     0.97878   0.79187   0.49842   0.00000  Uiso   1.00
Cu973  Cu    0.83333   0.88022   0.50000   0.00000  Uiso   1.00
Cu974  Cu    0.83333   0.78645   0.50000   0.00000  Uiso   1.00
H975   H     0.70367   0.75900   0.50428   0.00000  Uiso   1.00
H976   H     0.88302   0.98191   0.63860   0.00000  Uiso   1.00
H977   H     0.88117   0.91998   0.63862   0.00000  Uiso   1.00
H978   H     0.83558   0.95244   0.62096   0.00000  Uiso   1.00
H979   H     0.86755   0.71864   0.60375   0.00000  Uiso   1.00
H980   H     0.93552   0.69051   0.60263   0.00000  Uiso   1.00
H981   H     0.93879   0.74718   0.57651   0.00000  Uiso   1.00
H982   H     0.93592   0.69681   0.53657   0.00000  Uiso   1.00
H983   H     0.75349   0.95246   0.43585   0.00000  Uiso   1.00
H984   H     0.78365   0.98191   0.36140   0.00000  Uiso   1.00
H985   H     0.78550   0.91999   0.36138   0.00000  Uiso   1.00
H986   H     0.96267   0.90901   0.49992   0.00000  Uiso   1.00
H987   H     0.83109   0.95244   0.37904   0.00000  Uiso   1.00
H988   H     0.96300   0.75900   0.49571   0.00000  Uiso   1.00
H989   H     0.70399   0.90901   0.50008   0.00000  Uiso   1.00
H990   H     0.79912   0.71865   0.39625   0.00000  Uiso   1.00
H991   H     0.73115   0.69050   0.39736   0.00000  Uiso   1.00
H992   H     0.72788   0.74718   0.42349   0.00000  Uiso   1.00
H993   H     0.73075   0.69681   0.46342   0.00000  Uiso   1.00
H994   H     0.91317   0.95246   0.56414   0.00000  Uiso   1.00
N995   N     0.83333   0.95069   0.50000   0.00000  Uiso   1.00
N996   N     0.83333   0.71598   0.50000   0.00000  Uiso   1.00
N997   N     0.78608   0.71677   0.43014   0.00000  Uiso   1.00
N998   N     0.88195   0.94984   0.56854   0.00000  Uiso   1.00
N999   N     0.88059   0.71677   0.56986   0.00000  Uiso   1.00
N1000  N     0.78472   0.94984   0.43146   0.00000  Uiso   1.00
O1001  O     0.77321   0.87291   0.50000   0.00000  Uiso   1.00
O1002  O     0.89345   0.79375   0.50000   0.00000  Uiso   1.00
O1003  O     0.89345   0.87291   0.50000   0.00000  Uiso   1.00
O1004  O     0.77321   0.79375   0.50000   0.00000  Uiso   1.00
O1005  O     0.83333   0.87292   0.42946   0.00000  Uiso   1.00
O1006  O     0.83333   0.79375   0.57054   0.00000  Uiso   1.00
O1007  O     0.83333   0.87292   0.57054   0.00000  Uiso   1.00
O1008  O     0.83333   0.79375   0.42946   0.00000  Uiso   1.00
C1009  C     0.08744   0.16676   0.83384   0.00000  Uiso   1.00
C1010  C     0.02132   0.20938   0.83352   0.00000  Uiso   1.00
C1011  C     0.29054   0.16715   0.83232   0.00000  Uiso   1.00
C1012  C     0.04279   0.16715   0.83435   0.00000  Uiso   1.00
C1013  C     0.14257   0.02494   0.79986   0.00000  Uiso   1.00
C1014  C     0.19041   0.30839   0.86714   0.00000  Uiso   1.00
C1015  C     0.19076   0.02494   0.86681   0.00000  Uiso   1.00
C1016  C     0.14292   0.30839   0.79953   0.00000  Uiso   1.00
C1017  C     0.07507   0.04566   0.76223   0.00000  Uiso   1.00
C1018  C     0.20296   0.28479   0.95245   0.00000  Uiso   1.00
C1019  C     0.25826   0.04566   0.90443   0.00000  Uiso   1.00
C1020  C     0.24589   0.16676   0.83283   0.00000  Uiso   1.00
C1021  C     0.13037   0.28479   0.71421   0.00000  Uiso   1.00
C1022  C     0.16661   0.16665   0.74028   0.00000  Uiso   1.00
C1023  C     0.16672   0.16665   0.92638   0.00000  Uiso   1.00
C1024  C     0.16666   0.16657   0.68853   0.00000  Uiso   1.00
C1025  C     0.16667   0.16657   0.97814   0.00000  Uiso   1.00
C1026  C     0.02122   0.12520   0.83491   0.00000  Uiso   1.00
C1027  C     0.31202   0.20938   0.83315   0.00000  Uiso   1.00
C1028  C     0.31211   0.12520   0.83176   0.00000  Uiso   1.00
Cu1029 Cu    0.16667   0.21355   0.83333   0.00000  Uiso   1.00
Cu1030 Cu    0.16667   0.11978   0.83333   0.00000  Uiso   1.00
H1031  H     0.03700   0.09233   0.83761   0.00000  Uiso   1.00
H1032  H     0.21635   0.31524   0.97193   0.00000  Uiso   1.00
H1033  H     0.21451   0.25332   0.97195   0.00000  Uiso   1.00
H1034  H     0.16891   0.28577   0.95429   0.00000  Uiso   1.00
H1035  H     0.20088   0.05198   0.93708   0.00000  Uiso   1.00
H1036  H     0.26886   0.02384   0.93597   0.00000  Uiso   1.00
H1037  H     0.27212   0.08052   0.90984   0.00000  Uiso   1.00
H1038  H     0.26925   0.03015   0.86991   0.00000  Uiso   1.00
H1039  H     0.08683   0.28579   0.76919   0.00000  Uiso   1.00
H1040  H     0.11699   0.31525   0.69473   0.00000  Uiso   1.00
H1041  H     0.11883   0.25332   0.69471   0.00000  Uiso   1.00
H1042  H     0.29601   0.24234   0.83326   0.00000  Uiso   1.00
H1043  H     0.16443   0.28577   0.71237   0.00000  Uiso   1.00
H1044  H     0.29633   0.09233   0.82905   0.00000  Uiso   1.00
H1045  H     0.03733   0.24234   0.83341   0.00000  Uiso   1.00
H1046  H     0.13245   0.05198   0.72959   0.00000  Uiso   1.00
H1047  H     0.06448   0.02384   0.73070   0.00000  Uiso   1.00
H1048  H     0.06121   0.08051   0.75682   0.00000  Uiso   1.00
H1049  H     0.06408   0.03014   0.79676   0.00000  Uiso   1.00
H1050  H     0.24651   0.28579   0.89748   0.00000  Uiso   1.00
N1051  N     0.16667   0.28402   0.83333   0.00000  Uiso   1.00
N1052  N     0.16667   0.04931   0.83333   0.00000  Uiso   1.00
N1053  N     0.11941   0.05011   0.76347   0.00000  Uiso   1.00
N1054  N     0.21529   0.28318   0.90187   0.00000  Uiso   1.00
N1055  N     0.21392   0.05011   0.90320   0.00000  Uiso   1.00
N1056  N     0.11805   0.28318   0.76480   0.00000  Uiso   1.00
O1057  O     0.10655   0.20625   0.83333   0.00000  Uiso   1.00
O1058  O     0.22679   0.12709   0.83334   0.00000  Uiso   1.00
O1059  O     0.22679   0.20625   0.83334   0.00000  Uiso   1.00
O1060  O     0.10655   0.12709   0.83333   0.00000  Uiso   1.00
O1061  O     0.16667   0.20625   0.76280   0.00000  Uiso   1.00
O1062  O     0.16667   0.12708   0.90387   0.00000  Uiso   1.00
O1063  O     0.16667   0.20625   0.90387   0.00000  Uiso   1.00
O1064  O     0.16667   0.12708   0.76280   0.00000  Uiso   1.00
C1065  C     0.42078   0.16676   0.83384   0.00000  Uiso   1.00
C1066  C     0.35465   0.20938   0.83352   0.00000  Uiso   1.00
C1067  C     0.62387   0.16715   0.83232   0.00000  Uiso   1.00
C1068  C     0.37612   0.16715   0.83435   0.00000  Uiso   1.00
C1069  C     0.47591   0.02494   0.79986   0.00000  Uiso   1.00
C1070  C     0.52375   0.30839   0.86714   0.00000  Uiso   1.00
C1071  C     0.52409   0.02494   0.86681   0.00000  Uiso   1.00
C1072  C     0.47625   0.30839   0.79953   0.00000  Uiso   1.00
C1073  C     0.40841   0.04566   0.76223   0.00000  Uiso   1.00
C1074  C     0.53630   0.28479   0.95245   0.00000  Uiso   1.00
C1075  C     0.59159   0.04566   0.90443   0.00000  Uiso   1.00
C1076  C     0.57922   0.16676   0.83283   0.00000  Uiso   1.00
C1077  C     0.46371   0.28479   0.71421   0.00000  Uiso   1.00
C1078  C     0.49994   0.16665   0.74028   0.00000  Uiso   1.00
C1079  C     0.50006   0.16665   0.92638   0.00000  Uiso   1.00
C1080  C     0.49999   0.16657   0.68853   0.00000  Uiso   1.00
C1081  C     0.50001   0.16657   0.97814   0.00000  Uiso   1.00
C1082  C     0.35455   0.12520   0.83491   0.00000  Uiso   1.00
C1083  C     0.64535   0.20938   0.83315   0.00000  Uiso   1.00
C1084  C     0.64545   0.12520   0.83176   0.00000  Uiso   1.00
Cu1085 Cu    0.50000   0.21355   0.83333   0.00000  Uiso   1.00
Cu1086 Cu    0.50000   0.11978   0.83333   0.00000  Uiso   1.00
H1087  H     0.37033   0.09233   0.83761   0.00000  Uiso   1.00
H1088  H     0.54969   0.31524   0.97193   0.00000  Uiso   1.00
H1089  H     0.54784   0.25332   0.97195   0.00000  Uiso   1.00
H1090  H     0.50224   0.28577   0.95429   0.00000  Uiso   1.00
H1091  H     0.53422   0.05198   0.93708   0.00000  Uiso   1.00
H1092  H     0.60219   0.02384   0.93597   0.00000  Uiso   1.00
H1093  H     0.60546   0.08052   0.90984   0.00000  Uiso   1.00
H1094  H     0.60259   0.03015   0.86991   0.00000  Uiso   1.00
H1095  H     0.42016   0.28579   0.76919   0.00000  Uiso   1.00
H1096  H     0.45032   0.31525   0.69473   0.00000  Uiso   1.00
H1097  H     0.45216   0.25332   0.69471   0.00000  Uiso   1.00
H1098  H     0.62934   0.24234   0.83326   0.00000  Uiso   1.00
H1099  H     0.49776   0.28577   0.71237   0.00000  Uiso   1.00
H1100  H     0.62967   0.09233   0.82905   0.00000  Uiso   1.00
H1101  H     0.37066   0.24234   0.83341   0.00000  Uiso   1.00
H1102  H     0.46579   0.05198   0.72959   0.00000  Uiso   1.00
H1103  H     0.39781   0.02384   0.73070   0.00000  Uiso   1.00
H1104  H     0.39454   0.08051   0.75682   0.00000  Uiso   1.00
H1105  H     0.39741   0.03014   0.79676   0.00000  Uiso   1.00
H1106  H     0.57984   0.28579   0.89748   0.00000  Uiso   1.00
N1107  N     0.50000   0.28402   0.83333   0.00000  Uiso   1.00
N1108  N     0.50000   0.04931   0.83333   0.00000  Uiso   1.00
N1109  N     0.45274   0.05011   0.76347   0.00000  Uiso   1.00
N1110  N     0.54862   0.28318   0.90187   0.00000  Uiso   1.00
N1111  N     0.54726   0.05011   0.90320   0.00000  Uiso   1.00
N1112  N     0.45138   0.28318   0.76480   0.00000  Uiso   1.00
O1113  O     0.43988   0.20625   0.83333   0.00000  Uiso   1.00
O1114  O     0.56012   0.12709   0.83334   0.00000  Uiso   1.00
O1115  O     0.56012   0.20625   0.83334   0.00000  Uiso   1.00
O1116  O     0.43988   0.12709   0.83333   0.00000  Uiso   1.00
O1117  O     0.50000   0.20625   0.76280   0.00000  Uiso   1.00
O1118  O     0.50000   0.12708   0.90387   0.00000  Uiso   1.00
O1119  O     0.50000   0.20625   0.90387   0.00000  Uiso   1.00
O1120  O     0.50000   0.12708   0.76280   0.00000  Uiso   1.00
C1121  C     0.75411   0.16676   0.83384   0.00000  Uiso   1.00
C1122  C     0.68798   0.20938   0.83352   0.00000  Uiso   1.00
C1123  C     0.95721   0.16715   0.83232   0.00000  Uiso   1.00
C1124  C     0.70946   0.16715   0.83435   0.00000  Uiso   1.00
C1125  C     0.80924   0.02494   0.79986   0.00000  Uiso   1.00
C1126  C     0.85708   0.30839   0.86714   0.00000  Uiso   1.00
C1127  C     0.85742   0.02494   0.86681   0.00000  Uiso   1.00
C1128  C     0.80959   0.30839   0.79953   0.00000  Uiso   1.00
C1129  C     0.74174   0.04566   0.76223   0.00000  Uiso   1.00
C1130  C     0.86963   0.28479   0.95245   0.00000  Uiso   1.00
C1131  C     0.92492   0.04566   0.90443   0.00000  Uiso   1.00
C1132  C     0.91256   0.16676   0.83283   0.00000  Uiso   1.00
C1133  C     0.79704   0.28479   0.71421   0.00000  Uiso   1.00
C1134  C     0.83328   0.16665   0.74028   0.00000  Uiso   1.00
C1135  C     0.83339   0.16665   0.92638   0.00000  Uiso   1.00
C1136  C     0.83333   0.16657   0.68853   0.00000  Uiso   1.00
C1137  C     0.83334   0.16657   0.97814   0.00000  Uiso   1.00
C1138  C     0.68789   0.12520   0.83491   0.00000  Uiso   1.00
C1139  C     0.97868   0.20938   0.83315   0.00000  Uiso   1.00
C1140  C     0.97878   0.12520   0.83176   0.00000  Uiso   1.00
Cu1141 Cu    0.83333   0.21355   0.83333   0.00000  Uiso   1.00
Cu1142 Cu    0.83333   0.11978   0.83333   0.00000  Uiso   1.00
H1143  H     0.70367   0.09233   0.83761   0.00000  Uiso   1.00
H1144  H     0.88302   0.31524   0.97193   0.00000  Uiso   1.00
H1145  H     0.88117   0.25332   0.97195   0.00000  Uiso   1.00
H1146  H     0.83558   0.28577   0.95429   0.00000  Uiso   1.00
H1147  H     0.86755   0.05198   0.93708   0.00000  Uiso   1.00
H1148  H     0.93552   0.02384   0.93597   0.00000  Uiso   1.00
H1149  H     0.93879   0.08052   0.90984   0.00000  Uiso   1.00
H1150  H     0.93592   0.03015   0.86991   0.00000  Uiso   1.00
H1151  H     0.75349   0.28579   0.76919   0.00000  Uiso   1.00
H1152  H     0.78365   0.31525   0.69473   0.00000  Uiso   1.00
H1153  H     0.78550   0.25332   0.69471   0.00000  Uiso   1.00
H1154  H     0.96267   0.24234   0.83326   0.00000  Uiso   1.00
H1155  H     0.83109   0.28577   0.71237   0.00000  Uiso   1.00
H1156  H     0.96300   0.09233   0.82905   0.00000  Uiso   1.00
H1157  H     0.70399   0.24234   0.83341   0.00000  Uiso   1.00
H1158  H     0.79912   0.05198   0.72959   0.00000  Uiso   1.00
H1159  H     0.73115   0.02384   0.73070   0.00000  Uiso   1.00
H1160  H     0.72788   0.08051   0.75682   0.00000  Uiso   1.00
H1161  H     0.73075   0.03014   0.79676   0.00000  Uiso   1.00
H1162  H     0.91317   0.28579   0.89748   0.00000  Uiso   1.00
N1163  N     0.83333   0.28402   0.83333   0.00000  Uiso   1.00
N1164  N     0.83333   0.04931   0.83333   0.00000  Uiso   1.00
N1165  N     0.78608   0.05011   0.76347   0.00000  Uiso   1.00
N1166  N     0.88195   0.28318   0.90187   0.00000  Uiso   1.00
N1167  N     0.88059   0.05011   0.90320   0.00000  Uiso   1.00
N1168  N     0.78472   0.28318   0.76480   0.00000  Uiso   1.00
O1169  O     0.77321   0.20625   0.83333   0.00000  Uiso   1.00
O1170  O     0.89345   0.12709   0.83334   0.00000  Uiso   1.00
O1171  O     0.89345   0.20625   0.83334   0.00000  Uiso   1.00
O1172  O     0.77321   0.12709   0.83333   0.00000  Uiso   1.00
O1173  O     0.83333   0.20625   0.76280   0.00000  Uiso   1.00
O1174  O     0.83333   0.12708   0.90387   0.00000  Uiso   1.00
O1175  O     0.83333   0.20625   0.90387   0.00000  Uiso   1.00
O1176  O     0.83333   0.12708   0.76280   0.00000  Uiso   1.00
C1177  C     0.08744   0.50009   0.83384   0.00000  Uiso   1.00
C1178  C     0.02132   0.54271   0.83352   0.00000  Uiso   1.00
C1179  C     0.29054   0.50048   0.83232   0.00000  Uiso   1.00
C1180  C     0.04279   0.50048   0.83435   0.00000  Uiso   1.00
C1181  C     0.14257   0.35828   0.79986   0.00000  Uiso   1.00
C1182  C     0.19041   0.64172   0.86714   0.00000  Uiso   1.00
C1183  C     0.19076   0.35828   0.86681   0.00000  Uiso   1.00
C1184  C     0.14292   0.64172   0.79953   0.00000  Uiso   1.00
C1185  C     0.07507   0.37900   0.76223   0.00000  Uiso   1.00
C1186  C     0.20296   0.61813   0.95245   0.00000  Uiso   1.00
C1187  C     0.25826   0.37900   0.90443   0.00000  Uiso   1.00
C1188  C     0.24589   0.50009   0.83283   0.00000  Uiso   1.00
C1189  C     0.13037   0.61813   0.71421   0.00000  Uiso   1.00
C1190  C     0.16661   0.49998   0.74028   0.00000  Uiso   1.00
C1191  C     0.16672   0.49998   0.92638   0.00000  Uiso   1.00
C1192  C     0.16666   0.49990   0.68853   0.00000  Uiso   1.00
C1193  C     0.16667   0.49990   0.97814   0.00000  Uiso   1.00
C1194  C     0.02122   0.45853   0.83491   0.00000  Uiso   1.00
C1195  C     0.31202   0.54271   0.83315   0.00000  Uiso   1.00
C1196  C     0.31211   0.45854   0.83176   0.00000  Uiso   1.00
Cu1197 Cu    0.16667   0.54689   0.83333   0.00000  Uiso   1.00
Cu1198 Cu    0.16667   0.45311   0.83333   0.00000  Uiso   1.00
H1199  H     0.03700   0.42566   0.83761   0.00000  Uiso   1.00
H1200  H     0.21635   0.64858   0.97193   0.00000  Uiso   1.00
H1201  H     0.21451   0.58665   0.97195   0.00000  Uiso   1.00
H1202  H     0.16891   0.61911   0.95429   0.00000  Uiso   1.00
H1203  H     0.20088   0.38531   0.93708   0.00000  Uiso   1.00
H1204  H     0.26886   0.35717   0.93597   0.00000  Uiso   1.00
H1205  H     0.27212   0.41385   0.90984   0.00000  Uiso   1.00
H1206  H     0.26925   0.36348   0.86991   0.00000  Uiso   1.00
H1207  H     0.08683   0.61912   0.76919   0.00000  Uiso   1.00
H1208  H     0.11699   0.64858   0.69473   0.00000  Uiso   1.00
H1209  H     0.11883   0.58665   0.69471   0.00000  Uiso   1.00
H1210  H     0.29601   0.57568   0.83326   0.00000  Uiso   1.00
H1211  H     0.16443   0.61911   0.71237   0.00000  Uiso   1.00
H1212  H     0.29633   0.42566   0.82905   0.00000  Uiso   1.00
H1213  H     0.03733   0.57568   0.83341   0.00000  Uiso   1.00
H1214  H     0.13245   0.38532   0.72959   0.00000  Uiso   1.00
H1215  H     0.06448   0.35717   0.73070   0.00000  Uiso   1.00
H1216  H     0.06121   0.41385   0.75682   0.00000  Uiso   1.00
H1217  H     0.06408   0.36348   0.79676   0.00000  Uiso   1.00
H1218  H     0.24651   0.61913   0.89748   0.00000  Uiso   1.00
N1219  N     0.16667   0.61736   0.83333   0.00000  Uiso   1.00
N1220  N     0.16667   0.38264   0.83333   0.00000  Uiso   1.00
N1221  N     0.11941   0.38344   0.76347   0.00000  Uiso   1.00
N1222  N     0.21529   0.61651   0.90187   0.00000  Uiso   1.00
N1223  N     0.21392   0.38344   0.90320   0.00000  Uiso   1.00
N1224  N     0.11805   0.61651   0.76480   0.00000  Uiso   1.00
O1225  O     0.10655   0.53958   0.83333   0.00000  Uiso   1.00
O1226  O     0.22679   0.46042   0.83334   0.00000  Uiso   1.00
O1227  O     0.22679   0.53958   0.83334   0.00000  Uiso   1.00
O1228  O     0.10655   0.46042   0.83333   0.00000  Uiso   1.00
O1229  O     0.16667   0.53959   0.76280   0.00000  Uiso   1.00
O1230  O     0.16667   0.46041   0.90387   0.00000  Uiso   1.00
O1231  O     0.16667   0.53959   0.90387   0.00000  Uiso   1.00
O1232  O     0.16667   0.46041   0.76280   0.00000  Uiso   1.00
C1233  C     0.42078   0.50009   0.83384   0.00000  Uiso   1.00
C1234  C     0.35465   0.54271   0.83352   0.00000  Uiso   1.00
C1235  C     0.62387   0.50048   0.83232   0.00000  Uiso   1.00
C1236  C     0.37612   0.50048   0.83435   0.00000  Uiso   1.00
C1237  C     0.47591   0.35828   0.79986   0.00000  Uiso   1.00
C1238  C     0.52375   0.64172   0.86714   0.00000  Uiso   1.00
C1239  C     0.52409   0.35828   0.86681   0.00000  Uiso   1.00
C1240  C     0.47625   0.64172   0.79953   0.00000  Uiso   1.00
C1241  C     0.40841   0.37900   0.76223   0.00000  Uiso   1.00
C1242  C     0.53630   0.61813   0.95245   0.00000  Uiso   1.00
C1243  C     0.59159   0.37900   0.90443   0.00000  Uiso   1.00
C1244  C     0.57922   0.50009   0.83283   0.00000  Uiso   1.00
C1245  C     0.46371   0.61813   0.71421   0.00000  Uiso   1.00
C1246  C     0.49994   0.49998   0.74028   0.00000  Uiso   1.00
C1247  C     0.50006   0.49998   0.92638   0.00000  Uiso   1.00
C1248  C     0.49999   0.49990   0.68853   0.00000  Uiso   1.00
C1249  C     0.50001   0.49990   0.97814   0.00000  Uiso   1.00
C1250  C     0.35455   0.45853   0.83491   0.00000  Uiso   1.00
C1251  C     0.64535   0.54271   0.83315   0.00000  Uiso   1.00
C1252  C     0.64545   0.45854   0.83176   0.00000  Uiso   1.00
Cu1253 Cu    0.50000   0.54689   0.83333   0.00000  Uiso   1.00
Cu1254 Cu    0.50000   0.45311   0.83333   0.00000  Uiso   1.00
H1255  H     0.37033   0.42566   0.83761   0.00000  Uiso   1.00
H1256  H     0.54969   0.64858   0.97193   0.00000  Uiso   1.00
H1257  H     0.54784   0.58665   0.97195   0.00000  Uiso   1.00
H1258  H     0.50224   0.61911   0.95429   0.00000  Uiso   1.00
H1259  H     0.53422   0.38531   0.93708   0.00000  Uiso   1.00
H1260  H     0.60219   0.35717   0.93597   0.00000  Uiso   1.00
H1261  H     0.60546   0.41385   0.90984   0.00000  Uiso   1.00
H1262  H     0.60259   0.36348   0.86991   0.00000  Uiso   1.00
H1263  H     0.42016   0.61912   0.76919   0.00000  Uiso   1.00
H1264  H     0.45032   0.64858   0.69473   0.00000  Uiso   1.00
H1265  H     0.45216   0.58665   0.69471   0.00000  Uiso   1.00
H1266  H     0.62934   0.57568   0.83326   0.00000  Uiso   1.00
H1267  H     0.49776   0.61911   0.71237   0.00000  Uiso   1.00
H1268  H     0.62967   0.42566   0.82905   0.00000  Uiso   1.00
H1269  H     0.37066   0.57568   0.83341   0.00000  Uiso   1.00
H1270  H     0.46579   0.38532   0.72959   0.00000  Uiso   1.00
H1271  H     0.39781   0.35717   0.73070   0.00000  Uiso   1.00
H1272  H     0.39454   0.41385   0.75682   0.00000  Uiso   1.00
H1273  H     0.39741   0.36348   0.79676   0.00000  Uiso   1.00
H1274  H     0.57984   0.61913   0.89748   0.00000  Uiso   1.00
N1275  N     0.50000   0.61736   0.83333   0.00000  Uiso   1.00
N1276  N     0.50000   0.38264   0.83333   0.00000  Uiso   1.00
N1277  N     0.45274   0.38344   0.76347   0.00000  Uiso   1.00
N1278  N     0.54862   0.61651   0.90187   0.00000  Uiso   1.00
N1279  N     0.54726   0.38344   0.90320   0.00000  Uiso   1.00
N1280  N     0.45138   0.61651   0.76480   0.00000  Uiso   1.00
O1281  O     0.43988   0.53958   0.83333   0.00000  Uiso   1.00
O1282  O     0.56012   0.46042   0.83334   0.00000  Uiso   1.00
O1283  O     0.56012   0.53958   0.83334   0.00000  Uiso   1.00
O1284  O     0.43988   0.46042   0.83333   0.00000  Uiso   1.00
O1285  O     0.50000   0.53959   0.76280   0.00000  Uiso   1.00
O1286  O     0.50000   0.46041   0.90387   0.00000  Uiso   1.00
O1287  O     0.50000   0.53959   0.90387   0.00000  Uiso   1.00
O1288  O     0.50000   0.46041   0.76280   0.00000  Uiso   1.00
C1289  C     0.75411   0.50009   0.83384   0.00000  Uiso   1.00
C1290  C     0.68798   0.54271   0.83352   0.00000  Uiso   1.00
C1291  C     0.95721   0.50048   0.83232   0.00000  Uiso   1.00
C1292  C     0.70946   0.50048   0.83435   0.00000  Uiso   1.00
C1293  C     0.80924   0.35828   0.79986   0.00000  Uiso   1.00
C1294  C     0.85708   0.64172   0.86714   0.00000  Uiso   1.00
C1295  C     0.85742   0.35828   0.86681   0.00000  Uiso   1.00
C1296  C     0.80959   0.64172   0.79953   0.00000  Uiso   1.00
C1297  C     0.74174   0.37900   0.76223   0.00000  Uiso   1.00
C1298  C     0.86963   0.61813   0.95245   0.00000  Uiso   1.00
C1299  C     0.92492   0.37900   0.90443   0.00000  Uiso   1.00
C1300  C     0.91256   0.50009   0.83283   0.00000  Uiso   1.00
C1301  C     0.79704   0.61813   0.71421   0.00000  Uiso   1.00
C1302  C     0.83328   0.49998   0.74028   0.00000  Uiso   1.00
C1303  C     0.83339   0.49998   0.92638   0.00000  Uiso   1.00
C1304  C     0.83333   0.49990   0.68853   0.00000  Uiso   1.00
C1305  C     0.83334   0.49990   0.97814   0.00000  Uiso   1.00
C1306  C     0.68789   0.45853   0.83491   0.00000  Uiso   1.00
C1307  C     0.97868   0.54271   0.83315   0.00000  Uiso   1.00
C1308  C     0.97878   0.45854   0.83176   0.00000  Uiso   1.00
Cu1309 Cu    0.83333   0.54689   0.83333   0.00000  Uiso   1.00
Cu1310 Cu    0.83333   0.45311   0.83333   0.00000  Uiso   1.00
H1311  H     0.70367   0.42566   0.83761   0.00000  Uiso   1.00
H1312  H     0.88302   0.64858   0.97193   0.00000  Uiso   1.00
H1313  H     0.88117   0.58665   0.97195   0.00000  Uiso   1.00
H1314  H     0.83558   0.61911   0.95429   0.00000  Uiso   1.00
H1315  H     0.86755   0.38531   0.93708   0.00000  Uiso   1.00
H1316  H     0.93552   0.35717   0.93597   0.00000  Uiso   1.00
H1317  H     0.93879   0.41385   0.90984   0.00000  Uiso   1.00
H1318  H     0.93592   0.36348   0.86991   0.00000  Uiso   1.00
H1319  H     0.75349   0.61912   0.76919   0.00000  Uiso   1.00
H1320  H     0.78365   0.64858   0.69473   0.00000  Uiso   1.00
H1321  H     0.78550   0.58665   0.69471   0.00000  Uiso   1.00
H1322  H     0.96267   0.57568   0.83326   0.00000  Uiso   1.00
H1323  H     0.83109   0.61911   0.71237   0.00000  Uiso   1.00
H1324  H     0.96300   0.42566   0.82905   0.00000  Uiso   1.00
H1325  H     0.70399   0.57568   0.83341   0.00000  Uiso   1.00
H1326  H     0.79912   0.38532   0.72959   0.00000  Uiso   1.00
H1327  H     0.73115   0.35717   0.73070   0.00000  Uiso   1.00
H1328  H     0.72788   0.41385   0.75682   0.00000  Uiso   1.00
H1329  H     0.73075   0.36348   0.79676   0.00000  Uiso   1.00
H1330  H     0.91317   0.61913   0.89748   0.00000  Uiso   1.00
N1331  N     0.83333   0.61736   0.83333   0.00000  Uiso   1.00
N1332  N     0.83333   0.38264   0.83333   0.00000  Uiso   1.00
N1333  N     0.78608   0.38344   0.76347   0.00000  Uiso   1.00
N1334  N     0.88195   0.61651   0.90187   0.00000  Uiso   1.00
N1335  N     0.88059   0.38344   0.90320   0.00000  Uiso   1.00
N1336  N     0.78472   0.61651   0.76480   0.00000  Uiso   1.00
O1337  O     0.77321   0.53958   0.83333   0.00000  Uiso   1.00
O1338  O     0.89345   0.46042   0.83334   0.00000  Uiso   1.00
O1339  O     0.89345   0.53958   0.83334   0.00000  Uiso   1.00
O1340  O     0.77321   0.46042   0.83333   0.00000  Uiso   1.00
O1341  O     0.83333   0.53959   0.76280   0.00000  Uiso   1.00
O1342  O     0.83333   0.46041   0.90387   0.00000  Uiso   1.00
O1343  O     0.83333   0.53959   0.90387   0.00000  Uiso   1.00
O1344  O     0.83333   0.46041   0.76280   0.00000  Uiso   1.00
C1345  C     0.08744   0.83342   0.83384   0.00000  Uiso   1.00
C1346  C     0.02132   0.87605   0.83352   0.00000  Uiso   1.00
C1347  C     0.29054   0.83381   0.83232   0.00000  Uiso   1.00
C1348  C     0.04279   0.83381   0.83435   0.00000  Uiso   1.00
C1349  C     0.14257   0.69161   0.79986   0.00000  Uiso   1.00
C1350  C     0.19041   0.97505   0.86714   0.00000  Uiso   1.00
C1351  C     0.19076   0.69161   0.86681   0.00000  Uiso   1.00
C1352  C     0.14292   0.97505   0.79953   0.00000  Uiso   1.00
C1353  C     0.07507   0.71233   0.76223   0.00000  Uiso   1.00
C1354  C     0.20296   0.95146   0.95245   0.00000  Uiso   1.00
C1355  C     0.25826   0.71233   0.90443   0.00000  Uiso   1.00
C1356  C     0.24589   0.83342   0.83283   0.00000  Uiso   1.00
C1357  C     0.13037   0.95146   0.71421   0.00000  Uiso   1.00
C1358  C     0.16661   0.83331   0.74028   0.00000  Uiso   1.00
C1359  C     0.16672   0.83331   0.92638   0.00000  Uiso   1.00
C1360  C     0.16666   0.83323   0.68853   0.00000  Uiso   1.00
C1361  C     0.16667   0.83323   0.97814   0.00000  Uiso   1.00
C1362  C     0.02122   0.79187   0.83491   0.00000  Uiso   1.00
C1363  C     0.31202   0.87605   0.83315   0.00000  Uiso   1.00
C1364  C     0.31211   0.79187   0.83176   0.00000  Uiso   1.00
Cu1365 Cu    0.16667   0.88022   0.83333   0.00000  Uiso   1.00
Cu1366 Cu    0.16667   0.78645   0.83333   0.00000  Uiso   1.00
H1367  H     0.03700   0.75900   0.83761   0.00000  Uiso   1.00
H1368  H     0.21635   0.98191   0.97193   0.00000  Uiso   1.00
H1369  H     0.21451   0.91998   0.97195   0.00000  Uiso   1.00
H1370  H     0.16891   0.95244   0.95429   0.00000  Uiso   1.00
H1371  H     0.20088   0.71864   0.93708   0.00000  Uiso   1.00
H1372  H     0.26886   0.69051   0.93597   0.00000  Uiso   1.00
H1373  H     0.27212   0.74718   0.90984   0.00000  Uiso   1.00
H1374  H     0.26925   0.69681   0.86991   0.00000  Uiso   1.00
H1375  H     0.08683   0.95246   0.76919   0.00000  Uiso   1.00
H1376  H     0.11699   0.98191   0.69473   0.00000  Uiso   1.00
H1377  H     0.11883   0.91999   0.69471   0.00000  Uiso   1.00
H1378  H     0.29601   0.90901   0.83326   0.00000  Uiso   1.00
H1379  H     0.16443   0.95244   0.71237   0.00000  Uiso   1.00
H1380  H     0.29633   0.75900   0.82905   0.00000  Uiso   1.00
H1381  H     0.03733   0.90901   0.83341   0.00000  Uiso   1.00
H1382  H     0.13245   0.71865   0.72959   0.00000  Uiso   1.00
H1383  H     0.06448   0.69050   0.73070   0.00000  Uiso   1.00
H1384  H     0.06121   0.74718   0.75682   0.00000  Uiso   1.00
H1385  H     0.06408   0.69681   0.79676   0.00000  Uiso   1.00
H1386  H     0.24651   0.95246   0.89748   0.00000  Uiso   1.00
N1387  N     0.16667   0.95069   0.83333   0.00000  Uiso   1.00
N1388  N     0.16667   0.71598   0.83333   0.00000  Uiso   1.00
N1389  N     0.11941   0.71677   0.76347   0.00000  Uiso   1.00
N1390  N     0.21529   0.94984   0.90187   0.00000  Uiso   1.00
N1391  N     0.21392   0.71677   0.90320   0.00000  Uiso   1.00
N1392  N     0.11805   0.94984   0.76480   0.00000  Uiso   1.00
O1393  O     0.10655   0.87291   0.83333   0.00000  Uiso   1.00
O1394  O     0.22679   0.79375   0.83334   0.00000  Uiso   1.00
O1395  O     0.22679   0.87291   0.83334   0.00000  Uiso   1.00
O1396  O     0.10655   0.79375   0.83333   0.00000  Uiso   1.00
O1397  O     0.16667   0.87292   0.76280   0.00000  Uiso   1.00
O1398  O     0.16667   0.79375   0.90387   0.00000  Uiso   1.00
O1399  O     0.16667   0.87292   0.90387   0.00000  Uiso   1.00
O1400  O     0.16667   0.79375   0.76280   0.00000  Uiso   1.00
C1401  C     0.42078   0.83342   0.83384   0.00000  Uiso   1.00
C1402  C     0.35465   0.87605   0.83352   0.00000  Uiso   1.00
C1403  C     0.62387   0.83381   0.83232   0.00000  Uiso   1.00
C1404  C     0.37612   0.83381   0.83435   0.00000  Uiso   1.00
C1405  C     0.47591   0.69161   0.79986   0.00000  Uiso   1.00
C1406  C     0.52375   0.97505   0.86714   0.00000  Uiso   1.00
C1407  C     0.52409   0.69161   0.86681   0.00000  Uiso   1.00
C1408  C     0.47625   0.97505   0.79953   0.00000  Uiso   1.00
C1409  C     0.40841   0.71233   0.76223   0.00000  Uiso   1.00
C1410  C     0.53630   0.95146   0.95245   0.00000  Uiso   1.00
C1411  C     0.59159   0.71233   0.90443   0.00000  Uiso   1.00
C1412  C     0.57922   0.83342   0.83283   0.00000  Uiso   1.00
C1413  C     0.46371   0.95146   0.71421   0.00000  Uiso   1.00
C1414  C     0.49994   0.83331   0.74028   0.00000  Uiso   1.00
C1415  C     0.50006   0.83331   0.92638   0.00000  Uiso   1.00
C1416  C     0.49999   0.83323   0.68853   0.00000  Uiso   1.00
C1417  C     0.50001   0.83323   0.97814   0.00000  Uiso   1.00
C1418  C     0.35455   0.79187   0.83491   0.00000  Uiso   1.00
C1419  C     0.64535   0.87605   0.83315   0.00000  Uiso   1.00
C1420  C     0.64545   0.79187   0.83176   0.00000  Uiso   1.00
Cu1421 Cu    0.50000   0.88022   0.83333   0.00000  Uiso   1.00
Cu1422 Cu    0.50000   0.78645   0.83333   0.00000  Uiso   1.00
H1423  H     0.37033   0.75900   0.83761   0.00000  Uiso   1.00
H1424  H     0.54969   0.98191   0.97193   0.00000  Uiso   1.00
H1425  H     0.54784   0.91998   0.97195   0.00000  Uiso   1.00
H1426  H     0.50224   0.95244   0.95429   0.00000  Uiso   1.00
H1427  H     0.53422   0.71864   0.93708   0.00000  Uiso   1.00
H1428  H     0.60219   0.69051   0.93597   0.00000  Uiso   1.00
H1429  H     0.60546   0.74718   0.90984   0.00000  Uiso   1.00
H1430  H     0.60259   0.69681   0.86991   0.00000  Uiso   1.00
H1431  H     0.42016   0.95246   0.76919   0.00000  Uiso   1.00
H1432  H     0.45032   0.98191   0.69473   0.00000  Uiso   1.00
H1433  H     0.45216   0.91999   0.69471   0.00000  Uiso   1.00
H1434  H     0.62934   0.90901   0.83326   0.00000  Uiso   1.00
H1435  H     0.49776   0.95244   0.71237   0.00000  Uiso   1.00
H1436  H     0.62967   0.75900   0.82905   0.00000  Uiso   1.00
H1437  H     0.37066   0.90901   0.83341   0.00000  Uiso   1.00
H1438  H     0.46579   0.71865   0.72959   0.00000  Uiso   1.00
H1439  H     0.39781   0.69050   0.73070   0.00000  Uiso   1.00
H1440  H     0.39454   0.74718   0.75682   0.00000  Uiso   1.00
H1441  H     0.39741   0.69681   0.79676   0.00000  Uiso   1.00
H1442  H     0.57984   0.95246   0.89748   0.00000  Uiso   1.00
N1443  N     0.50000   0.95069   0.83333   0.00000  Uiso   1.00
N1444  N     0.50000   0.71598   0.83333   0.00000  Uiso   1.00
N1445  N     0.45274   0.71677   0.76347   0.00000  Uiso   1.00
N1446  N     0.54862   0.94984   0.90187   0.00000  Uiso   1.00
N1447  N     0.54726   0.71677   0.90320   0.00000  Uiso   1.00
N1448  N     0.45138   0.94984   0.76480   0.00000  Uiso   1.00
O1449  O     0.43988   0.87291   0.83333   0.00000  Uiso   1.00
O1450  O     0.56012   0.79375   0.83334   0.00000  Uiso   1.00
O1451  O     0.56012   0.87291   0.83334   0.00000  Uiso   1.00
O1452  O     0.43988   0.79375   0.83333   0.00000  Uiso   1.00
O1453  O     0.50000   0.87292   0.76280   0.00000  Uiso   1.00
O1454  O     0.50000   0.79375   0.90387   0.00000  Uiso   1.00
O1455  O     0.50000   0.87292   0.90387   0.00000  Uiso   1.00
O1456  O     0.50000   0.79375   0.76280   0.00000  Uiso   1.00
C1457  C     0.75411   0.83342   0.83384   0.00000  Uiso   1.00
C1458  C     0.68798   0.87605   0.83352   0.00000  Uiso   1.00
C1459  C     0.95721   0.83381   0.83232   0.00000  Uiso   1.00
C1460  C     0.70946   0.83381   0.83435   0.00000  Uiso   1.00
C1461  C     0.80924   0.69161   0.79986   0.00000  Uiso   1.00
C1462  C     0.85708   0.97505   0.86714   0.00000  Uiso   1.00
C1463  C     0.85742   0.69161   0.86681   0.00000  Uiso   1.00
C1464  C     0.80959   0.97505   0.79953   0.00000  Uiso   1.00
C1465  C     0.74174   0.71233   0.76223   0.00000  Uiso   1.00
C1466  C     0.86963   0.95146   0.95245   0.00000  Uiso   1.00
C1467  C     0.92492   0.71233   0.90443   0.00000  Uiso   1.00
C1468  C     0.91256   0.83342   0.83283   0.00000  Uiso   1.00
C1469  C     0.79704   0.95146   0.71421   0.00000  Uiso   1.00
C1470  C     0.83328   0.83331   0.74028   0.00000  Uiso   1.00
C1471  C     0.83339   0.83331   0.92638   0.00000  Uiso   1.00
C1472  C     0.83333   0.83323   0.68853   0.00000  Uiso   1.00
C1473  C     0.83334   0.83323   0.97814   0.00000  Uiso   1.00
C1474  C     0.68789   0.79187   0.83491   0.00000  Uiso   1.00
C1475  C     0.97868   0.87605   0.83315   0.00000  Uiso   1.00
C1476  C     0.97878   0.79187   0.83176   0.00000  Uiso   1.00
Cu1477 Cu    0.83333   0.88022   0.83333   0.00000  Uiso   1.00
Cu1478 Cu    0.83333   0.78645   0.83333   0.00000  Uiso   1.00
H1479  H     0.70367   0.75900   0.83761   0.00000  Uiso   1.00
H1480  H     0.88302   0.98191   0.97193   0.00000  Uiso   1.00
H1481  H     0.88117   0.91998   0.97195   0.00000  Uiso   1.00
H1482  H     0.83558   0.95244   0.95429   0.00000  Uiso   1.00
H1483  H     0.86755   0.71864   0.93708   0.00000  Uiso   1.00
H1484  H     0.93552   0.69051   0.93597   0.00000  Uiso   1.00
H1485  H     0.93879   0.74718   0.90984   0.00000  Uiso   1.00
H1486  H     0.93592   0.69681   0.86991   0.00000  Uiso   1.00
H1487  H     0.75349   0.95246   0.76919   0.00000  Uiso   1.00
H1488  H     0.78365   0.98191   0.69473   0.00000  Uiso   1.00
H1489  H     0.78550   0.91999   0.69471   0.00000  Uiso   1.00
H1490  H     0.96267   0.90901   0.83326   0.00000  Uiso   1.00
H1491  H     0.83109   0.95244   0.71237   0.00000  Uiso   1.00
H1492  H     0.96300   0.75900   0.82905   0.00000  Uiso   1.00
H1493  H     0.70399   0.90901   0.83341   0.00000  Uiso   1.00
H1494  H     0.79912   0.71865   0.72959   0.00000  Uiso   1.00
H1495  H     0.73115   0.69050   0.73070   0.00000  Uiso   1.00
H1496  H     0.72788   0.74718   0.75682   0.00000  Uiso   1.00
H1497  H     0.73075   0.69681   0.79676   0.00000  Uiso   1.00
H1498  H     0.91317   0.95246   0.89748   0.00000  Uiso   1.00
N1499  N     0.83333   0.95069   0.83333   0.00000  Uiso   1.00
N1500  N     0.83333   0.71598   0.83333   0.00000  Uiso   1.00
N1501  N     0.78608   0.71677   0.76347   0.00000  Uiso   1.00
N1502  N     0.88195   0.94984   0.90187   0.00000  Uiso   1.00
N1503  N     0.88059   0.71677   0.90320   0.00000  Uiso   1.00
N1504  N     0.78472   0.94984   0.76480   0.00000  Uiso   1.00
O1505  O     0.77321   0.87291   0.83333   0.00000  Uiso   1.00
O1506  O     0.89345   0.79375   0.83334   0.00000  Uiso   1.00
O1507  O     0.89345   0.87291   0.83334   0.00000  Uiso   1.00
O1508  O     0.77321   0.79375   0.83333   0.00000  Uiso   1.00
O1509  O     0.83333   0.87292   0.76280   0.00000  Uiso   1.00
O1510  O     0.83333   0.79375   0.90387   0.00000  Uiso   1.00
O1511  O     0.83333   0.87292   0.90387   0.00000  Uiso   1.00
O1512  O     0.83333   0.79375   0.76280   0.00000  Uiso   1.00
loop_
_geom_bond_atom_site_label_1
_geom_bond_atom_site_label_2
_geom_bond_distance
_geom_bond_site_symmetry_2
_ccdc_geom_bond_type
C1     C4      1.453   .     S
C1     O49     1.297   .     A
C1     O52     1.301   .     A
C2     C4      1.403   .     A
C2     H37     1.083   .     S
C2     C131    1.387   1_455 S
C3     C20     1.398   .     A
C3     C19     1.403   .     A
C3     C12     1.453   .     S
C4     C18     1.398   .     A
C5     N44     1.374   .     A
C5     N45     1.422   .     S
C5     C344    1.437   1_545 S
C6     N43     1.373   .     A
C6     N46     1.422   .     S
C6     C175    1.437   .     S
C7     N44     1.374   .     A
C7     N47     1.422   .     S
C7     C342    1.437   1_545 S
C8     N48     1.422   .     S
C8     N43     1.373   .     A
C8     C173    1.437   .     S
C9     H41     1.111   .     S
C9     N45     1.447   .     S
C9     H40     1.108   .     S
C9     H39     1.109   .     S
C10    N46     1.449   .     S
C10    H26     1.111   .     S
C10    H25     1.109   .     S
C10    H24     1.106   .     S
C11    N47     1.447   .     S
C11    H28     1.109   .     S
C11    H29     1.108   .     S
C11    H30     1.111   .     S
C12    O51     1.297   .     A
C12    O50     1.301   .     A
C13    N48     1.449   .     S
C13    H33     1.109   .     S
C13    H32     1.106   .     S
C13    H35     1.111   .     S
C14    O56     1.294   .     A
C14    O53     1.295   .     A
C14    C16     1.409   .     S
C15    C17     1.409   .     S
C15    O54     1.294   .     A
C15    O55     1.295   .     A
C16    C1025   1.190   1_554 S
C17    C520    1.190   .     S
C18    H23     1.078   .     S
C18    C132    1.380   1_455 S
C19    H34     1.083   .     S
C19    C58     1.387   .     S
C20    H36     1.078   .     S
C20    C74     1.380   .     S
Cu21   O49     1.967   .     S
Cu21   N43     2.030   .     S
Cu21   O53     1.932   .     S
Cu21   O51     1.967   .     S
Cu21   O55     1.932   .     S
Cu21   Cu22    2.701   .     S
Cu22   O50     1.967   .     S
Cu22   O54     1.932   .     S
Cu22   O52     1.967   .     S
Cu22   O56     1.932   .     S
Cu22   N44     2.030   .     S
H27    N47     1.030   .     S
H31    N48     1.030   .     S
H38    N45     1.030   .     S
H42    N46     1.030   .     S
C57    C60     1.453   .     S
C57    O105    1.297   .     A
C57    O108    1.301   .     A
C58    C60     1.403   .     A
C58    H93     1.083   .     S
C59    C76     1.398   .     A
C59    C75     1.403   .     A
C59    C68     1.453   .     S
C60    C74     1.398   .     A
C61    N100    1.374   .     A
C61    N101    1.422   .     S
C61    C400    1.437   1_545 S
C62    N99     1.373   .     A
C62    N102    1.422   .     S
C62    C231    1.437   .     S
C63    N100    1.374   .     A
C63    N103    1.422   .     S
C63    C398    1.437   1_545 S
C64    N104    1.422   .     S
C64    N99     1.373   .     A
C64    C229    1.437   .     S
C65    H97     1.111   .     S
C65    N101    1.447   .     S
C65    H96     1.108   .     S
C65    H95     1.109   .     S
C66    N102    1.449   .     S
C66    H82     1.111   .     S
C66    H81     1.109   .     S
C66    H80     1.106   .     S
C67    N103    1.447   .     S
C67    H84     1.109   .     S
C67    H85     1.108   .     S
C67    H86     1.111   .     S
C68    O107    1.297   .     A
C68    O106    1.301   .     A
C69    N104    1.449   .     S
C69    H89     1.109   .     S
C69    H88     1.106   .     S
C69    H91     1.111   .     S
C70    O112    1.294   .     A
C70    O109    1.295   .     A
C70    C72     1.409   .     S
C71    C73     1.409   .     S
C71    O110    1.294   .     A
C71    O111    1.295   .     A
C72    C1081   1.190   1_554 S
C73    C576    1.190   .     S
C74    H79     1.078   .     S
C75    H90     1.083   .     S
C75    C114    1.387   .     S
C76    H92     1.078   .     S
C76    C130    1.380   .     S
Cu77   O105    1.967   .     S
Cu77   N99     2.030   .     S
Cu77   O109    1.932   .     S
Cu77   O107    1.967   .     S
Cu77   O111    1.932   .     S
Cu77   Cu78    2.701   .     S
Cu78   O106    1.967   .     S
Cu78   O110    1.932   .     S
Cu78   O108    1.967   .     S
Cu78   O112    1.932   .     S
Cu78   N100    2.030   .     S
H83    N103    1.030   .     S
H87    N104    1.030   .     S
H94    N101    1.030   .     S
H98    N102    1.030   .     S
C113   C116    1.453   .     S
C113   O161    1.297   .     A
C113   O164    1.301   .     A
C114   C116    1.403   .     A
C114   H149    1.083   .     S
C115   C132    1.398   .     A
C115   C131    1.403   .     A
C115   C124    1.453   .     S
C116   C130    1.398   .     A
C117   N156    1.374   .     A
C117   N157    1.422   .     S
C117   C456    1.437   1_545 S
C118   N155    1.373   .     A
C118   N158    1.422   .     S
C118   C287    1.437   .     S
C119   N156    1.374   .     A
C119   N159    1.422   .     S
C119   C454    1.437   1_545 S
C120   N160    1.422   .     S
C120   N155    1.373   .     A
C120   C285    1.437   .     S
C121   H153    1.111   .     S
C121   N157    1.447   .     S
C121   H152    1.108   .     S
C121   H151    1.109   .     S
C122   N158    1.449   .     S
C122   H138    1.111   .     S
C122   H137    1.109   .     S
C122   H136    1.106   .     S
C123   N159    1.447   .     S
C123   H140    1.109   .     S
C123   H141    1.108   .     S
C123   H142    1.111   .     S
C124   O163    1.297   .     A
C124   O162    1.301   .     A
C125   N160    1.449   .     S
C125   H145    1.109   .     S
C125   H144    1.106   .     S
C125   H147    1.111   .     S
C126   O168    1.294   .     A
C126   O165    1.295   .     A
C126   C128    1.409   .     S
C127   C129    1.409   .     S
C127   O166    1.294   .     A
C127   O167    1.295   .     A
C128   C1137   1.190   1_554 S
C129   C632    1.190   .     S
C130   H135    1.078   .     S
C131   H146    1.083   .     S
C131   C2      1.387   1_655 S
C132   H148    1.078   .     S
C132   C18     1.380   1_655 S
Cu133  O161    1.967   .     S
Cu133  N155    2.030   .     S
Cu133  O165    1.932   .     S
Cu133  O163    1.967   .     S
Cu133  O167    1.932   .     S
Cu133  Cu134   2.701   .     S
Cu134  O162    1.967   .     S
Cu134  O166    1.932   .     S
Cu134  O164    1.967   .     S
Cu134  O168    1.932   .     S
Cu134  N156    2.030   .     S
H139   N159    1.030   .     S
H143   N160    1.030   .     S
H150   N157    1.030   .     S
H154   N158    1.030   .     S
C169   C172    1.453   .     S
C169   O217    1.297   .     A
C169   O220    1.301   .     A
C170   C172    1.403   .     A
C170   H205    1.083   .     S
C170   C299    1.387   1_455 S
C171   C188    1.398   .     A
C171   C187    1.403   .     A
C171   C180    1.453   .     S
C172   C186    1.398   .     A
C173   N212    1.374   .     A
C173   N213    1.422   .     S
C174   N211    1.373   .     A
C174   N214    1.422   .     S
C174   C343    1.437   .     S
C175   N212    1.374   .     A
C175   N215    1.422   .     S
C176   N216    1.422   .     S
C176   N211    1.373   .     A
C176   C341    1.437   .     S
C177   H209    1.111   .     S
C177   N213    1.447   .     S
C177   H208    1.108   .     S
C177   H207    1.109   .     S
C178   N214    1.449   .     S
C178   H194    1.111   .     S
C178   H193    1.109   .     S
C178   H192    1.106   .     S
C179   N215    1.447   .     S
C179   H196    1.109   .     S
C179   H197    1.108   .     S
C179   H198    1.111   .     S
C180   O219    1.297   .     A
C180   O218    1.301   .     A
C181   N216    1.449   .     S
C181   H201    1.109   .     S
C181   H200    1.106   .     S
C181   H203    1.111   .     S
C182   O224    1.294   .     A
C182   O221    1.295   .     A
C182   C184    1.409   .     S
C183   C185    1.409   .     S
C183   O222    1.294   .     A
C183   O223    1.295   .     A
C184   C1193   1.190   1_554 S
C185   C688    1.190   .     S
C186   H191    1.078   .     S
C186   C300    1.380   1_455 S
C187   H202    1.083   .     S
C187   C226    1.387   .     S
C188   H204    1.078   .     S
C188   C242    1.380   .     S
Cu189  O217    1.967   .     S
Cu189  N211    2.030   .     S
Cu189  O221    1.932   .     S
Cu189  O219    1.967   .     S
Cu189  O223    1.932   .     S
Cu189  Cu190   2.701   .     S
Cu190  O218    1.967   .     S
Cu190  O222    1.932   .     S
Cu190  O220    1.967   .     S
Cu190  O224    1.932   .     S
Cu190  N212    2.030   .     S
H195   N215    1.030   .     S
H199   N216    1.030   .     S
H206   N213    1.030   .     S
H210   N214    1.030   .     S
C225   C228    1.453   .     S
C225   O273    1.297   .     A
C225   O276    1.301   .     A
C226   C228    1.403   .     A
C226   H261    1.083   .     S
C227   C244    1.398   .     A
C227   C243    1.403   .     A
C227   C236    1.453   .     S
C228   C242    1.398   .     A
C229   N268    1.374   .     A
C229   N269    1.422   .     S
C230   N267    1.373   .     A
C230   N270    1.422   .     S
C230   C399    1.437   .     S
C231   N268    1.374   .     A
C231   N271    1.422   .     S
C232   N272    1.422   .     S
C232   N267    1.373   .     A
C232   C397    1.437   .     S
C233   H265    1.111   .     S
C233   N269    1.447   .     S
C233   H264    1.108   .     S
C233   H263    1.109   .     S
C234   N270    1.449   .     S
C234   H250    1.111   .     S
C234   H249    1.109   .     S
C234   H248    1.106   .     S
C235   N271    1.447   .     S
C235   H252    1.109   .     S
C235   H253    1.108   .     S
C235   H254    1.111   .     S
C236   O275    1.297   .     A
C236   O274    1.301   .     A
C237   N272    1.449   .     S
C237   H257    1.109   .     S
C237   H256    1.106   .     S
C237   H259    1.111   .     S
C238   O280    1.294   .     A
C238   O277    1.295   .     A
C238   C240    1.409   .     S
C239   C241    1.409   .     S
C239   O278    1.294   .     A
C239   O279    1.295   .     A
C240   C1249   1.190   1_554 S
C241   C744    1.190   .     S
C242   H247    1.078   .     S
C243   H258    1.083   .     S
C243   C282    1.387   .     S
C244   H260    1.078   .     S
C244   C298    1.380   .     S
Cu245  O273    1.967   .     S
Cu245  N267    2.030   .     S
Cu245  O277    1.932   .     S
Cu245  O275    1.967   .     S
Cu245  O279    1.932   .     S
Cu245  Cu246   2.701   .     S
Cu246  O274    1.967   .     S
Cu246  O278    1.932   .     S
Cu246  O276    1.967   .     S
Cu246  O280    1.932   .     S
Cu246  N268    2.030   .     S
H251   N271    1.030   .     S
H255   N272    1.030   .     S
H262   N269    1.030   .     S
H266   N270    1.030   .     S
C281   C284    1.453   .     S
C281   O329    1.297   .     A
C281   O332    1.301   .     A
C282   C284    1.403   .     A
C282   H317    1.083   .     S
C283   C300    1.398   .     A
C283   C299    1.403   .     A
C283   C292    1.453   .     S
C284   C298    1.398   .     A
C285   N324    1.374   .     A
C285   N325    1.422   .     S
C286   N323    1.373   .     A
C286   N326    1.422   .     S
C286   C455    1.437   .     S
C287   N324    1.374   .     A
C287   N327    1.422   .     S
C288   N328    1.422   .     S
C288   N323    1.373   .     A
C288   C453    1.437   .     S
C289   H321    1.111   .     S
C289   N325    1.447   .     S
C289   H320    1.108   .     S
C289   H319    1.109   .     S
C290   N326    1.449   .     S
C290   H306    1.111   .     S
C290   H305    1.109   .     S
C290   H304    1.106   .     S
C291   N327    1.447   .     S
C291   H308    1.109   .     S
C291   H309    1.108   .     S
C291   H310    1.111   .     S
C292   O331    1.297   .     A
C292   O330    1.301   .     A
C293   N328    1.449   .     S
C293   H313    1.109   .     S
C293   H312    1.106   .     S
C293   H315    1.111   .     S
C294   O336    1.294   .     A
C294   O333    1.295   .     A
C294   C296    1.409   .     S
C295   C297    1.409   .     S
C295   O334    1.294   .     A
C295   O335    1.295   .     A
C296   C1305   1.190   1_554 S
C297   C800    1.190   .     S
C298   H303    1.078   .     S
C299   H314    1.083   .     S
C299   C170    1.387   1_655 S
C300   H316    1.078   .     S
C300   C186    1.380   1_655 S
Cu301  O329    1.967   .     S
Cu301  N323    2.030   .     S
Cu301  O333    1.932   .     S
Cu301  O331    1.967   .     S
Cu301  O335    1.932   .     S
Cu301  Cu302   2.701   .     S
Cu302  O330    1.967   .     S
Cu302  O334    1.932   .     S
Cu302  O332    1.967   .     S
Cu302  O336    1.932   .     S
Cu302  N324    2.030   .     S
H307   N327    1.030   .     S
H311   N328    1.030   .     S
H318   N325    1.030   .     S
H322   N326    1.030   .     S
C337   C340    1.453   .     S
C337   O385    1.297   .     A
C337   O388    1.301   .     A
C338   C340    1.403   .     A
C338   H373    1.083   .     S
C338   C467    1.387   1_455 S
C339   C356    1.398   .     A
C339   C355    1.403   .     A
C339   C348    1.453   .     S
C340   C354    1.398   .     A
C341   N380    1.374   .     A
C341   N381    1.422   .     S
C342   N379    1.373   .     A
C342   N382    1.422   .     S
C342   C7      1.437   1_565 S
C343   N380    1.374   .     A
C343   N383    1.422   .     S
C344   N384    1.422   .     S
C344   N379    1.373   .     A
C344   C5      1.437   1_565 S
C345   H377    1.111   .     S
C345   N381    1.447   .     S
C345   H376    1.108   .     S
C345   H375    1.109   .     S
C346   N382    1.449   .     S
C346   H362    1.111   .     S
C346   H361    1.109   .     S
C346   H360    1.106   .     S
C347   N383    1.447   .     S
C347   H364    1.109   .     S
C347   H365    1.108   .     S
C347   H366    1.111   .     S
C348   O387    1.297   .     A
C348   O386    1.301   .     A
C349   N384    1.449   .     S
C349   H369    1.109   .     S
C349   H368    1.106   .     S
C349   H371    1.111   .     S
C350   O392    1.294   .     A
C350   O389    1.295   .     A
C350   C352    1.409   .     S
C351   C353    1.409   .     S
C351   O390    1.294   .     A
C351   O391    1.295   .     A
C352   C1361   1.190   1_554 S
C353   C856    1.190   .     S
C354   H359    1.078   .     S
C354   C468    1.380   1_455 S
C355   H370    1.083   .     S
C355   C394    1.387   .     S
C356   H372    1.078   .     S
C356   C410    1.380   .     S
Cu357  O385    1.967   .     S
Cu357  N379    2.030   .     S
Cu357  O389    1.932   .     S
Cu357  O387    1.967   .     S
Cu357  O391    1.932   .     S
Cu357  Cu358   2.701   .     S
Cu358  O386    1.967   .     S
Cu358  O390    1.932   .     S
Cu358  O388    1.967   .     S
Cu358  O392    1.932   .     S
Cu358  N380    2.030   .     S
H363   N383    1.030   .     S
H367   N384    1.030   .     S
H374   N381    1.030   .     S
H378   N382    1.030   .     S
C393   C396    1.453   .     S
C393   O441    1.297   .     A
C393   O444    1.301   .     A
C394   C396    1.403   .     A
C394   H429    1.083   .     S
C395   C412    1.398   .     A
C395   C411    1.403   .     A
C395   C404    1.453   .     S
C396   C410    1.398   .     A
C397   N436    1.374   .     A
C397   N437    1.422   .     S
C398   N435    1.373   .     A
C398   N438    1.422   .     S
C398   C63     1.437   1_565 S
C399   N436    1.374   .     A
C399   N439    1.422   .     S
C400   N440    1.422   .     S
C400   N435    1.373   .     A
C400   C61     1.437   1_565 S
C401   H433    1.111   .     S
C401   N437    1.447   .     S
C401   H432    1.108   .     S
C401   H431    1.109   .     S
C402   N438    1.449   .     S
C402   H418    1.111   .     S
C402   H417    1.109   .     S
C402   H416    1.106   .     S
C403   N439    1.447   .     S
C403   H420    1.109   .     S
C403   H421    1.108   .     S
C403   H422    1.111   .     S
C404   O443    1.297   .     A
C404   O442    1.301   .     A
C405   N440    1.449   .     S
C405   H425    1.109   .     S
C405   H424    1.106   .     S
C405   H427    1.111   .     S
C406   O448    1.294   .     A
C406   O445    1.295   .     A
C406   C408    1.409   .     S
C407   C409    1.409   .     S
C407   O446    1.294   .     A
C407   O447    1.295   .     A
C408   C1417   1.190   1_554 S
C409   C912    1.190   .     S
C410   H415    1.078   .     S
C411   H426    1.083   .     S
C411   C450    1.387   .     S
C412   H428    1.078   .     S
C412   C466    1.380   .     S
Cu413  O441    1.967   .     S
Cu413  N435    2.030   .     S
Cu413  O445    1.932   .     S
Cu413  O443    1.967   .     S
Cu413  O447    1.932   .     S
Cu413  Cu414   2.701   .     S
Cu414  O442    1.967   .     S
Cu414  O446    1.932   .     S
Cu414  O444    1.967   .     S
Cu414  O448    1.932   .     S
Cu414  N436    2.030   .     S
H419   N439    1.030   .     S
H423   N440    1.030   .     S
H430   N437    1.030   .     S
H434   N438    1.030   .     S
C449   C452    1.453   .     S
C449   O497    1.297   .     A
C449   O500    1.301   .     A
C450   C452    1.403   .     A
C450   H485    1.083   .     S
C451   C468    1.398   .     A
C451   C467    1.403   .     A
C451   C460    1.453   .     S
C452   C466    1.398   .     A
C453   N492    1.374   .     A
C453   N493    1.422   .     S
C454   N491    1.373   .     A
C454   N494    1.422   .     S
C454   C119    1.437   1_565 S
C455   N492    1.374   .     A
C455   N495    1.422   .     S
C456   N496    1.422   .     S
C456   N491    1.373   .     A
C456   C117    1.437   1_565 S
C457   H489    1.111   .     S
C457   N493    1.447   .     S
C457   H488    1.108   .     S
C457   H487    1.109   .     S
C458   N494    1.449   .     S
C458   H474    1.111   .     S
C458   H473    1.109   .     S
C458   H472    1.106   .     S
C459   N495    1.447   .     S
C459   H476    1.109   .     S
C459   H477    1.108   .     S
C459   H478    1.111   .     S
C460   O499    1.297   .     A
C460   O498    1.301   .     A
C461   N496    1.449   .     S
C461   H481    1.109   .     S
C461   H480    1.106   .     S
C461   H483    1.111   .     S
C462   O504    1.294   .     A
C462   O501    1.295   .     A
C462   C464    1.409   .     S
C463   C465    1.409   .     S
C463   O502    1.294   .     A
C463   O503    1.295   .     A
C464   C1473   1.190   1_554 S
C465   C968    1.190   .     S
C466   H471    1.078   .     S
C467   H482    1.083   .     S
C467   C338    1.387   1_655 S
C468   H484    1.078   .     S
C468   C354    1.380   1_655 S
Cu469  O497    1.967   .     S
Cu469  N491    2.030   .     S
Cu469  O501    1.932   .     S
Cu469  O499    1.967   .     S
Cu469  O503    1.932   .     S
Cu469  Cu470   2.701   .     S
Cu470  O498    1.967   .     S
Cu470  O502    1.932   .     S
Cu470  O500    1.967   .     S
Cu470  O504    1.932   .     S
Cu470  N492    2.030   .     S
H475   N495    1.030   .     S
H479   N496    1.030   .     S
H486   N493    1.030   .     S
H490   N494    1.030   .     S
C505   C508    1.453   .     S
C505   O553    1.297   .     A
C505   O556    1.301   .     A
C506   C508    1.403   .     A
C506   H541    1.083   .     S
C506   C635    1.387   1_455 S
C507   C524    1.398   .     A
C507   C523    1.403   .     A
C507   C516    1.453   .     S
C508   C522    1.398   .     A
C509   N548    1.374   .     A
C509   N549    1.422   .     S
C509   C848    1.437   1_545 S
C510   N547    1.373   .     A
C510   N550    1.422   .     S
C510   C679    1.437   .     S
C511   N548    1.374   .     A
C511   N551    1.422   .     S
C511   C846    1.437   1_545 S
C512   N552    1.422   .     S
C512   N547    1.373   .     A
C512   C677    1.437   .     S
C513   H545    1.111   .     S
C513   N549    1.447   .     S
C513   H544    1.108   .     S
C513   H543    1.109   .     S
C514   N550    1.449   .     S
C514   H530    1.111   .     S
C514   H529    1.109   .     S
C514   H528    1.106   .     S
C515   N551    1.447   .     S
C515   H532    1.109   .     S
C515   H533    1.108   .     S
C515   H534    1.111   .     S
C516   O555    1.297   .     A
C516   O554    1.301   .     A
C517   N552    1.449   .     S
C517   H537    1.109   .     S
C517   H536    1.106   .     S
C517   H539    1.111   .     S
C518   O560    1.294   .     A
C518   O557    1.295   .     A
C518   C520    1.409   .     S
C519   C521    1.409   .     S
C519   O558    1.294   .     A
C519   O559    1.295   .     A
C521   C1024   1.190   .     S
C522   H527    1.078   .     S
C522   C636    1.380   1_455 S
C523   H538    1.083   .     S
C523   C562    1.387   .     S
C524   H540    1.078   .     S
C524   C578    1.380   .     S
Cu525  O553    1.967   .     S
Cu525  N547    2.030   .     S
Cu525  O557    1.932   .     S
Cu525  O555    1.967   .     S
Cu525  O559    1.932   .     S
Cu525  Cu526   2.701   .     S
Cu526  O554    1.967   .     S
Cu526  O558    1.932   .     S
Cu526  O556    1.967   .     S
Cu526  O560    1.932   .     S
Cu526  N548    2.030   .     S
H531   N551    1.030   .     S
H535   N552    1.030   .     S
H542   N549    1.030   .     S
H546   N550    1.030   .     S
C561   C564    1.453   .     S
C561   O609    1.297   .     A
C561   O612    1.301   .     A
C562   C564    1.403   .     A
C562   H597    1.083   .     S
C563   C580    1.398   .     A
C563   C579    1.403   .     A
C563   C572    1.453   .     S
C564   C578    1.398   .     A
C565   N604    1.374   .     A
C565   N605    1.422   .     S
C565   C904    1.437   1_545 S
C566   N603    1.373   .     A
C566   N606    1.422   .     S
C566   C735    1.437   .     S
C567   N604    1.374   .     A
C567   N607    1.422   .     S
C567   C902    1.437   1_545 S
C568   N608    1.422   .     S
C568   N603    1.373   .     A
C568   C733    1.437   .     S
C569   H601    1.111   .     S
C569   N605    1.447   .     S
C569   H600    1.108   .     S
C569   H599    1.109   .     S
C570   N606    1.449   .     S
C570   H586    1.111   .     S
C570   H585    1.109   .     S
C570   H584    1.106   .     S
C571   N607    1.447   .     S
C571   H588    1.109   .     S
C571   H589    1.108   .     S
C571   H590    1.111   .     S
C572   O611    1.297   .     A
C572   O610    1.301   .     A
C573   N608    1.449   .     S
C573   H593    1.109   .     S
C573   H592    1.106   .     S
C573   H595    1.111   .     S
C574   O616    1.294   .     A
C574   O613    1.295   .     A
C574   C576    1.409   .     S
C575   C577    1.409   .     S
C575   O614    1.294   .     A
C575   O615    1.295   .     A
C577   C1080   1.190   .     S
C578   H583    1.078   .     S
C579   H594    1.083   .     S
C579   C618    1.387   .     S
C580   H596    1.078   .     S
C580   C634    1.380   .     S
Cu581  O609    1.967   .     S
Cu581  N603    2.030   .     S
Cu581  O613    1.932   .     S
Cu581  O611    1.967   .     S
Cu581  O615    1.932   .     S
Cu581  Cu582   2.701   .     S
Cu582  O610    1.967   .     S
Cu582  O614    1.932   .     S
Cu582  O612    1.967   .     S
Cu582  O616    1.932   .     S
Cu582  N604    2.030   .     S
H587   N607    1.030   .     S
H591   N608    1.030   .     S
H598   N605    1.030   .     S
H602   N606    1.030   .     S
C617   C620    1.453   .     S
C617   O665    1.297   .     A
C617   O668    1.301   .     A
C618   C620    1.403   .     A
C618   H653    1.083   .     S
C619   C636    1.398   .     A
C619   C635    1.403   .     A
C619   C628    1.453   .     S
C620   C634    1.398   .     A
C621   N660    1.374   .     A
C621   N661    1.422   .     S
C621   C960    1.437   1_545 S
C622   N659    1.373   .     A
C622   N662    1.422   .     S
C622   C791    1.437   .     S
C623   N660    1.374   .     A
C623   N663    1.422   .     S
C623   C958    1.437   1_545 S
C624   N664    1.422   .     S
C624   N659    1.373   .     A
C624   C789    1.437   .     S
C625   H657    1.111   .     S
C625   N661    1.447   .     S
C625   H656    1.108   .     S
C625   H655    1.109   .     S
C626   N662    1.449   .     S
C626   H642    1.111   .     S
C626   H641    1.109   .     S
C626   H640    1.106   .     S
C627   N663    1.447   .     S
C627   H644    1.109   .     S
C627   H645    1.108   .     S
C627   H646    1.111   .     S
C628   O667    1.297   .     A
C628   O666    1.301   .     A
C629   N664    1.449   .     S
C629   H649    1.109   .     S
C629   H648    1.106   .     S
C629   H651    1.111   .     S
C630   O672    1.294   .     A
C630   O669    1.295   .     A
C630   C632    1.409   .     S
C631   C633    1.409   .     S
C631   O670    1.294   .     A
C631   O671    1.295   .     A
C633   C1136   1.190   .     S
C634   H639    1.078   .     S
C635   H650    1.083   .     S
C635   C506    1.387   1_655 S
C636   H652    1.078   .     S
C636   C522    1.380   1_655 S
Cu637  O665    1.967   .     S
Cu637  N659    2.030   .     S
Cu637  O669    1.932   .     S
Cu637  O667    1.967   .     S
Cu637  O671    1.932   .     S
Cu637  Cu638   2.701   .     S
Cu638  O666    1.967   .     S
Cu638  O670    1.932   .     S
Cu638  O668    1.967   .     S
Cu638  O672    1.932   .     S
Cu638  N660    2.030   .     S
H643   N663    1.030   .     S
H647   N664    1.030   .     S
H654   N661    1.030   .     S
H658   N662    1.030   .     S
C673   C676    1.453   .     S
C673   O721    1.297   .     A
C673   O724    1.301   .     A
C674   C676    1.403   .     A
C674   H709    1.083   .     S
C674   C803    1.387   1_455 S
C675   C692    1.398   .     A
C675   C691    1.403   .     A
C675   C684    1.453   .     S
C676   C690    1.398   .     A
C677   N716    1.374   .     A
C677   N717    1.422   .     S
C678   N715    1.373   .     A
C678   N718    1.422   .     S
C678   C847    1.437   .     S
C679   N716    1.374   .     A
C679   N719    1.422   .     S
C680   N720    1.422   .     S
C680   N715    1.373   .     A
C680   C845    1.437   .     S
C681   H713    1.111   .     S
C681   N717    1.447   .     S
C681   H712    1.108   .     S
C681   H711    1.109   .     S
C682   N718    1.449   .     S
C682   H698    1.111   .     S
C682   H697    1.109   .     S
C682   H696    1.106   .     S
C683   N719    1.447   .     S
C683   H700    1.109   .     S
C683   H701    1.108   .     S
C683   H702    1.111   .     S
C684   O723    1.297   .     A
C684   O722    1.301   .     A
C685   N720    1.449   .     S
C685   H705    1.109   .     S
C685   H704    1.106   .     S
C685   H707    1.111   .     S
C686   O728    1.294   .     A
C686   O725    1.295   .     A
C686   C688    1.409   .     S
C687   C689    1.409   .     S
C687   O726    1.294   .     A
C687   O727    1.295   .     A
C689   C1192   1.190   .     S
C690   H695    1.078   .     S
C690   C804    1.380   1_455 S
C691   H706    1.083   .     S
C691   C730    1.387   .     S
C692   H708    1.078   .     S
C692   C746    1.380   .     S
Cu693  O721    1.967   .     S
Cu693  N715    2.030   .     S
Cu693  O725    1.932   .     S
Cu693  O723    1.967   .     S
Cu693  O727    1.932   .     S
Cu693  Cu694   2.701   .     S
Cu694  O722    1.967   .     S
Cu694  O726    1.932   .     S
Cu694  O724    1.967   .     S
Cu694  O728    1.932   .     S
Cu694  N716    2.030   .     S
H699   N719    1.030   .     S
H703   N720    1.030   .     S
H710   N717    1.030   .     S
H714   N718    1.030   .     S
C729   C732    1.453   .     S
C729   O777    1.297   .     A
C729   O780    1.301   .     A
C730   C732    1.403   .     A
C730   H765    1.083   .     S
C731   C748    1.398   .     A
C731   C747    1.403   .     A
C731   C740    1.453   .     S
C732   C746    1.398   .     A
C733   N772    1.374   .     A
C733   N773    1.422   .     S
C734   N771    1.373   .     A
C734   N774    1.422   .     S
C734   C903    1.437   .     S
C735   N772    1.374   .     A
C735   N775    1.422   .     S
C736   N776    1.422   .     S
C736   N771    1.373   .     A
C736   C901    1.437   .     S
C737   H769    1.111   .     S
C737   N773    1.447   .     S
C737   H768    1.108   .     S
C737   H767    1.109   .     S
C738   N774    1.449   .     S
C738   H754    1.111   .     S
C738   H753    1.109   .     S
C738   H752    1.106   .     S
C739   N775    1.447   .     S
C739   H756    1.109   .     S
C739   H757    1.108   .     S
C739   H758    1.111   .     S
C740   O779    1.297   .     A
C740   O778    1.301   .     A
C741   N776    1.449   .     S
C741   H761    1.109   .     S
C741   H760    1.106   .     S
C741   H763    1.111   .     S
C742   O784    1.294   .     A
C742   O781    1.295   .     A
C742   C744    1.409   .     S
C743   C745    1.409   .     S
C743   O782    1.294   .     A
C743   O783    1.295   .     A
C745   C1248   1.190   .     S
C746   H751    1.078   .     S
C747   H762    1.083   .     S
C747   C786    1.387   .     S
C748   H764    1.078   .     S
C748   C802    1.380   .     S
Cu749  O777    1.967   .     S
Cu749  N771    2.030   .     S
Cu749  O781    1.932   .     S
Cu749  O779    1.967   .     S
Cu749  O783    1.932   .     S
Cu749  Cu750   2.701   .     S
Cu750  O778    1.967   .     S
Cu750  O782    1.932   .     S
Cu750  O780    1.967   .     S
Cu750  O784    1.932   .     S
Cu750  N772    2.030   .     S
H755   N775    1.030   .     S
H759   N776    1.030   .     S
H766   N773    1.030   .     S
H770   N774    1.030   .     S
C785   C788    1.453   .     S
C785   O833    1.297   .     A
C785   O836    1.301   .     A
C786   C788    1.403   .     A
C786   H821    1.083   .     S
C787   C804    1.398   .     A
C787   C803    1.403   .     A
C787   C796    1.453   .     S
C788   C802    1.398   .     A
C789   N828    1.374   .     A
C789   N829    1.422   .     S
C790   N827    1.373   .     A
C790   N830    1.422   .     S
C790   C959    1.437   .     S
C791   N828    1.374   .     A
C791   N831    1.422   .     S
C792   N832    1.422   .     S
C792   N827    1.373   .     A
C792   C957    1.437   .     S
C793   H825    1.111   .     S
C793   N829    1.447   .     S
C793   H824    1.108   .     S
C793   H823    1.109   .     S
C794   N830    1.449   .     S
C794   H810    1.111   .     S
C794   H809    1.109   .     S
C794   H808    1.106   .     S
C795   N831    1.447   .     S
C795   H812    1.109   .     S
C795   H813    1.108   .     S
C795   H814    1.111   .     S
C796   O835    1.297   .     A
C796   O834    1.301   .     A
C797   N832    1.449   .     S
C797   H817    1.109   .     S
C797   H816    1.106   .     S
C797   H819    1.111   .     S
C798   O840    1.294   .     A
C798   O837    1.295   .     A
C798   C800    1.409   .     S
C799   C801    1.409   .     S
C799   O838    1.294   .     A
C799   O839    1.295   .     A
C801   C1304   1.190   .     S
C802   H807    1.078   .     S
C803   H818    1.083   .     S
C803   C674    1.387   1_655 S
C804   H820    1.078   .     S
C804   C690    1.380   1_655 S
Cu805  O833    1.967   .     S
Cu805  N827    2.030   .     S
Cu805  O837    1.932   .     S
Cu805  O835    1.967   .     S
Cu805  O839    1.932   .     S
Cu805  Cu806   2.701   .     S
Cu806  O834    1.967   .     S
Cu806  O838    1.932   .     S
Cu806  O836    1.967   .     S
Cu806  O840    1.932   .     S
Cu806  N828    2.030   .     S
H811   N831    1.030   .     S
H815   N832    1.030   .     S
H822   N829    1.030   .     S
H826   N830    1.030   .     S
C841   C844    1.453   .     S
C841   O889    1.297   .     A
C841   O892    1.301   .     A
C842   C844    1.403   .     A
C842   H877    1.083   .     S
C842   C971    1.387   1_455 S
C843   C860    1.398   .     A
C843   C859    1.403   .     A
C843   C852    1.453   .     S
C844   C858    1.398   .     A
C845   N884    1.374   .     A
C845   N885    1.422   .     S
C846   N883    1.373   .     A
C846   N886    1.422   .     S
C846   C511    1.437   1_565 S
C847   N884    1.374   .     A
C847   N887    1.422   .     S
C848   N888    1.422   .     S
C848   N883    1.373   .     A
C848   C509    1.437   1_565 S
C849   H881    1.111   .     S
C849   N885    1.447   .     S
C849   H880    1.108   .     S
C849   H879    1.109   .     S
C850   N886    1.449   .     S
C850   H866    1.111   .     S
C850   H865    1.109   .     S
C850   H864    1.106   .     S
C851   N887    1.447   .     S
C851   H868    1.109   .     S
C851   H869    1.108   .     S
C851   H870    1.111   .     S
C852   O891    1.297   .     A
C852   O890    1.301   .     A
C853   N888    1.449   .     S
C853   H873    1.109   .     S
C853   H872    1.106   .     S
C853   H875    1.111   .     S
C854   O896    1.294   .     A
C854   O893    1.295   .     A
C854   C856    1.409   .     S
C855   C857    1.409   .     S
C855   O894    1.294   .     A
C855   O895    1.295   .     A
C857   C1360   1.190   .     S
C858   H863    1.078   .     S
C858   C972    1.380   1_455 S
C859   H874    1.083   .     S
C859   C898    1.387   .     S
C860   H876    1.078   .     S
C860   C914    1.380   .     S
Cu861  O889    1.967   .     S
Cu861  N883    2.030   .     S
Cu861  O893    1.932   .     S
Cu861  O891    1.967   .     S
Cu861  O895    1.932   .     S
Cu861  Cu862   2.701   .     S
Cu862  O890    1.967   .     S
Cu862  O894    1.932   .     S
Cu862  O892    1.967   .     S
Cu862  O896    1.932   .     S
Cu862  N884    2.030   .     S
H867   N887    1.030   .     S
H871   N888    1.030   .     S
H878   N885    1.030   .     S
H882   N886    1.030   .     S
C897   C900    1.453   .     S
C897   O945    1.297   .     A
C897   O948    1.301   .     A
C898   C900    1.403   .     A
C898   H933    1.083   .     S
C899   C916    1.398   .     A
C899   C915    1.403   .     A
C899   C908    1.453   .     S
C900   C914    1.398   .     A
C901   N940    1.374   .     A
C901   N941    1.422   .     S
C902   N939    1.373   .     A
C902   N942    1.422   .     S
C902   C567    1.437   1_565 S
C903   N940    1.374   .     A
C903   N943    1.422   .     S
C904   N944    1.422   .     S
C904   N939    1.373   .     A
C904   C565    1.437   1_565 S
C905   H937    1.111   .     S
C905   N941    1.447   .     S
C905   H936    1.108   .     S
C905   H935    1.109   .     S
C906   N942    1.449   .     S
C906   H922    1.111   .     S
C906   H921    1.109   .     S
C906   H920    1.106   .     S
C907   N943    1.447   .     S
C907   H924    1.109   .     S
C907   H925    1.108   .     S
C907   H926    1.111   .     S
C908   O947    1.297   .     A
C908   O946    1.301   .     A
C909   N944    1.449   .     S
C909   H929    1.109   .     S
C909   H928    1.106   .     S
C909   H931    1.111   .     S
C910   O952    1.294   .     A
C910   O949    1.295   .     A
C910   C912    1.409   .     S
C911   C913    1.409   .     S
C911   O950    1.294   .     A
C911   O951    1.295   .     A
C913   C1416   1.190   .     S
C914   H919    1.078   .     S
C915   H930    1.083   .     S
C915   C954    1.387   .     S
C916   H932    1.078   .     S
C916   C970    1.380   .     S
Cu917  O945    1.967   .     S
Cu917  N939    2.030   .     S
Cu917  O949    1.932   .     S
Cu917  O947    1.967   .     S
Cu917  O951    1.932   .     S
Cu917  Cu918   2.701   .     S
Cu918  O946    1.967   .     S
Cu918  O950    1.932   .     S
Cu918  O948    1.967   .     S
Cu918  O952    1.932   .     S
Cu918  N940    2.030   .     S
H923   N943    1.030   .     S
H927   N944    1.030   .     S
H934   N941    1.030   .     S
H938   N942    1.030   .     S
C953   C956    1.453   .     S
C953   O1001   1.297   .     A
C953   O1004   1.301   .     A
C954   C956    1.403   .     A
C954   H989    1.083   .     S
C955   C972    1.398   .     A
C955   C971    1.403   .     A
C955   C964    1.453   .     S
C956   C970    1.398   .     A
C957   N996    1.374   .     A
C957   N997    1.422   .     S
C958   N995    1.373   .     A
C958   N998    1.422   .     S
C958   C623    1.437   1_565 S
C959   N996    1.374   .     A
C959   N999    1.422   .     S
C960   N1000   1.422   .     S
C960   N995    1.373   .     A
C960   C621    1.437   1_565 S
C961   H993    1.111   .     S
C961   N997    1.447   .     S
C961   H992    1.108   .     S
C961   H991    1.109   .     S
C962   N998    1.449   .     S
C962   H978    1.111   .     S
C962   H977    1.109   .     S
C962   H976    1.106   .     S
C963   N999    1.447   .     S
C963   H980    1.109   .     S
C963   H981    1.108   .     S
C963   H982    1.111   .     S
C964   O1003   1.297   .     A
C964   O1002   1.301   .     A
C965   N1000   1.449   .     S
C965   H985    1.109   .     S
C965   H984    1.106   .     S
C965   H987    1.111   .     S
C966   O1008   1.294   .     A
C966   O1005   1.295   .     A
C966   C968    1.409   .     S
C967   C969    1.409   .     S
C967   O1006   1.294   .     A
C967   O1007   1.295   .     A
C969   C1472   1.190   .     S
C970   H975    1.078   .     S
C971   H986    1.083   .     S
C971   C842    1.387   1_655 S
C972   H988    1.078   .     S
C972   C858    1.380   1_655 S
Cu973  O1001   1.967   .     S
Cu973  N995    2.030   .     S
Cu973  O1005   1.932   .     S
Cu973  O1003   1.967   .     S
Cu973  O1007   1.932   .     S
Cu973  Cu974   2.701   .     S
Cu974  O1002   1.967   .     S
Cu974  O1006   1.932   .     S
Cu974  O1004   1.967   .     S
Cu974  O1008   1.932   .     S
Cu974  N996    2.030   .     S
H979   N999    1.030   .     S
H983   N1000   1.030   .     S
H990   N997    1.030   .     S
H994   N998    1.030   .     S
C1009  C1012   1.453   .     S
C1009  O1057   1.297   .     A
C1009  O1060   1.301   .     A
C1010  C1012   1.403   .     A
C1010  H1045   1.083   .     S
C1010  C1139   1.387   1_455 S
C1011  C1028   1.398   .     A
C1011  C1027   1.403   .     A
C1011  C1020   1.453   .     S
C1012  C1026   1.398   .     A
C1013  N1052   1.374   .     A
C1013  N1053   1.422   .     S
C1013  C1352   1.437   1_545 S
C1014  N1051   1.373   .     A
C1014  N1054   1.422   .     S
C1014  C1183   1.437   .     S
C1015  N1052   1.374   .     A
C1015  N1055   1.422   .     S
C1015  C1350   1.437   1_545 S
C1016  N1056   1.422   .     S
C1016  N1051   1.373   .     A
C1016  C1181   1.437   .     S
C1017  H1049   1.111   .     S
C1017  N1053   1.447   .     S
C1017  H1048   1.108   .     S
C1017  H1047   1.109   .     S
C1018  N1054   1.449   .     S
C1018  H1034   1.111   .     S
C1018  H1033   1.109   .     S
C1018  H1032   1.106   .     S
C1019  N1055   1.447   .     S
C1019  H1036   1.109   .     S
C1019  H1037   1.108   .     S
C1019  H1038   1.111   .     S
C1020  O1059   1.297   .     A
C1020  O1058   1.301   .     A
C1021  N1056   1.449   .     S
C1021  H1041   1.109   .     S
C1021  H1040   1.106   .     S
C1021  H1043   1.111   .     S
C1022  O1064   1.294   .     A
C1022  O1061   1.295   .     A
C1022  C1024   1.409   .     S
C1023  C1025   1.409   .     S
C1023  O1062   1.294   .     A
C1023  O1063   1.295   .     A
C1025  C16     1.190   1_556 S
C1026  H1031   1.078   .     S
C1026  C1140   1.380   1_455 S
C1027  H1042   1.083   .     S
C1027  C1066   1.387   .     S
C1028  H1044   1.078   .     S
C1028  C1082   1.380   .     S
Cu1029 O1057   1.967   .     S
Cu1029 N1051   2.030   .     S
Cu1029 O1061   1.932   .     S
Cu1029 O1059   1.967   .     S
Cu1029 O1063   1.932   .     S
Cu1029 Cu1030  2.701   .     S
Cu1030 O1058   1.967   .     S
Cu1030 O1062   1.932   .     S
Cu1030 O1060   1.967   .     S
Cu1030 O1064   1.932   .     S
Cu1030 N1052   2.030   .     S
H1035  N1055   1.030   .     S
H1039  N1056   1.030   .     S
H1046  N1053   1.030   .     S
H1050  N1054   1.030   .     S
C1065  C1068   1.453   .     S
C1065  O1113   1.297   .     A
C1065  O1116   1.301   .     A
C1066  C1068   1.403   .     A
C1066  H1101   1.083   .     S
C1067  C1084   1.398   .     A
C1067  C1083   1.403   .     A
C1067  C1076   1.453   .     S
C1068  C1082   1.398   .     A
C1069  N1108   1.374   .     A
C1069  N1109   1.422   .     S
C1069  C1408   1.437   1_545 S
C1070  N1107   1.373   .     A
C1070  N1110   1.422   .     S
C1070  C1239   1.437   .     S
C1071  N1108   1.374   .     A
C1071  N1111   1.422   .     S
C1071  C1406   1.437   1_545 S
C1072  N1112   1.422   .     S
C1072  N1107   1.373   .     A
C1072  C1237   1.437   .     S
C1073  H1105   1.111   .     S
C1073  N1109   1.447   .     S
C1073  H1104   1.108   .     S
C1073  H1103   1.109   .     S
C1074  N1110   1.449   .     S
C1074  H1090   1.111   .     S
C1074  H1089   1.109   .     S
C1074  H1088   1.106   .     S
C1075  N1111   1.447   .     S
C1075  H1092   1.109   .     S
C1075  H1093   1.108   .     S
C1075  H1094   1.111   .     S
C1076  O1115   1.297   .     A
C1076  O1114   1.301   .     A
C1077  N1112   1.449   .     S
C1077  H1097   1.109   .     S
C1077  H1096   1.106   .     S
C1077  H1099   1.111   .     S
C1078  O1120   1.294   .     A
C1078  O1117   1.295   .     A
C1078  C1080   1.409   .     S
C1079  C1081   1.409   .     S
C1079  O1118   1.294   .     A
C1079  O1119   1.295   .     A
C1081  C72     1.190   1_556 S
C1082  H1087   1.078   .     S
C1083  H1098   1.083   .     S
C1083  C1122   1.387   .     S
C1084  H1100   1.078   .     S
C1084  C1138   1.380   .     S
Cu1085 O1113   1.967   .     S
Cu1085 N1107   2.030   .     S
Cu1085 O1117   1.932   .     S
Cu1085 O1115   1.967   .     S
Cu1085 O1119   1.932   .     S
Cu1085 Cu1086  2.701   .     S
Cu1086 O1114   1.967   .     S
Cu1086 O1118   1.932   .     S
Cu1086 O1116   1.967   .     S
Cu1086 O1120   1.932   .     S
Cu1086 N1108   2.030   .     S
H1091  N1111   1.030   .     S
H1095  N1112   1.030   .     S
H1102  N1109   1.030   .     S
H1106  N1110   1.030   .     S
C1121  C1124   1.453   .     S
C1121  O1169   1.297   .     A
C1121  O1172   1.301   .     A
C1122  C1124   1.403   .     A
C1122  H1157   1.083   .     S
C1123  C1140   1.398   .     A
C1123  C1139   1.403   .     A
C1123  C1132   1.453   .     S
C1124  C1138   1.398   .     A
C1125  N1164   1.374   .     A
C1125  N1165   1.422   .     S
C1125  C1464   1.437   1_545 S
C1126  N1163   1.373   .     A
C1126  N1166   1.422   .     S
C1126  C1295   1.437   .     S
C1127  N1164   1.374   .     A
C1127  N1167   1.422   .     S
C1127  C1462   1.437   1_545 S
C1128  N1168   1.422   .     S
C1128  N1163   1.373   .     A
C1128  C1293   1.437   .     S
C1129  H1161   1.111   .     S
C1129  N1165   1.447   .     S
C1129  H1160   1.108   .     S
C1129  H1159   1.109   .     S
C1130  N1166   1.449   .     S
C1130  H1146   1.111   .     S
C1130  H1145   1.109   .     S
C1130  H1144   1.106   .     S
C1131  N1167   1.447   .     S
C1131  H1148   1.109   .     S
C1131  H1149   1.108   .     S
C1131  H1150   1.111   .     S
C1132  O1171   1.297   .     A
C1132  O1170   1.301   .     A
C1133  N1168   1.449   .     S
C1133  H1153   1.109   .     S
C1133  H1152   1.106   .     S
C1133  H1155   1.111   .     S
C1134  O1176   1.294   .     A
C1134  O1173   1.295   .     A
C1134  C1136   1.409   .     S
C1135  C1137   1.409   .     S
C1135  O1174   1.294   .     A
C1135  O1175   1.295   .     A
C1137  C128    1.190   1_556 S
C1138  H1143   1.078   .     S
C1139  H1154   1.083   .     S
C1139  C1010   1.387   1_655 S
C1140  H1156   1.078   .     S
C1140  C1026   1.380   1_655 S
Cu1141 O1169   1.967   .     S
Cu1141 N1163   2.030   .     S
Cu1141 O1173   1.932   .     S
Cu1141 O1171   1.967   .     S
Cu1141 O1175   1.932   .     S
Cu1141 Cu1142  2.701   .     S
Cu1142 O1170   1.967   .     S
Cu1142 O1174   1.932   .     S
Cu1142 O1172   1.967   .     S
Cu1142 O1176   1.932   .     S
Cu1142 N1164   2.030   .     S
H1147  N1167   1.030   .     S
H1151  N1168   1.030   .     S
H1158  N1165   1.030   .     S
H1162  N1166   1.030   .     S
C1177  C1180   1.453   .     S
C1177  O1225   1.297   .     A
C1177  O1228   1.301   .     A
C1178  C1180   1.403   .     A
C1178  H1213   1.083   .     S
C1178  C1307   1.387   1_455 S
C1179  C1196   1.398   .     A
C1179  C1195   1.403   .     A
C1179  C1188   1.453   .     S
C1180  C1194   1.398   .     A
C1181  N1220   1.374   .     A
C1181  N1221   1.422   .     S
C1182  N1219   1.373   .     A
C1182  N1222   1.422   .     S
C1182  C1351   1.437   .     S
C1183  N1220   1.374   .     A
C1183  N1223   1.422   .     S
C1184  N1224   1.422   .     S
C1184  N1219   1.373   .     A
C1184  C1349   1.437   .     S
C1185  H1217   1.111   .     S
C1185  N1221   1.447   .     S
C1185  H1216   1.108   .     S
C1185  H1215   1.109   .     S
C1186  N1222   1.449   .     S
C1186  H1202   1.111   .     S
C1186  H1201   1.109   .     S
C1186  H1200   1.106   .     S
C1187  N1223   1.447   .     S
C1187  H1204   1.109   .     S
C1187  H1205   1.108   .     S
C1187  H1206   1.111   .     S
C1188  O1227   1.297   .     A
C1188  O1226   1.301   .     A
C1189  N1224   1.449   .     S
C1189  H1209   1.109   .     S
C1189  H1208   1.106   .     S
C1189  H1211   1.111   .     S
C1190  O1232   1.294   .     A
C1190  O1229   1.295   .     A
C1190  C1192   1.409   .     S
C1191  C1193   1.409   .     S
C1191  O1230   1.294   .     A
C1191  O1231   1.295   .     A
C1193  C184    1.190   1_556 S
C1194  H1199   1.078   .     S
C1194  C1308   1.380   1_455 S
C1195  H1210   1.083   .     S
C1195  C1234   1.387   .     S
C1196  H1212   1.078   .     S
C1196  C1250   1.380   .     S
Cu1197 O1225   1.967   .     S
Cu1197 N1219   2.030   .     S
Cu1197 O1229   1.932   .     S
Cu1197 O1227   1.967   .     S
Cu1197 O1231   1.932   .     S
Cu1197 Cu1198  2.701   .     S
Cu1198 O1226   1.967   .     S
Cu1198 O1230   1.932   .     S
Cu1198 O1228   1.967   .     S
Cu1198 O1232   1.932   .     S
Cu1198 N1220   2.030   .     S
H1203  N1223   1.030   .     S
H1207  N1224   1.030   .     S
H1214  N1221   1.030   .     S
H1218  N1222   1.030   .     S
C1233  C1236   1.453   .     S
C1233  O1281   1.297   .     A
C1233  O1284   1.301   .     A
C1234  C1236   1.403   .     A
C1234  H1269   1.083   .     S
C1235  C1252   1.398   .     A
C1235  C1251   1.403   .     A
C1235  C1244   1.453   .     S
C1236  C1250   1.398   .     A
C1237  N1276   1.374   .     A
C1237  N1277   1.422   .     S
C1238  N1275   1.373   .     A
C1238  N1278   1.422   .     S
C1238  C1407   1.437   .     S
C1239  N1276   1.374   .     A
C1239  N1279   1.422   .     S
C1240  N1280   1.422   .     S
C1240  N1275   1.373   .     A
C1240  C1405   1.437   .     S
C1241  H1273   1.111   .     S
C1241  N1277   1.447   .     S
C1241  H1272   1.108   .     S
C1241  H1271   1.109   .     S
C1242  N1278   1.449   .     S
C1242  H1258   1.111   .     S
C1242  H1257   1.109   .     S
C1242  H1256   1.106   .     S
C1243  N1279   1.447   .     S
C1243  H1260   1.109   .     S
C1243  H1261   1.108   .     S
C1243  H1262   1.111   .     S
C1244  O1283   1.297   .     A
C1244  O1282   1.301   .     A
C1245  N1280   1.449   .     S
C1245  H1265   1.109   .     S
C1245  H1264   1.106   .     S
C1245  H1267   1.111   .     S
C1246  O1288   1.294   .     A
C1246  O1285   1.295   .     A
C1246  C1248   1.409   .     S
C1247  C1249   1.409   .     S
C1247  O1286   1.294   .     A
C1247  O1287   1.295   .     A
C1249  C240    1.190   1_556 S
C1250  H1255   1.078   .     S
C1251  H1266   1.083   .     S
C1251  C1290   1.387   .     S
C1252  H1268   1.078   .     S
C1252  C1306   1.380   .     S
Cu1253 O1281   1.967   .     S
Cu1253 N1275   2.030   .     S
Cu1253 O1285   1.932   .     S
Cu1253 O1283   1.967   .     S
Cu1253 O1287   1.932   .     S
Cu1253 Cu1254  2.701   .     S
Cu1254 O1282   1.967   .     S
Cu1254 O1286   1.932   .     S
Cu1254 O1284   1.967   .     S
Cu1254 O1288   1.932   .     S
Cu1254 N1276   2.030   .     S
H1259  N1279   1.030   .     S
H1263  N1280   1.030   .     S
H1270  N1277   1.030   .     S
H1274  N1278   1.030   .     S
C1289  C1292   1.453   .     S
C1289  O1337   1.297   .     A
C1289  O1340   1.301   .     A
C1290  C1292   1.403   .     A
C1290  H1325   1.083   .     S
C1291  C1308   1.398   .     A
C1291  C1307   1.403   .     A
C1291  C1300   1.453   .     S
C1292  C1306   1.398   .     A
C1293  N1332   1.374   .     A
C1293  N1333   1.422   .     S
C1294  N1331   1.373   .     A
C1294  N1334   1.422   .     S
C1294  C1463   1.437   .     S
C1295  N1332   1.374   .     A
C1295  N1335   1.422   .     S
C1296  N1336   1.422   .     S
C1296  N1331   1.373   .     A
C1296  C1461   1.437   .     S
C1297  H1329   1.111   .     S
C1297  N1333   1.447   .     S
C1297  H1328   1.108   .     S
C1297  H1327   1.109   .     S
C1298  N1334   1.449   .     S
C1298  H1314   1.111   .     S
C1298  H1313   1.109   .     S
C1298  H1312   1.106   .     S
C1299  N1335   1.447   .     S
C1299  H1316   1.109   .     S
C1299  H1317   1.108   .     S
C1299  H1318   1.111   .     S
C1300  O1339   1.297   .     A
C1300  O1338   1.301   .     A
C1301  N1336   1.449   .     S
C1301  H1321   1.109   .     S
C1301  H1320   1.106   .     S
C1301  H1323   1.111   .     S
C1302  O1344   1.294   .     A
C1302  O1341   1.295   .     A
C1302  C1304   1.409   .     S
C1303  C1305   1.409   .     S
C1303  O1342   1.294   .     A
C1303  O1343   1.295   .     A
C1305  C296    1.190   1_556 S
C1306  H1311   1.078   .     S
C1307  H1322   1.083   .     S
C1307  C1178   1.387   1_655 S
C1308  H1324   1.078   .     S
C1308  C1194   1.380   1_655 S
Cu1309 O1337   1.967   .     S
Cu1309 N1331   2.030   .     S
Cu1309 O1341   1.932   .     S
Cu1309 O1339   1.967   .     S
Cu1309 O1343   1.932   .     S
Cu1309 Cu1310  2.701   .     S
Cu1310 O1338   1.967   .     S
Cu1310 O1342   1.932   .     S
Cu1310 O1340   1.967   .     S
Cu1310 O1344   1.932   .     S
Cu1310 N1332   2.030   .     S
H1315  N1335   1.030   .     S
H1319  N1336   1.030   .     S
H1326  N1333   1.030   .     S
H1330  N1334   1.030   .     S
C1345  C1348   1.453   .     S
C1345  O1393   1.297   .     A
C1345  O1396   1.301   .     A
C1346  C1348   1.403   .     A
C1346  H1381   1.083   .     S
C1346  C1475   1.387   1_455 S
C1347  C1364   1.398   .     A
C1347  C1363   1.403   .     A
C1347  C1356   1.453   .     S
C1348  C1362   1.398   .     A
C1349  N1388   1.374   .     A
C1349  N1389   1.422   .     S
C1350  N1387   1.373   .     A
C1350  N1390   1.422   .     S
C1350  C1015   1.437   1_565 S
C1351  N1388   1.374   .     A
C1351  N1391   1.422   .     S
C1352  N1392   1.422   .     S
C1352  N1387   1.373   .     A
C1352  C1013   1.437   1_565 S
C1353  H1385   1.111   .     S
C1353  N1389   1.447   .     S
C1353  H1384   1.108   .     S
C1353  H1383   1.109   .     S
C1354  N1390   1.449   .     S
C1354  H1370   1.111   .     S
C1354  H1369   1.109   .     S
C1354  H1368   1.106   .     S
C1355  N1391   1.447   .     S
C1355  H1372   1.109   .     S
C1355  H1373   1.108   .     S
C1355  H1374   1.111   .     S
C1356  O1395   1.297   .     A
C1356  O1394   1.301   .     A
C1357  N1392   1.449   .     S
C1357  H1377   1.109   .     S
C1357  H1376   1.106   .     S
C1357  H1379   1.111   .     S
C1358  O1400   1.294   .     A
C1358  O1397   1.295   .     A
C1358  C1360   1.409   .     S
C1359  C1361   1.409   .     S
C1359  O1398   1.294   .     A
C1359  O1399   1.295   .     A
C1361  C352    1.190   1_556 S
C1362  H1367   1.078   .     S
C1362  C1476   1.380   1_455 S
C1363  H1378   1.083   .     S
C1363  C1402   1.387   .     S
C1364  H1380   1.078   .     S
C1364  C1418   1.380   .     S
Cu1365 O1393   1.967   .     S
Cu1365 N1387   2.030   .     S
Cu1365 O1397   1.932   .     S
Cu1365 O1395   1.967   .     S
Cu1365 O1399   1.932   .     S
Cu1365 Cu1366  2.701   .     S
Cu1366 O1394   1.967   .     S
Cu1366 O1398   1.932   .     S
Cu1366 O1396   1.967   .     S
Cu1366 O1400   1.932   .     S
Cu1366 N1388   2.030   .     S
H1371  N1391   1.030   .     S
H1375  N1392   1.030   .     S
H1382  N1389   1.030   .     S
H1386  N1390   1.030   .     S
C1401  C1404   1.453   .     S
C1401  O1449   1.297   .     A
C1401  O1452   1.301   .     A
C1402  C1404   1.403   .     A
C1402  H1437   1.083   .     S
C1403  C1420   1.398   .     A
C1403  C1419   1.403   .     A
C1403  C1412   1.453   .     S
C1404  C1418   1.398   .     A
C1405  N1444   1.374   .     A
C1405  N1445   1.422   .     S
C1406  N1443   1.373   .     A
C1406  N1446   1.422   .     S
C1406  C1071   1.437   1_565 S
C1407  N1444   1.374   .     A
C1407  N1447   1.422   .     S
C1408  N1448   1.422   .     S
C1408  N1443   1.373   .     A
C1408  C1069   1.437   1_565 S
C1409  H1441   1.111   .     S
C1409  N1445   1.447   .     S
C1409  H1440   1.108   .     S
C1409  H1439   1.109   .     S
C1410  N1446   1.449   .     S
C1410  H1426   1.111   .     S
C1410  H1425   1.109   .     S
C1410  H1424   1.106   .     S
C1411  N1447   1.447   .     S
C1411  H1428   1.109   .     S
C1411  H1429   1.108   .     S
C1411  H1430   1.111   .     S
C1412  O1451   1.297   .     A
C1412  O1450   1.301   .     A
C1413  N1448   1.449   .     S
C1413  H1433   1.109   .     S
C1413  H1432   1.106   .     S
C1413  H1435   1.111   .     S
C1414  O1456   1.294   .     A
C1414  O1453   1.295   .     A
C1414  C1416   1.409   .     S
C1415  C1417   1.409   .     S
C1415  O1454   1.294   .     A
C1415  O1455   1.295   .     A
C1417  C408    1.190   1_556 S
C1418  H1423   1.078   .     S
C1419  H1434   1.083   .     S
C1419  C1458   1.387   .     S
C1420  H1436   1.078   .     S
C1420  C1474   1.380   .     S
Cu1421 O1449   1.967   .     S
Cu1421 N1443   2.030   .     S
Cu1421 O1453   1.932   .     S
Cu1421 O1451   1.967   .     S
Cu1421 O1455   1.932   .     S
Cu1421 Cu1422  2.701   .     S
Cu1422 O1450   1.967   .     S
Cu1422 O1454   1.932   .     S
Cu1422 O1452   1.967   .     S
Cu1422 O1456   1.932   .     S
Cu1422 N1444   2.030   .     S
H1427  N1447   1.030   .     S
H1431  N1448   1.030   .     S
H1438  N1445   1.030   .     S
H1442  N1446   1.030   .     S
C1457  C1460   1.453   .     S
C1457  O1505   1.297   .     A
C1457  O1508   1.301   .     A
C1458  C1460   1.403   .     A
C1458  H1493   1.083   .     S
C1459  C1476   1.398   .     A
C1459  C1475   1.403   .     A
C1459  C1468   1.453   .     S
C1460  C1474   1.398   .     A
C1461  N1500   1.374   .     A
C1461  N1501   1.422   .     S
C1462  N1499   1.373   .     A
C1462  N1502   1.422   .     S
C1462  C1127   1.437   1_565 S
C1463  N1500   1.374   .     A
C1463  N1503   1.422   .     S
C1464  N1504   1.422   .     S
C1464  N1499   1.373   .     A
C1464  C1125   1.437   1_565 S
C1465  H1497   1.111   .     S
C1465  N1501   1.447   .     S
C1465  H1496   1.108   .     S
C1465  H1495   1.109   .     S
C1466  N1502   1.449   .     S
C1466  H1482   1.111   .     S
C1466  H1481   1.109   .     S
C1466  H1480   1.106   .     S
C1467  N1503   1.447   .     S
C1467  H1484   1.109   .     S
C1467  H1485   1.108   .     S
C1467  H1486   1.111   .     S
C1468  O1507   1.297   .     A
C1468  O1506   1.301   .     A
C1469  N1504   1.449   .     S
C1469  H1489   1.109   .     S
C1469  H1488   1.106   .     S
C1469  H1491   1.111   .     S
C1470  O1512   1.294   .     A
C1470  O1509   1.295   .     A
C1470  C1472   1.409   .     S
C1471  C1473   1.409   .     S
C1471  O1510   1.294   .     A
C1471  O1511   1.295   .     A
C1473  C464    1.190   1_556 S
C1474  H1479   1.078   .     S
C1475  H1490   1.083   .     S
C1475  C1346   1.387   1_655 S
C1476  H1492   1.078   .     S
C1476  C1362   1.380   1_655 S
Cu1477 O1505   1.967   .     S
Cu1477 N1499   2.030   .     S
Cu1477 O1509   1.932   .     S
Cu1477 O1507   1.967   .     S
Cu1477 O1511   1.932   .     S
Cu1477 Cu1478  2.701   .     S
Cu1478 O1506   1.967   .     S
Cu1478 O1510   1.932   .     S
Cu1478 O1508   1.967   .     S
Cu1478 O1512   1.932   .     S
Cu1478 N1500   2.030   .     S
H1483  N1503   1.030   .     S
H1487  N1504   1.030   .     S
H1494  N1501   1.030   .     S
H1498  N1502   1.030   .     S
