data_str_m2_o10_o17_pcu_sym.184
_audit_creation_date              2020-01-03
_audit_creation_method            'Materials Studio'
_symmetry_space_group_name_H-M    'P1'
_symmetry_Int_Tables_number       1
_symmetry_cell_setting            triclinic
loop_
_symmetry_equiv_pos_as_xyz
  x,y,z
_cell_length_a                    30.1351
_cell_length_b                    26.0426
_cell_length_c                    22.3987
_cell_angle_alpha                 103.0139
_cell_angle_beta                  95.1245
_cell_angle_gamma                 92.9576
loop_
_atom_site_label
_atom_site_type_symbol
_atom_site_fract_x
_atom_site_fract_y
_atom_site_fract_z
_atom_site_U_iso_or_equiv
_atom_site_adp_type
_atom_site_occupancy
C1     C     0.24863   0.06656   0.15104   0.00000  Uiso   1.00
C2     C     0.25137   0.26678   0.18229   0.00000  Uiso   1.00
C3     C     0.01314   0.12461   0.05648   0.00000  Uiso   1.00
C4     C     0.48686   0.20873   0.27685   0.00000  Uiso   1.00
C5     C     0.24798   0.01055   0.14229   0.00000  Uiso   1.00
C6     C     0.25202   0.32278   0.19104   0.00000  Uiso   1.00
C7     C     0.16432   0.16565   0.16675   0.00000  Uiso   1.00
C8     C     0.33567   0.16769   0.16658   0.00000  Uiso   1.00
C9     C     0.41200   0.18957   0.22171   0.00000  Uiso   1.00
C10    C     0.08800   0.14376   0.11163   0.00000  Uiso   1.00
C11    C     0.38415   0.16894   0.16673   0.00000  Uiso   1.00
C12    C     0.11585   0.16439   0.16660   0.00000  Uiso   1.00
C13    C     0.40257   0.14863   0.11196   0.00000  Uiso   1.00
C14    C     0.09743   0.18471   0.22137   0.00000  Uiso   1.00
C15    C     0.44867   0.14745   0.11149   0.00000  Uiso   1.00
C16    C     0.05133   0.18589   0.22185   0.00000  Uiso   1.00
C17    C     0.47676   0.16739   0.16677   0.00000  Uiso   1.00
C18    C     0.02324   0.16595   0.16656   0.00000  Uiso   1.00
C19    C     0.45840   0.18879   0.22221   0.00000  Uiso   1.00
C20    C     0.04160   0.14454   0.11112   0.00000  Uiso   1.00
C21    C     0.46708   0.12620   0.05675   0.00000  Uiso   1.00
C22    C     0.03292   0.20714   0.27659   0.00000  Uiso   1.00
Cu23   Cu    0.25500   0.17246   0.22813   0.00000  Uiso   1.00
Cu24   Cu    0.24499   0.16087   0.10521   0.00000  Uiso   1.00
H25    H     0.38082   0.13282   0.06985   0.00000  Uiso   1.00
H26    H     0.11918   0.20051   0.26348   0.00000  Uiso   1.00
N27    N     0.23744   0.15214   0.01284   0.00000  Uiso   1.00
N28    N     0.26255   0.18119   0.32049   0.00000  Uiso   1.00
O29    O     0.25325   0.09538   0.20659   0.00000  Uiso   1.00
O30    O     0.24674   0.23796   0.12674   0.00000  Uiso   1.00
O31    O     0.24480   0.08559   0.10279   0.00000  Uiso   1.00
O32    O     0.25520   0.24774   0.23055   0.00000  Uiso   1.00
O33    O     0.18935   0.17155   0.21857   0.00000  Uiso   1.00
O34    O     0.31064   0.16179   0.11476   0.00000  Uiso   1.00
O35    O     0.18090   0.16176   0.11477   0.00000  Uiso   1.00
O36    O     0.31910   0.17157   0.21857   0.00000  Uiso   1.00
F37    F     0.39390   0.21093   0.27438   0.00000  Uiso   1.00
F38    F     0.10610   0.12240   0.05895   0.00000  Uiso   1.00
F39    F     0.44046   0.10690   0.00327   0.00000  Uiso   1.00
F40    F     0.05954   0.22643   0.33007   0.00000  Uiso   1.00
F41    F     0.02958   0.10358   0.00248   0.00000  Uiso   1.00
F42    F     0.47042   0.22975   0.33086   0.00000  Uiso   1.00
H43    H     0.24419   0.31991   0.09537   0.00000  Uiso   1.00
H44    H     0.25581   0.01342   0.23796   0.00000  Uiso   1.00
F45    F     0.20775   0.11742   0.30793   0.00000  Uiso   1.00
F46    F     0.29225   0.21591   0.02540   0.00000  Uiso   1.00
C47    C     0.74863   0.06656   0.15104   0.00000  Uiso   1.00
C48    C     0.75137   0.26678   0.18229   0.00000  Uiso   1.00
C49    C     0.51314   0.12461   0.05648   0.00000  Uiso   1.00
C50    C     0.98686   0.20873   0.27685   0.00000  Uiso   1.00
C51    C     0.74798   0.01055   0.14229   0.00000  Uiso   1.00
C52    C     0.75202   0.32278   0.19104   0.00000  Uiso   1.00
C53    C     0.66432   0.16565   0.16675   0.00000  Uiso   1.00
C54    C     0.83567   0.16769   0.16658   0.00000  Uiso   1.00
C55    C     0.91200   0.18957   0.22171   0.00000  Uiso   1.00
C56    C     0.58800   0.14376   0.11163   0.00000  Uiso   1.00
C57    C     0.88415   0.16894   0.16673   0.00000  Uiso   1.00
C58    C     0.61585   0.16439   0.16660   0.00000  Uiso   1.00
C59    C     0.90257   0.14863   0.11196   0.00000  Uiso   1.00
C60    C     0.59743   0.18471   0.22137   0.00000  Uiso   1.00
C61    C     0.94867   0.14745   0.11149   0.00000  Uiso   1.00
C62    C     0.55133   0.18589   0.22185   0.00000  Uiso   1.00
C63    C     0.97676   0.16739   0.16677   0.00000  Uiso   1.00
C64    C     0.52324   0.16595   0.16656   0.00000  Uiso   1.00
C65    C     0.95840   0.18879   0.22221   0.00000  Uiso   1.00
C66    C     0.54160   0.14454   0.11112   0.00000  Uiso   1.00
C67    C     0.96708   0.12620   0.05675   0.00000  Uiso   1.00
C68    C     0.53292   0.20714   0.27659   0.00000  Uiso   1.00
Cu69   Cu    0.75500   0.17246   0.22813   0.00000  Uiso   1.00
Cu70   Cu    0.74499   0.16087   0.10521   0.00000  Uiso   1.00
H71    H     0.88082   0.13282   0.06985   0.00000  Uiso   1.00
H72    H     0.61918   0.20051   0.26348   0.00000  Uiso   1.00
N73    N     0.73744   0.15214   0.01284   0.00000  Uiso   1.00
N74    N     0.76255   0.18119   0.32049   0.00000  Uiso   1.00
O75    O     0.75325   0.09538   0.20659   0.00000  Uiso   1.00
O76    O     0.74674   0.23796   0.12674   0.00000  Uiso   1.00
O77    O     0.74480   0.08559   0.10279   0.00000  Uiso   1.00
O78    O     0.75520   0.24774   0.23055   0.00000  Uiso   1.00
O79    O     0.68935   0.17155   0.21857   0.00000  Uiso   1.00
O80    O     0.81064   0.16179   0.11476   0.00000  Uiso   1.00
O81    O     0.68090   0.16176   0.11477   0.00000  Uiso   1.00
O82    O     0.81910   0.17157   0.21857   0.00000  Uiso   1.00
F83    F     0.89390   0.21093   0.27438   0.00000  Uiso   1.00
F84    F     0.60610   0.12240   0.05895   0.00000  Uiso   1.00
F85    F     0.94046   0.10690   0.00327   0.00000  Uiso   1.00
F86    F     0.55954   0.22643   0.33007   0.00000  Uiso   1.00
F87    F     0.52958   0.10358   0.00248   0.00000  Uiso   1.00
F88    F     0.97042   0.22975   0.33086   0.00000  Uiso   1.00
H89    H     0.74419   0.31991   0.09537   0.00000  Uiso   1.00
H90    H     0.75581   0.01342   0.23796   0.00000  Uiso   1.00
F91    F     0.70775   0.11742   0.30793   0.00000  Uiso   1.00
F92    F     0.79225   0.21591   0.02540   0.00000  Uiso   1.00
C93    C     0.24863   0.39989   0.15104   0.00000  Uiso   1.00
C94    C     0.25137   0.60011   0.18229   0.00000  Uiso   1.00
C95    C     0.01314   0.45794   0.05648   0.00000  Uiso   1.00
C96    C     0.48686   0.54206   0.27685   0.00000  Uiso   1.00
C97    C     0.24798   0.34388   0.14229   0.00000  Uiso   1.00
C98    C     0.25202   0.65611   0.19104   0.00000  Uiso   1.00
C99    C     0.16432   0.49898   0.16675   0.00000  Uiso   1.00
C100   C     0.33567   0.50102   0.16658   0.00000  Uiso   1.00
C101   C     0.41200   0.52291   0.22171   0.00000  Uiso   1.00
C102   C     0.08800   0.47709   0.11163   0.00000  Uiso   1.00
C103   C     0.38415   0.50228   0.16673   0.00000  Uiso   1.00
C104   C     0.11585   0.49772   0.16660   0.00000  Uiso   1.00
C105   C     0.40257   0.48196   0.11196   0.00000  Uiso   1.00
C106   C     0.09743   0.51804   0.22137   0.00000  Uiso   1.00
C107   C     0.44867   0.48078   0.11149   0.00000  Uiso   1.00
C108   C     0.05133   0.51922   0.22185   0.00000  Uiso   1.00
C109   C     0.47676   0.50072   0.16677   0.00000  Uiso   1.00
C110   C     0.02324   0.49928   0.16656   0.00000  Uiso   1.00
C111   C     0.45840   0.52212   0.22221   0.00000  Uiso   1.00
C112   C     0.04160   0.47788   0.11112   0.00000  Uiso   1.00
C113   C     0.46708   0.45953   0.05675   0.00000  Uiso   1.00
C114   C     0.03292   0.54047   0.27659   0.00000  Uiso   1.00
Cu115  Cu    0.25500   0.50579   0.22813   0.00000  Uiso   1.00
Cu116  Cu    0.24499   0.49421   0.10521   0.00000  Uiso   1.00
H117   H     0.38082   0.46616   0.06985   0.00000  Uiso   1.00
H118   H     0.11918   0.53384   0.26348   0.00000  Uiso   1.00
N119   N     0.23744   0.48547   0.01284   0.00000  Uiso   1.00
N120   N     0.26255   0.51453   0.32049   0.00000  Uiso   1.00
O121   O     0.25325   0.42871   0.20659   0.00000  Uiso   1.00
O122   O     0.24674   0.57129   0.12674   0.00000  Uiso   1.00
O123   O     0.24480   0.41892   0.10279   0.00000  Uiso   1.00
O124   O     0.25520   0.58108   0.23055   0.00000  Uiso   1.00
O125   O     0.18935   0.50488   0.21857   0.00000  Uiso   1.00
O126   O     0.31064   0.49512   0.11476   0.00000  Uiso   1.00
O127   O     0.18090   0.49510   0.11477   0.00000  Uiso   1.00
O128   O     0.31910   0.50490   0.21857   0.00000  Uiso   1.00
F129   F     0.39390   0.54427   0.27438   0.00000  Uiso   1.00
F130   F     0.10610   0.45573   0.05895   0.00000  Uiso   1.00
F131   F     0.44046   0.44023   0.00327   0.00000  Uiso   1.00
F132   F     0.05954   0.55977   0.33007   0.00000  Uiso   1.00
F133   F     0.02958   0.43691   0.00248   0.00000  Uiso   1.00
F134   F     0.47042   0.56309   0.33086   0.00000  Uiso   1.00
H135   H     0.24419   0.65325   0.09537   0.00000  Uiso   1.00
H136   H     0.25581   0.34675   0.23796   0.00000  Uiso   1.00
F137   F     0.20775   0.45076   0.30793   0.00000  Uiso   1.00
F138   F     0.29225   0.54924   0.02540   0.00000  Uiso   1.00
C139   C     0.74863   0.39989   0.15104   0.00000  Uiso   1.00
C140   C     0.75137   0.60011   0.18229   0.00000  Uiso   1.00
C141   C     0.51314   0.45794   0.05648   0.00000  Uiso   1.00
C142   C     0.98686   0.54206   0.27685   0.00000  Uiso   1.00
C143   C     0.74798   0.34388   0.14229   0.00000  Uiso   1.00
C144   C     0.75202   0.65611   0.19104   0.00000  Uiso   1.00
C145   C     0.66432   0.49898   0.16675   0.00000  Uiso   1.00
C146   C     0.83567   0.50102   0.16658   0.00000  Uiso   1.00
C147   C     0.91200   0.52291   0.22171   0.00000  Uiso   1.00
C148   C     0.58800   0.47709   0.11163   0.00000  Uiso   1.00
C149   C     0.88415   0.50228   0.16673   0.00000  Uiso   1.00
C150   C     0.61585   0.49772   0.16660   0.00000  Uiso   1.00
C151   C     0.90257   0.48196   0.11196   0.00000  Uiso   1.00
C152   C     0.59743   0.51804   0.22137   0.00000  Uiso   1.00
C153   C     0.94867   0.48078   0.11149   0.00000  Uiso   1.00
C154   C     0.55133   0.51922   0.22185   0.00000  Uiso   1.00
C155   C     0.97676   0.50072   0.16677   0.00000  Uiso   1.00
C156   C     0.52324   0.49928   0.16656   0.00000  Uiso   1.00
C157   C     0.95840   0.52212   0.22221   0.00000  Uiso   1.00
C158   C     0.54160   0.47788   0.11112   0.00000  Uiso   1.00
C159   C     0.96708   0.45953   0.05675   0.00000  Uiso   1.00
C160   C     0.53292   0.54047   0.27659   0.00000  Uiso   1.00
Cu161  Cu    0.75500   0.50579   0.22813   0.00000  Uiso   1.00
Cu162  Cu    0.74499   0.49421   0.10521   0.00000  Uiso   1.00
H163   H     0.88082   0.46616   0.06985   0.00000  Uiso   1.00
H164   H     0.61918   0.53384   0.26348   0.00000  Uiso   1.00
N165   N     0.73744   0.48547   0.01284   0.00000  Uiso   1.00
N166   N     0.76255   0.51453   0.32049   0.00000  Uiso   1.00
O167   O     0.75325   0.42871   0.20659   0.00000  Uiso   1.00
O168   O     0.74674   0.57129   0.12674   0.00000  Uiso   1.00
O169   O     0.74480   0.41892   0.10279   0.00000  Uiso   1.00
O170   O     0.75520   0.58108   0.23055   0.00000  Uiso   1.00
O171   O     0.68935   0.50488   0.21857   0.00000  Uiso   1.00
O172   O     0.81064   0.49512   0.11476   0.00000  Uiso   1.00
O173   O     0.68090   0.49510   0.11477   0.00000  Uiso   1.00
O174   O     0.81910   0.50490   0.21857   0.00000  Uiso   1.00
F175   F     0.89390   0.54427   0.27438   0.00000  Uiso   1.00
F176   F     0.60610   0.45573   0.05895   0.00000  Uiso   1.00
F177   F     0.94046   0.44023   0.00327   0.00000  Uiso   1.00
F178   F     0.55954   0.55977   0.33007   0.00000  Uiso   1.00
F179   F     0.52958   0.43691   0.00248   0.00000  Uiso   1.00
F180   F     0.97042   0.56309   0.33086   0.00000  Uiso   1.00
H181   H     0.74419   0.65325   0.09537   0.00000  Uiso   1.00
H182   H     0.75581   0.34675   0.23796   0.00000  Uiso   1.00
F183   F     0.70775   0.45076   0.30793   0.00000  Uiso   1.00
F184   F     0.79225   0.54924   0.02540   0.00000  Uiso   1.00
C185   C     0.24863   0.73322   0.15104   0.00000  Uiso   1.00
C186   C     0.25137   0.93344   0.18229   0.00000  Uiso   1.00
C187   C     0.01314   0.79127   0.05648   0.00000  Uiso   1.00
C188   C     0.48686   0.87539   0.27685   0.00000  Uiso   1.00
C189   C     0.24798   0.67722   0.14229   0.00000  Uiso   1.00
C190   C     0.25202   0.98945   0.19104   0.00000  Uiso   1.00
C191   C     0.16432   0.83231   0.16675   0.00000  Uiso   1.00
C192   C     0.33567   0.83435   0.16658   0.00000  Uiso   1.00
C193   C     0.41200   0.85624   0.22171   0.00000  Uiso   1.00
C194   C     0.08800   0.81043   0.11163   0.00000  Uiso   1.00
C195   C     0.38415   0.83561   0.16673   0.00000  Uiso   1.00
C196   C     0.11585   0.83106   0.16660   0.00000  Uiso   1.00
C197   C     0.40257   0.81529   0.11196   0.00000  Uiso   1.00
C198   C     0.09743   0.85137   0.22137   0.00000  Uiso   1.00
C199   C     0.44867   0.81411   0.11149   0.00000  Uiso   1.00
C200   C     0.05133   0.85255   0.22185   0.00000  Uiso   1.00
C201   C     0.47676   0.83405   0.16677   0.00000  Uiso   1.00
C202   C     0.02324   0.83261   0.16656   0.00000  Uiso   1.00
C203   C     0.45840   0.85546   0.22221   0.00000  Uiso   1.00
C204   C     0.04160   0.81121   0.11112   0.00000  Uiso   1.00
C205   C     0.46708   0.79286   0.05675   0.00000  Uiso   1.00
C206   C     0.03292   0.87380   0.27659   0.00000  Uiso   1.00
Cu207  Cu    0.25500   0.83913   0.22813   0.00000  Uiso   1.00
Cu208  Cu    0.24499   0.82754   0.10521   0.00000  Uiso   1.00
H209   H     0.38082   0.79949   0.06985   0.00000  Uiso   1.00
H210   H     0.11918   0.86718   0.26348   0.00000  Uiso   1.00
N211   N     0.23744   0.81881   0.01284   0.00000  Uiso   1.00
N212   N     0.26255   0.84786   0.32049   0.00000  Uiso   1.00
O213   O     0.25325   0.76204   0.20659   0.00000  Uiso   1.00
O214   O     0.24674   0.90462   0.12674   0.00000  Uiso   1.00
O215   O     0.24480   0.75226   0.10279   0.00000  Uiso   1.00
O216   O     0.25520   0.91441   0.23055   0.00000  Uiso   1.00
O217   O     0.18935   0.83821   0.21857   0.00000  Uiso   1.00
O218   O     0.31064   0.82845   0.11476   0.00000  Uiso   1.00
O219   O     0.18090   0.82843   0.11477   0.00000  Uiso   1.00
O220   O     0.31910   0.83824   0.21857   0.00000  Uiso   1.00
F221   F     0.39390   0.87760   0.27438   0.00000  Uiso   1.00
F222   F     0.10610   0.78907   0.05895   0.00000  Uiso   1.00
F223   F     0.44046   0.77357   0.00327   0.00000  Uiso   1.00
F224   F     0.05954   0.89310   0.33007   0.00000  Uiso   1.00
F225   F     0.02958   0.77025   0.00248   0.00000  Uiso   1.00
F226   F     0.47042   0.89642   0.33086   0.00000  Uiso   1.00
H227   H     0.24419   0.98658   0.09537   0.00000  Uiso   1.00
H228   H     0.25581   0.68008   0.23796   0.00000  Uiso   1.00
F229   F     0.20775   0.78409   0.30793   0.00000  Uiso   1.00
F230   F     0.29225   0.88258   0.02540   0.00000  Uiso   1.00
C231   C     0.74863   0.73322   0.15104   0.00000  Uiso   1.00
C232   C     0.75137   0.93344   0.18229   0.00000  Uiso   1.00
C233   C     0.51314   0.79127   0.05648   0.00000  Uiso   1.00
C234   C     0.98686   0.87539   0.27685   0.00000  Uiso   1.00
C235   C     0.74798   0.67722   0.14229   0.00000  Uiso   1.00
C236   C     0.75202   0.98945   0.19104   0.00000  Uiso   1.00
C237   C     0.66432   0.83231   0.16675   0.00000  Uiso   1.00
C238   C     0.83567   0.83435   0.16658   0.00000  Uiso   1.00
C239   C     0.91200   0.85624   0.22171   0.00000  Uiso   1.00
C240   C     0.58800   0.81043   0.11163   0.00000  Uiso   1.00
C241   C     0.88415   0.83561   0.16673   0.00000  Uiso   1.00
C242   C     0.61585   0.83106   0.16660   0.00000  Uiso   1.00
C243   C     0.90257   0.81529   0.11196   0.00000  Uiso   1.00
C244   C     0.59743   0.85137   0.22137   0.00000  Uiso   1.00
C245   C     0.94867   0.81411   0.11149   0.00000  Uiso   1.00
C246   C     0.55133   0.85255   0.22185   0.00000  Uiso   1.00
C247   C     0.97676   0.83405   0.16677   0.00000  Uiso   1.00
C248   C     0.52324   0.83261   0.16656   0.00000  Uiso   1.00
C249   C     0.95840   0.85546   0.22221   0.00000  Uiso   1.00
C250   C     0.54160   0.81121   0.11112   0.00000  Uiso   1.00
C251   C     0.96708   0.79286   0.05675   0.00000  Uiso   1.00
C252   C     0.53292   0.87380   0.27659   0.00000  Uiso   1.00
Cu253  Cu    0.75500   0.83913   0.22813   0.00000  Uiso   1.00
Cu254  Cu    0.74499   0.82754   0.10521   0.00000  Uiso   1.00
H255   H     0.88082   0.79949   0.06985   0.00000  Uiso   1.00
H256   H     0.61918   0.86718   0.26348   0.00000  Uiso   1.00
N257   N     0.73744   0.81881   0.01284   0.00000  Uiso   1.00
N258   N     0.76255   0.84786   0.32049   0.00000  Uiso   1.00
O259   O     0.75325   0.76204   0.20659   0.00000  Uiso   1.00
O260   O     0.74674   0.90462   0.12674   0.00000  Uiso   1.00
O261   O     0.74480   0.75226   0.10279   0.00000  Uiso   1.00
O262   O     0.75520   0.91441   0.23055   0.00000  Uiso   1.00
O263   O     0.68935   0.83821   0.21857   0.00000  Uiso   1.00
O264   O     0.81064   0.82845   0.11476   0.00000  Uiso   1.00
O265   O     0.68090   0.82843   0.11477   0.00000  Uiso   1.00
O266   O     0.81910   0.83824   0.21857   0.00000  Uiso   1.00
F267   F     0.89390   0.87760   0.27438   0.00000  Uiso   1.00
F268   F     0.60610   0.78907   0.05895   0.00000  Uiso   1.00
F269   F     0.94046   0.77357   0.00327   0.00000  Uiso   1.00
F270   F     0.55954   0.89310   0.33007   0.00000  Uiso   1.00
F271   F     0.52958   0.77025   0.00248   0.00000  Uiso   1.00
F272   F     0.97042   0.89642   0.33086   0.00000  Uiso   1.00
H273   H     0.74419   0.98658   0.09537   0.00000  Uiso   1.00
H274   H     0.75581   0.68008   0.23796   0.00000  Uiso   1.00
F275   F     0.70775   0.78409   0.30793   0.00000  Uiso   1.00
F276   F     0.79225   0.88258   0.02540   0.00000  Uiso   1.00
C277   C     0.24863   0.06656   0.48438   0.00000  Uiso   1.00
C278   C     0.25137   0.26678   0.51562   0.00000  Uiso   1.00
C279   C     0.01314   0.12461   0.38981   0.00000  Uiso   1.00
C280   C     0.48686   0.20873   0.61019   0.00000  Uiso   1.00
C281   C     0.24798   0.01055   0.47563   0.00000  Uiso   1.00
C282   C     0.25202   0.32278   0.52437   0.00000  Uiso   1.00
C283   C     0.16432   0.16565   0.50008   0.00000  Uiso   1.00
C284   C     0.33567   0.16769   0.49992   0.00000  Uiso   1.00
C285   C     0.41200   0.18957   0.55504   0.00000  Uiso   1.00
C286   C     0.08800   0.14376   0.44496   0.00000  Uiso   1.00
C287   C     0.38415   0.16894   0.50007   0.00000  Uiso   1.00
C288   C     0.11585   0.16439   0.49993   0.00000  Uiso   1.00
C289   C     0.40257   0.14863   0.44530   0.00000  Uiso   1.00
C290   C     0.09743   0.18471   0.55470   0.00000  Uiso   1.00
C291   C     0.44867   0.14745   0.44482   0.00000  Uiso   1.00
C292   C     0.05133   0.18589   0.55518   0.00000  Uiso   1.00
C293   C     0.47676   0.16739   0.50010   0.00000  Uiso   1.00
C294   C     0.02324   0.16595   0.49990   0.00000  Uiso   1.00
C295   C     0.45840   0.18879   0.55554   0.00000  Uiso   1.00
C296   C     0.04160   0.14454   0.44446   0.00000  Uiso   1.00
C297   C     0.46708   0.12620   0.39008   0.00000  Uiso   1.00
C298   C     0.03292   0.20714   0.60992   0.00000  Uiso   1.00
Cu299  Cu    0.25500   0.17246   0.56146   0.00000  Uiso   1.00
Cu300  Cu    0.24499   0.16087   0.43854   0.00000  Uiso   1.00
H301   H     0.38082   0.13282   0.40318   0.00000  Uiso   1.00
H302   H     0.11918   0.20051   0.59681   0.00000  Uiso   1.00
N303   N     0.23744   0.15214   0.34617   0.00000  Uiso   1.00
N304   N     0.26255   0.18119   0.65383   0.00000  Uiso   1.00
O305   O     0.25325   0.09538   0.53992   0.00000  Uiso   1.00
O306   O     0.24674   0.23796   0.46008   0.00000  Uiso   1.00
O307   O     0.24480   0.08559   0.43612   0.00000  Uiso   1.00
O308   O     0.25520   0.24774   0.56388   0.00000  Uiso   1.00
O309   O     0.18935   0.17155   0.55191   0.00000  Uiso   1.00
O310   O     0.31064   0.16179   0.44809   0.00000  Uiso   1.00
O311   O     0.18090   0.16176   0.44810   0.00000  Uiso   1.00
O312   O     0.31910   0.17157   0.55190   0.00000  Uiso   1.00
F313   F     0.39390   0.21093   0.60772   0.00000  Uiso   1.00
F314   F     0.10610   0.12240   0.39228   0.00000  Uiso   1.00
F315   F     0.44046   0.10690   0.33660   0.00000  Uiso   1.00
F316   F     0.05954   0.22643   0.66340   0.00000  Uiso   1.00
F317   F     0.02958   0.10358   0.33581   0.00000  Uiso   1.00
F318   F     0.47042   0.22975   0.66419   0.00000  Uiso   1.00
H319   H     0.24419   0.31991   0.42870   0.00000  Uiso   1.00
H320   H     0.25581   0.01342   0.57130   0.00000  Uiso   1.00
F321   F     0.20775   0.11742   0.64127   0.00000  Uiso   1.00
F322   F     0.29225   0.21591   0.35873   0.00000  Uiso   1.00
C323   C     0.74863   0.06656   0.48438   0.00000  Uiso   1.00
C324   C     0.75137   0.26678   0.51562   0.00000  Uiso   1.00
C325   C     0.51314   0.12461   0.38981   0.00000  Uiso   1.00
C326   C     0.98686   0.20873   0.61019   0.00000  Uiso   1.00
C327   C     0.74798   0.01055   0.47563   0.00000  Uiso   1.00
C328   C     0.75202   0.32278   0.52437   0.00000  Uiso   1.00
C329   C     0.66432   0.16565   0.50008   0.00000  Uiso   1.00
C330   C     0.83567   0.16769   0.49992   0.00000  Uiso   1.00
C331   C     0.91200   0.18957   0.55504   0.00000  Uiso   1.00
C332   C     0.58800   0.14376   0.44496   0.00000  Uiso   1.00
C333   C     0.88415   0.16894   0.50007   0.00000  Uiso   1.00
C334   C     0.61585   0.16439   0.49993   0.00000  Uiso   1.00
C335   C     0.90257   0.14863   0.44530   0.00000  Uiso   1.00
C336   C     0.59743   0.18471   0.55470   0.00000  Uiso   1.00
C337   C     0.94867   0.14745   0.44482   0.00000  Uiso   1.00
C338   C     0.55133   0.18589   0.55518   0.00000  Uiso   1.00
C339   C     0.97676   0.16739   0.50010   0.00000  Uiso   1.00
C340   C     0.52324   0.16595   0.49990   0.00000  Uiso   1.00
C341   C     0.95840   0.18879   0.55554   0.00000  Uiso   1.00
C342   C     0.54160   0.14454   0.44446   0.00000  Uiso   1.00
C343   C     0.96708   0.12620   0.39008   0.00000  Uiso   1.00
C344   C     0.53292   0.20714   0.60992   0.00000  Uiso   1.00
Cu345  Cu    0.75500   0.17246   0.56146   0.00000  Uiso   1.00
Cu346  Cu    0.74499   0.16087   0.43854   0.00000  Uiso   1.00
H347   H     0.88082   0.13282   0.40318   0.00000  Uiso   1.00
H348   H     0.61918   0.20051   0.59681   0.00000  Uiso   1.00
N349   N     0.73744   0.15214   0.34617   0.00000  Uiso   1.00
N350   N     0.76255   0.18119   0.65383   0.00000  Uiso   1.00
O351   O     0.75325   0.09538   0.53992   0.00000  Uiso   1.00
O352   O     0.74674   0.23796   0.46008   0.00000  Uiso   1.00
O353   O     0.74480   0.08559   0.43612   0.00000  Uiso   1.00
O354   O     0.75520   0.24774   0.56388   0.00000  Uiso   1.00
O355   O     0.68935   0.17155   0.55191   0.00000  Uiso   1.00
O356   O     0.81064   0.16179   0.44809   0.00000  Uiso   1.00
O357   O     0.68090   0.16176   0.44810   0.00000  Uiso   1.00
O358   O     0.81910   0.17157   0.55190   0.00000  Uiso   1.00
F359   F     0.89390   0.21093   0.60772   0.00000  Uiso   1.00
F360   F     0.60610   0.12240   0.39228   0.00000  Uiso   1.00
F361   F     0.94046   0.10690   0.33660   0.00000  Uiso   1.00
F362   F     0.55954   0.22643   0.66340   0.00000  Uiso   1.00
F363   F     0.52958   0.10358   0.33581   0.00000  Uiso   1.00
F364   F     0.97042   0.22975   0.66419   0.00000  Uiso   1.00
H365   H     0.74419   0.31991   0.42870   0.00000  Uiso   1.00
H366   H     0.75581   0.01342   0.57130   0.00000  Uiso   1.00
F367   F     0.70775   0.11742   0.64127   0.00000  Uiso   1.00
F368   F     0.79225   0.21591   0.35873   0.00000  Uiso   1.00
C369   C     0.24863   0.39989   0.48438   0.00000  Uiso   1.00
C370   C     0.25137   0.60011   0.51562   0.00000  Uiso   1.00
C371   C     0.01314   0.45794   0.38981   0.00000  Uiso   1.00
C372   C     0.48686   0.54206   0.61019   0.00000  Uiso   1.00
C373   C     0.24798   0.34388   0.47563   0.00000  Uiso   1.00
C374   C     0.25202   0.65611   0.52437   0.00000  Uiso   1.00
C375   C     0.16432   0.49898   0.50008   0.00000  Uiso   1.00
C376   C     0.33567   0.50102   0.49992   0.00000  Uiso   1.00
C377   C     0.41200   0.52291   0.55504   0.00000  Uiso   1.00
C378   C     0.08800   0.47709   0.44496   0.00000  Uiso   1.00
C379   C     0.38415   0.50228   0.50007   0.00000  Uiso   1.00
C380   C     0.11585   0.49772   0.49993   0.00000  Uiso   1.00
C381   C     0.40257   0.48196   0.44530   0.00000  Uiso   1.00
C382   C     0.09743   0.51804   0.55470   0.00000  Uiso   1.00
C383   C     0.44867   0.48078   0.44482   0.00000  Uiso   1.00
C384   C     0.05133   0.51922   0.55518   0.00000  Uiso   1.00
C385   C     0.47676   0.50072   0.50010   0.00000  Uiso   1.00
C386   C     0.02324   0.49928   0.49990   0.00000  Uiso   1.00
C387   C     0.45840   0.52212   0.55554   0.00000  Uiso   1.00
C388   C     0.04160   0.47788   0.44446   0.00000  Uiso   1.00
C389   C     0.46708   0.45953   0.39008   0.00000  Uiso   1.00
C390   C     0.03292   0.54047   0.60992   0.00000  Uiso   1.00
Cu391  Cu    0.25500   0.50579   0.56146   0.00000  Uiso   1.00
Cu392  Cu    0.24499   0.49421   0.43854   0.00000  Uiso   1.00
H393   H     0.38082   0.46616   0.40318   0.00000  Uiso   1.00
H394   H     0.11918   0.53384   0.59681   0.00000  Uiso   1.00
N395   N     0.23744   0.48547   0.34617   0.00000  Uiso   1.00
N396   N     0.26255   0.51453   0.65383   0.00000  Uiso   1.00
O397   O     0.25325   0.42871   0.53992   0.00000  Uiso   1.00
O398   O     0.24674   0.57129   0.46008   0.00000  Uiso   1.00
O399   O     0.24480   0.41892   0.43612   0.00000  Uiso   1.00
O400   O     0.25520   0.58108   0.56388   0.00000  Uiso   1.00
O401   O     0.18935   0.50488   0.55191   0.00000  Uiso   1.00
O402   O     0.31064   0.49512   0.44809   0.00000  Uiso   1.00
O403   O     0.18090   0.49510   0.44810   0.00000  Uiso   1.00
O404   O     0.31910   0.50490   0.55190   0.00000  Uiso   1.00
F405   F     0.39390   0.54427   0.60772   0.00000  Uiso   1.00
F406   F     0.10610   0.45573   0.39228   0.00000  Uiso   1.00
F407   F     0.44046   0.44023   0.33660   0.00000  Uiso   1.00
F408   F     0.05954   0.55977   0.66340   0.00000  Uiso   1.00
F409   F     0.02958   0.43691   0.33581   0.00000  Uiso   1.00
F410   F     0.47042   0.56309   0.66419   0.00000  Uiso   1.00
H411   H     0.24419   0.65325   0.42870   0.00000  Uiso   1.00
H412   H     0.25581   0.34675   0.57130   0.00000  Uiso   1.00
F413   F     0.20775   0.45076   0.64127   0.00000  Uiso   1.00
F414   F     0.29225   0.54924   0.35873   0.00000  Uiso   1.00
C415   C     0.74863   0.39989   0.48438   0.00000  Uiso   1.00
C416   C     0.75137   0.60011   0.51562   0.00000  Uiso   1.00
C417   C     0.51314   0.45794   0.38981   0.00000  Uiso   1.00
C418   C     0.98686   0.54206   0.61019   0.00000  Uiso   1.00
C419   C     0.74798   0.34388   0.47563   0.00000  Uiso   1.00
C420   C     0.75202   0.65611   0.52437   0.00000  Uiso   1.00
C421   C     0.66432   0.49898   0.50008   0.00000  Uiso   1.00
C422   C     0.83567   0.50102   0.49992   0.00000  Uiso   1.00
C423   C     0.91200   0.52291   0.55504   0.00000  Uiso   1.00
C424   C     0.58800   0.47709   0.44496   0.00000  Uiso   1.00
C425   C     0.88415   0.50228   0.50007   0.00000  Uiso   1.00
C426   C     0.61585   0.49772   0.49993   0.00000  Uiso   1.00
C427   C     0.90257   0.48196   0.44530   0.00000  Uiso   1.00
C428   C     0.59743   0.51804   0.55470   0.00000  Uiso   1.00
C429   C     0.94867   0.48078   0.44482   0.00000  Uiso   1.00
C430   C     0.55133   0.51922   0.55518   0.00000  Uiso   1.00
C431   C     0.97676   0.50072   0.50010   0.00000  Uiso   1.00
C432   C     0.52324   0.49928   0.49990   0.00000  Uiso   1.00
C433   C     0.95840   0.52212   0.55554   0.00000  Uiso   1.00
C434   C     0.54160   0.47788   0.44446   0.00000  Uiso   1.00
C435   C     0.96708   0.45953   0.39008   0.00000  Uiso   1.00
C436   C     0.53292   0.54047   0.60992   0.00000  Uiso   1.00
Cu437  Cu    0.75500   0.50579   0.56146   0.00000  Uiso   1.00
Cu438  Cu    0.74499   0.49421   0.43854   0.00000  Uiso   1.00
H439   H     0.88082   0.46616   0.40318   0.00000  Uiso   1.00
H440   H     0.61918   0.53384   0.59681   0.00000  Uiso   1.00
N441   N     0.73744   0.48547   0.34617   0.00000  Uiso   1.00
N442   N     0.76255   0.51453   0.65383   0.00000  Uiso   1.00
O443   O     0.75325   0.42871   0.53992   0.00000  Uiso   1.00
O444   O     0.74674   0.57129   0.46008   0.00000  Uiso   1.00
O445   O     0.74480   0.41892   0.43612   0.00000  Uiso   1.00
O446   O     0.75520   0.58108   0.56388   0.00000  Uiso   1.00
O447   O     0.68935   0.50488   0.55191   0.00000  Uiso   1.00
O448   O     0.81064   0.49512   0.44809   0.00000  Uiso   1.00
O449   O     0.68090   0.49510   0.44810   0.00000  Uiso   1.00
O450   O     0.81910   0.50490   0.55190   0.00000  Uiso   1.00
F451   F     0.89390   0.54427   0.60772   0.00000  Uiso   1.00
F452   F     0.60610   0.45573   0.39228   0.00000  Uiso   1.00
F453   F     0.94046   0.44023   0.33660   0.00000  Uiso   1.00
F454   F     0.55954   0.55977   0.66340   0.00000  Uiso   1.00
F455   F     0.52958   0.43691   0.33581   0.00000  Uiso   1.00
F456   F     0.97042   0.56309   0.66419   0.00000  Uiso   1.00
H457   H     0.74419   0.65325   0.42870   0.00000  Uiso   1.00
H458   H     0.75581   0.34675   0.57130   0.00000  Uiso   1.00
F459   F     0.70775   0.45076   0.64127   0.00000  Uiso   1.00
F460   F     0.79225   0.54924   0.35873   0.00000  Uiso   1.00
C461   C     0.24863   0.73322   0.48438   0.00000  Uiso   1.00
C462   C     0.25137   0.93344   0.51562   0.00000  Uiso   1.00
C463   C     0.01314   0.79127   0.38981   0.00000  Uiso   1.00
C464   C     0.48686   0.87539   0.61019   0.00000  Uiso   1.00
C465   C     0.24798   0.67722   0.47563   0.00000  Uiso   1.00
C466   C     0.25202   0.98945   0.52437   0.00000  Uiso   1.00
C467   C     0.16432   0.83231   0.50008   0.00000  Uiso   1.00
C468   C     0.33567   0.83435   0.49992   0.00000  Uiso   1.00
C469   C     0.41200   0.85624   0.55504   0.00000  Uiso   1.00
C470   C     0.08800   0.81043   0.44496   0.00000  Uiso   1.00
C471   C     0.38415   0.83561   0.50007   0.00000  Uiso   1.00
C472   C     0.11585   0.83106   0.49993   0.00000  Uiso   1.00
C473   C     0.40257   0.81529   0.44530   0.00000  Uiso   1.00
C474   C     0.09743   0.85137   0.55470   0.00000  Uiso   1.00
C475   C     0.44867   0.81411   0.44482   0.00000  Uiso   1.00
C476   C     0.05133   0.85255   0.55518   0.00000  Uiso   1.00
C477   C     0.47676   0.83405   0.50010   0.00000  Uiso   1.00
C478   C     0.02324   0.83261   0.49990   0.00000  Uiso   1.00
C479   C     0.45840   0.85546   0.55554   0.00000  Uiso   1.00
C480   C     0.04160   0.81121   0.44446   0.00000  Uiso   1.00
C481   C     0.46708   0.79286   0.39008   0.00000  Uiso   1.00
C482   C     0.03292   0.87380   0.60992   0.00000  Uiso   1.00
Cu483  Cu    0.25500   0.83913   0.56146   0.00000  Uiso   1.00
Cu484  Cu    0.24499   0.82754   0.43854   0.00000  Uiso   1.00
H485   H     0.38082   0.79949   0.40318   0.00000  Uiso   1.00
H486   H     0.11918   0.86718   0.59681   0.00000  Uiso   1.00
N487   N     0.23744   0.81881   0.34617   0.00000  Uiso   1.00
N488   N     0.26255   0.84786   0.65383   0.00000  Uiso   1.00
O489   O     0.25325   0.76204   0.53992   0.00000  Uiso   1.00
O490   O     0.24674   0.90462   0.46008   0.00000  Uiso   1.00
O491   O     0.24480   0.75226   0.43612   0.00000  Uiso   1.00
O492   O     0.25520   0.91441   0.56388   0.00000  Uiso   1.00
O493   O     0.18935   0.83821   0.55191   0.00000  Uiso   1.00
O494   O     0.31064   0.82845   0.44809   0.00000  Uiso   1.00
O495   O     0.18090   0.82843   0.44810   0.00000  Uiso   1.00
O496   O     0.31910   0.83824   0.55190   0.00000  Uiso   1.00
F497   F     0.39390   0.87760   0.60772   0.00000  Uiso   1.00
F498   F     0.10610   0.78907   0.39228   0.00000  Uiso   1.00
F499   F     0.44046   0.77357   0.33660   0.00000  Uiso   1.00
F500   F     0.05954   0.89310   0.66340   0.00000  Uiso   1.00
F501   F     0.02958   0.77025   0.33581   0.00000  Uiso   1.00
F502   F     0.47042   0.89642   0.66419   0.00000  Uiso   1.00
H503   H     0.24419   0.98658   0.42870   0.00000  Uiso   1.00
H504   H     0.25581   0.68008   0.57130   0.00000  Uiso   1.00
F505   F     0.20775   0.78409   0.64127   0.00000  Uiso   1.00
F506   F     0.29225   0.88258   0.35873   0.00000  Uiso   1.00
C507   C     0.74863   0.73322   0.48438   0.00000  Uiso   1.00
C508   C     0.75137   0.93344   0.51562   0.00000  Uiso   1.00
C509   C     0.51314   0.79127   0.38981   0.00000  Uiso   1.00
C510   C     0.98686   0.87539   0.61019   0.00000  Uiso   1.00
C511   C     0.74798   0.67722   0.47563   0.00000  Uiso   1.00
C512   C     0.75202   0.98945   0.52437   0.00000  Uiso   1.00
C513   C     0.66432   0.83231   0.50008   0.00000  Uiso   1.00
C514   C     0.83567   0.83435   0.49992   0.00000  Uiso   1.00
C515   C     0.91200   0.85624   0.55504   0.00000  Uiso   1.00
C516   C     0.58800   0.81043   0.44496   0.00000  Uiso   1.00
C517   C     0.88415   0.83561   0.50007   0.00000  Uiso   1.00
C518   C     0.61585   0.83106   0.49993   0.00000  Uiso   1.00
C519   C     0.90257   0.81529   0.44530   0.00000  Uiso   1.00
C520   C     0.59743   0.85137   0.55470   0.00000  Uiso   1.00
C521   C     0.94867   0.81411   0.44482   0.00000  Uiso   1.00
C522   C     0.55133   0.85255   0.55518   0.00000  Uiso   1.00
C523   C     0.97676   0.83405   0.50010   0.00000  Uiso   1.00
C524   C     0.52324   0.83261   0.49990   0.00000  Uiso   1.00
C525   C     0.95840   0.85546   0.55554   0.00000  Uiso   1.00
C526   C     0.54160   0.81121   0.44446   0.00000  Uiso   1.00
C527   C     0.96708   0.79286   0.39008   0.00000  Uiso   1.00
C528   C     0.53292   0.87380   0.60992   0.00000  Uiso   1.00
Cu529  Cu    0.75500   0.83913   0.56146   0.00000  Uiso   1.00
Cu530  Cu    0.74499   0.82754   0.43854   0.00000  Uiso   1.00
H531   H     0.88082   0.79949   0.40318   0.00000  Uiso   1.00
H532   H     0.61918   0.86718   0.59681   0.00000  Uiso   1.00
N533   N     0.73744   0.81881   0.34617   0.00000  Uiso   1.00
N534   N     0.76255   0.84786   0.65383   0.00000  Uiso   1.00
O535   O     0.75325   0.76204   0.53992   0.00000  Uiso   1.00
O536   O     0.74674   0.90462   0.46008   0.00000  Uiso   1.00
O537   O     0.74480   0.75226   0.43612   0.00000  Uiso   1.00
O538   O     0.75520   0.91441   0.56388   0.00000  Uiso   1.00
O539   O     0.68935   0.83821   0.55191   0.00000  Uiso   1.00
O540   O     0.81064   0.82845   0.44809   0.00000  Uiso   1.00
O541   O     0.68090   0.82843   0.44810   0.00000  Uiso   1.00
O542   O     0.81910   0.83824   0.55190   0.00000  Uiso   1.00
F543   F     0.89390   0.87760   0.60772   0.00000  Uiso   1.00
F544   F     0.60610   0.78907   0.39228   0.00000  Uiso   1.00
F545   F     0.94046   0.77357   0.33660   0.00000  Uiso   1.00
F546   F     0.55954   0.89310   0.66340   0.00000  Uiso   1.00
F547   F     0.52958   0.77025   0.33581   0.00000  Uiso   1.00
F548   F     0.97042   0.89642   0.66419   0.00000  Uiso   1.00
H549   H     0.74419   0.98658   0.42870   0.00000  Uiso   1.00
H550   H     0.75581   0.68008   0.57130   0.00000  Uiso   1.00
F551   F     0.70775   0.78409   0.64127   0.00000  Uiso   1.00
F552   F     0.79225   0.88258   0.35873   0.00000  Uiso   1.00
C553   C     0.24863   0.06656   0.81771   0.00000  Uiso   1.00
C554   C     0.25137   0.26678   0.84895   0.00000  Uiso   1.00
C555   C     0.01314   0.12461   0.72315   0.00000  Uiso   1.00
C556   C     0.48686   0.20873   0.94352   0.00000  Uiso   1.00
C557   C     0.24798   0.01055   0.80896   0.00000  Uiso   1.00
C558   C     0.25202   0.32278   0.85771   0.00000  Uiso   1.00
C559   C     0.16432   0.16565   0.83342   0.00000  Uiso   1.00
C560   C     0.33567   0.16769   0.83325   0.00000  Uiso   1.00
C561   C     0.41200   0.18957   0.88837   0.00000  Uiso   1.00
C562   C     0.08800   0.14376   0.77829   0.00000  Uiso   1.00
C563   C     0.38415   0.16894   0.83340   0.00000  Uiso   1.00
C564   C     0.11585   0.16439   0.83326   0.00000  Uiso   1.00
C565   C     0.40257   0.14863   0.77863   0.00000  Uiso   1.00
C566   C     0.09743   0.18471   0.88804   0.00000  Uiso   1.00
C567   C     0.44867   0.14745   0.77815   0.00000  Uiso   1.00
C568   C     0.05133   0.18589   0.88851   0.00000  Uiso   1.00
C569   C     0.47676   0.16739   0.83344   0.00000  Uiso   1.00
C570   C     0.02324   0.16595   0.83323   0.00000  Uiso   1.00
C571   C     0.45840   0.18879   0.88888   0.00000  Uiso   1.00
C572   C     0.04160   0.14454   0.77779   0.00000  Uiso   1.00
C573   C     0.46708   0.12620   0.72341   0.00000  Uiso   1.00
C574   C     0.03292   0.20714   0.94325   0.00000  Uiso   1.00
Cu575  Cu    0.25500   0.17246   0.89479   0.00000  Uiso   1.00
Cu576  Cu    0.24499   0.16087   0.77187   0.00000  Uiso   1.00
H577   H     0.38082   0.13282   0.73652   0.00000  Uiso   1.00
H578   H     0.11918   0.20051   0.93015   0.00000  Uiso   1.00
N579   N     0.23744   0.15214   0.67951   0.00000  Uiso   1.00
N580   N     0.26255   0.18119   0.98716   0.00000  Uiso   1.00
O581   O     0.25325   0.09538   0.87326   0.00000  Uiso   1.00
O582   O     0.24674   0.23796   0.79341   0.00000  Uiso   1.00
O583   O     0.24480   0.08559   0.76945   0.00000  Uiso   1.00
O584   O     0.25520   0.24774   0.89721   0.00000  Uiso   1.00
O585   O     0.18935   0.17155   0.88524   0.00000  Uiso   1.00
O586   O     0.31064   0.16179   0.78143   0.00000  Uiso   1.00
O587   O     0.18090   0.16176   0.78143   0.00000  Uiso   1.00
O588   O     0.31910   0.17157   0.88523   0.00000  Uiso   1.00
F589   F     0.39390   0.21093   0.94105   0.00000  Uiso   1.00
F590   F     0.10610   0.12240   0.72562   0.00000  Uiso   1.00
F591   F     0.44046   0.10690   0.66993   0.00000  Uiso   1.00
F592   F     0.05954   0.22643   0.99673   0.00000  Uiso   1.00
F593   F     0.02958   0.10358   0.66914   0.00000  Uiso   1.00
F594   F     0.47042   0.22975   0.99752   0.00000  Uiso   1.00
H595   H     0.24419   0.31991   0.76204   0.00000  Uiso   1.00
H596   H     0.25581   0.01342   0.90463   0.00000  Uiso   1.00
F597   F     0.20775   0.11742   0.97460   0.00000  Uiso   1.00
F598   F     0.29225   0.21591   0.69207   0.00000  Uiso   1.00
C599   C     0.74863   0.06656   0.81771   0.00000  Uiso   1.00
C600   C     0.75137   0.26678   0.84895   0.00000  Uiso   1.00
C601   C     0.51314   0.12461   0.72315   0.00000  Uiso   1.00
C602   C     0.98686   0.20873   0.94352   0.00000  Uiso   1.00
C603   C     0.74798   0.01055   0.80896   0.00000  Uiso   1.00
C604   C     0.75202   0.32278   0.85771   0.00000  Uiso   1.00
C605   C     0.66432   0.16565   0.83342   0.00000  Uiso   1.00
C606   C     0.83567   0.16769   0.83325   0.00000  Uiso   1.00
C607   C     0.91200   0.18957   0.88837   0.00000  Uiso   1.00
C608   C     0.58800   0.14376   0.77829   0.00000  Uiso   1.00
C609   C     0.88415   0.16894   0.83340   0.00000  Uiso   1.00
C610   C     0.61585   0.16439   0.83326   0.00000  Uiso   1.00
C611   C     0.90257   0.14863   0.77863   0.00000  Uiso   1.00
C612   C     0.59743   0.18471   0.88804   0.00000  Uiso   1.00
C613   C     0.94867   0.14745   0.77815   0.00000  Uiso   1.00
C614   C     0.55133   0.18589   0.88851   0.00000  Uiso   1.00
C615   C     0.97676   0.16739   0.83344   0.00000  Uiso   1.00
C616   C     0.52324   0.16595   0.83323   0.00000  Uiso   1.00
C617   C     0.95840   0.18879   0.88888   0.00000  Uiso   1.00
C618   C     0.54160   0.14454   0.77779   0.00000  Uiso   1.00
C619   C     0.96708   0.12620   0.72341   0.00000  Uiso   1.00
C620   C     0.53292   0.20714   0.94325   0.00000  Uiso   1.00
Cu621  Cu    0.75500   0.17246   0.89479   0.00000  Uiso   1.00
Cu622  Cu    0.74499   0.16087   0.77187   0.00000  Uiso   1.00
H623   H     0.88082   0.13282   0.73652   0.00000  Uiso   1.00
H624   H     0.61918   0.20051   0.93015   0.00000  Uiso   1.00
N625   N     0.73744   0.15214   0.67951   0.00000  Uiso   1.00
N626   N     0.76255   0.18119   0.98716   0.00000  Uiso   1.00
O627   O     0.75325   0.09538   0.87326   0.00000  Uiso   1.00
O628   O     0.74674   0.23796   0.79341   0.00000  Uiso   1.00
O629   O     0.74480   0.08559   0.76945   0.00000  Uiso   1.00
O630   O     0.75520   0.24774   0.89721   0.00000  Uiso   1.00
O631   O     0.68935   0.17155   0.88524   0.00000  Uiso   1.00
O632   O     0.81064   0.16179   0.78143   0.00000  Uiso   1.00
O633   O     0.68090   0.16176   0.78143   0.00000  Uiso   1.00
O634   O     0.81910   0.17157   0.88523   0.00000  Uiso   1.00
F635   F     0.89390   0.21093   0.94105   0.00000  Uiso   1.00
F636   F     0.60610   0.12240   0.72562   0.00000  Uiso   1.00
F637   F     0.94046   0.10690   0.66993   0.00000  Uiso   1.00
F638   F     0.55954   0.22643   0.99673   0.00000  Uiso   1.00
F639   F     0.52958   0.10358   0.66914   0.00000  Uiso   1.00
F640   F     0.97042   0.22975   0.99752   0.00000  Uiso   1.00
H641   H     0.74419   0.31991   0.76204   0.00000  Uiso   1.00
H642   H     0.75581   0.01342   0.90463   0.00000  Uiso   1.00
F643   F     0.70775   0.11742   0.97460   0.00000  Uiso   1.00
F644   F     0.79225   0.21591   0.69207   0.00000  Uiso   1.00
C645   C     0.24863   0.39989   0.81771   0.00000  Uiso   1.00
C646   C     0.25137   0.60011   0.84895   0.00000  Uiso   1.00
C647   C     0.01314   0.45794   0.72315   0.00000  Uiso   1.00
C648   C     0.48686   0.54206   0.94352   0.00000  Uiso   1.00
C649   C     0.24798   0.34388   0.80896   0.00000  Uiso   1.00
C650   C     0.25202   0.65611   0.85771   0.00000  Uiso   1.00
C651   C     0.16432   0.49898   0.83342   0.00000  Uiso   1.00
C652   C     0.33567   0.50102   0.83325   0.00000  Uiso   1.00
C653   C     0.41200   0.52291   0.88837   0.00000  Uiso   1.00
C654   C     0.08800   0.47709   0.77829   0.00000  Uiso   1.00
C655   C     0.38415   0.50228   0.83340   0.00000  Uiso   1.00
C656   C     0.11585   0.49772   0.83326   0.00000  Uiso   1.00
C657   C     0.40257   0.48196   0.77863   0.00000  Uiso   1.00
C658   C     0.09743   0.51804   0.88804   0.00000  Uiso   1.00
C659   C     0.44867   0.48078   0.77815   0.00000  Uiso   1.00
C660   C     0.05133   0.51922   0.88851   0.00000  Uiso   1.00
C661   C     0.47676   0.50072   0.83344   0.00000  Uiso   1.00
C662   C     0.02324   0.49928   0.83323   0.00000  Uiso   1.00
C663   C     0.45840   0.52212   0.88888   0.00000  Uiso   1.00
C664   C     0.04160   0.47788   0.77779   0.00000  Uiso   1.00
C665   C     0.46708   0.45953   0.72341   0.00000  Uiso   1.00
C666   C     0.03292   0.54047   0.94325   0.00000  Uiso   1.00
Cu667  Cu    0.25500   0.50579   0.89479   0.00000  Uiso   1.00
Cu668  Cu    0.24499   0.49421   0.77187   0.00000  Uiso   1.00
H669   H     0.38082   0.46616   0.73652   0.00000  Uiso   1.00
H670   H     0.11918   0.53384   0.93015   0.00000  Uiso   1.00
N671   N     0.23744   0.48547   0.67951   0.00000  Uiso   1.00
N672   N     0.26255   0.51453   0.98716   0.00000  Uiso   1.00
O673   O     0.25325   0.42871   0.87326   0.00000  Uiso   1.00
O674   O     0.24674   0.57129   0.79341   0.00000  Uiso   1.00
O675   O     0.24480   0.41892   0.76945   0.00000  Uiso   1.00
O676   O     0.25520   0.58108   0.89721   0.00000  Uiso   1.00
O677   O     0.18935   0.50488   0.88524   0.00000  Uiso   1.00
O678   O     0.31064   0.49512   0.78143   0.00000  Uiso   1.00
O679   O     0.18090   0.49510   0.78143   0.00000  Uiso   1.00
O680   O     0.31910   0.50490   0.88523   0.00000  Uiso   1.00
F681   F     0.39390   0.54427   0.94105   0.00000  Uiso   1.00
F682   F     0.10610   0.45573   0.72562   0.00000  Uiso   1.00
F683   F     0.44046   0.44023   0.66993   0.00000  Uiso   1.00
F684   F     0.05954   0.55977   0.99673   0.00000  Uiso   1.00
F685   F     0.02958   0.43691   0.66914   0.00000  Uiso   1.00
F686   F     0.47042   0.56309   0.99752   0.00000  Uiso   1.00
H687   H     0.24419   0.65325   0.76204   0.00000  Uiso   1.00
H688   H     0.25581   0.34675   0.90463   0.00000  Uiso   1.00
F689   F     0.20775   0.45076   0.97460   0.00000  Uiso   1.00
F690   F     0.29225   0.54924   0.69207   0.00000  Uiso   1.00
C691   C     0.74863   0.39989   0.81771   0.00000  Uiso   1.00
C692   C     0.75137   0.60011   0.84895   0.00000  Uiso   1.00
C693   C     0.51314   0.45794   0.72315   0.00000  Uiso   1.00
C694   C     0.98686   0.54206   0.94352   0.00000  Uiso   1.00
C695   C     0.74798   0.34388   0.80896   0.00000  Uiso   1.00
C696   C     0.75202   0.65611   0.85771   0.00000  Uiso   1.00
C697   C     0.66432   0.49898   0.83342   0.00000  Uiso   1.00
C698   C     0.83567   0.50102   0.83325   0.00000  Uiso   1.00
C699   C     0.91200   0.52291   0.88837   0.00000  Uiso   1.00
C700   C     0.58800   0.47709   0.77829   0.00000  Uiso   1.00
C701   C     0.88415   0.50228   0.83340   0.00000  Uiso   1.00
C702   C     0.61585   0.49772   0.83326   0.00000  Uiso   1.00
C703   C     0.90257   0.48196   0.77863   0.00000  Uiso   1.00
C704   C     0.59743   0.51804   0.88804   0.00000  Uiso   1.00
C705   C     0.94867   0.48078   0.77815   0.00000  Uiso   1.00
C706   C     0.55133   0.51922   0.88851   0.00000  Uiso   1.00
C707   C     0.97676   0.50072   0.83344   0.00000  Uiso   1.00
C708   C     0.52324   0.49928   0.83323   0.00000  Uiso   1.00
C709   C     0.95840   0.52212   0.88888   0.00000  Uiso   1.00
C710   C     0.54160   0.47788   0.77779   0.00000  Uiso   1.00
C711   C     0.96708   0.45953   0.72341   0.00000  Uiso   1.00
C712   C     0.53292   0.54047   0.94325   0.00000  Uiso   1.00
Cu713  Cu    0.75500   0.50579   0.89479   0.00000  Uiso   1.00
Cu714  Cu    0.74499   0.49421   0.77187   0.00000  Uiso   1.00
H715   H     0.88082   0.46616   0.73652   0.00000  Uiso   1.00
H716   H     0.61918   0.53384   0.93015   0.00000  Uiso   1.00
N717   N     0.73744   0.48547   0.67951   0.00000  Uiso   1.00
N718   N     0.76255   0.51453   0.98716   0.00000  Uiso   1.00
O719   O     0.75325   0.42871   0.87326   0.00000  Uiso   1.00
O720   O     0.74674   0.57129   0.79341   0.00000  Uiso   1.00
O721   O     0.74480   0.41892   0.76945   0.00000  Uiso   1.00
O722   O     0.75520   0.58108   0.89721   0.00000  Uiso   1.00
O723   O     0.68935   0.50488   0.88524   0.00000  Uiso   1.00
O724   O     0.81064   0.49512   0.78143   0.00000  Uiso   1.00
O725   O     0.68090   0.49510   0.78143   0.00000  Uiso   1.00
O726   O     0.81910   0.50490   0.88523   0.00000  Uiso   1.00
F727   F     0.89390   0.54427   0.94105   0.00000  Uiso   1.00
F728   F     0.60610   0.45573   0.72562   0.00000  Uiso   1.00
F729   F     0.94046   0.44023   0.66993   0.00000  Uiso   1.00
F730   F     0.55954   0.55977   0.99673   0.00000  Uiso   1.00
F731   F     0.52958   0.43691   0.66914   0.00000  Uiso   1.00
F732   F     0.97042   0.56309   0.99752   0.00000  Uiso   1.00
H733   H     0.74419   0.65325   0.76204   0.00000  Uiso   1.00
H734   H     0.75581   0.34675   0.90463   0.00000  Uiso   1.00
F735   F     0.70775   0.45076   0.97460   0.00000  Uiso   1.00
F736   F     0.79225   0.54924   0.69207   0.00000  Uiso   1.00
C737   C     0.24863   0.73322   0.81771   0.00000  Uiso   1.00
C738   C     0.25137   0.93344   0.84895   0.00000  Uiso   1.00
C739   C     0.01314   0.79127   0.72315   0.00000  Uiso   1.00
C740   C     0.48686   0.87539   0.94352   0.00000  Uiso   1.00
C741   C     0.24798   0.67722   0.80896   0.00000  Uiso   1.00
C742   C     0.25202   0.98945   0.85771   0.00000  Uiso   1.00
C743   C     0.16432   0.83231   0.83342   0.00000  Uiso   1.00
C744   C     0.33567   0.83435   0.83325   0.00000  Uiso   1.00
C745   C     0.41200   0.85624   0.88837   0.00000  Uiso   1.00
C746   C     0.08800   0.81043   0.77829   0.00000  Uiso   1.00
C747   C     0.38415   0.83561   0.83340   0.00000  Uiso   1.00
C748   C     0.11585   0.83106   0.83326   0.00000  Uiso   1.00
C749   C     0.40257   0.81529   0.77863   0.00000  Uiso   1.00
C750   C     0.09743   0.85137   0.88804   0.00000  Uiso   1.00
C751   C     0.44867   0.81411   0.77815   0.00000  Uiso   1.00
C752   C     0.05133   0.85255   0.88851   0.00000  Uiso   1.00
C753   C     0.47676   0.83405   0.83344   0.00000  Uiso   1.00
C754   C     0.02324   0.83261   0.83323   0.00000  Uiso   1.00
C755   C     0.45840   0.85546   0.88888   0.00000  Uiso   1.00
C756   C     0.04160   0.81121   0.77779   0.00000  Uiso   1.00
C757   C     0.46708   0.79286   0.72341   0.00000  Uiso   1.00
C758   C     0.03292   0.87380   0.94325   0.00000  Uiso   1.00
Cu759  Cu    0.25500   0.83913   0.89479   0.00000  Uiso   1.00
Cu760  Cu    0.24499   0.82754   0.77187   0.00000  Uiso   1.00
H761   H     0.38082   0.79949   0.73652   0.00000  Uiso   1.00
H762   H     0.11918   0.86718   0.93015   0.00000  Uiso   1.00
N763   N     0.23744   0.81881   0.67951   0.00000  Uiso   1.00
N764   N     0.26255   0.84786   0.98716   0.00000  Uiso   1.00
O765   O     0.25325   0.76204   0.87326   0.00000  Uiso   1.00
O766   O     0.24674   0.90462   0.79341   0.00000  Uiso   1.00
O767   O     0.24480   0.75226   0.76945   0.00000  Uiso   1.00
O768   O     0.25520   0.91441   0.89721   0.00000  Uiso   1.00
O769   O     0.18935   0.83821   0.88524   0.00000  Uiso   1.00
O770   O     0.31064   0.82845   0.78143   0.00000  Uiso   1.00
O771   O     0.18090   0.82843   0.78143   0.00000  Uiso   1.00
O772   O     0.31910   0.83824   0.88523   0.00000  Uiso   1.00
F773   F     0.39390   0.87760   0.94105   0.00000  Uiso   1.00
F774   F     0.10610   0.78907   0.72562   0.00000  Uiso   1.00
F775   F     0.44046   0.77357   0.66993   0.00000  Uiso   1.00
F776   F     0.05954   0.89310   0.99673   0.00000  Uiso   1.00
F777   F     0.02958   0.77025   0.66914   0.00000  Uiso   1.00
F778   F     0.47042   0.89642   0.99752   0.00000  Uiso   1.00
H779   H     0.24419   0.98658   0.76204   0.00000  Uiso   1.00
H780   H     0.25581   0.68008   0.90463   0.00000  Uiso   1.00
F781   F     0.20775   0.78409   0.97460   0.00000  Uiso   1.00
F782   F     0.29225   0.88258   0.69207   0.00000  Uiso   1.00
C783   C     0.74863   0.73322   0.81771   0.00000  Uiso   1.00
C784   C     0.75137   0.93344   0.84895   0.00000  Uiso   1.00
C785   C     0.51314   0.79127   0.72315   0.00000  Uiso   1.00
C786   C     0.98686   0.87539   0.94352   0.00000  Uiso   1.00
C787   C     0.74798   0.67722   0.80896   0.00000  Uiso   1.00
C788   C     0.75202   0.98945   0.85771   0.00000  Uiso   1.00
C789   C     0.66432   0.83231   0.83342   0.00000  Uiso   1.00
C790   C     0.83567   0.83435   0.83325   0.00000  Uiso   1.00
C791   C     0.91200   0.85624   0.88837   0.00000  Uiso   1.00
C792   C     0.58800   0.81043   0.77829   0.00000  Uiso   1.00
C793   C     0.88415   0.83561   0.83340   0.00000  Uiso   1.00
C794   C     0.61585   0.83106   0.83326   0.00000  Uiso   1.00
C795   C     0.90257   0.81529   0.77863   0.00000  Uiso   1.00
C796   C     0.59743   0.85137   0.88804   0.00000  Uiso   1.00
C797   C     0.94867   0.81411   0.77815   0.00000  Uiso   1.00
C798   C     0.55133   0.85255   0.88851   0.00000  Uiso   1.00
C799   C     0.97676   0.83405   0.83344   0.00000  Uiso   1.00
C800   C     0.52324   0.83261   0.83323   0.00000  Uiso   1.00
C801   C     0.95840   0.85546   0.88888   0.00000  Uiso   1.00
C802   C     0.54160   0.81121   0.77779   0.00000  Uiso   1.00
C803   C     0.96708   0.79286   0.72341   0.00000  Uiso   1.00
C804   C     0.53292   0.87380   0.94325   0.00000  Uiso   1.00
Cu805  Cu    0.75500   0.83913   0.89479   0.00000  Uiso   1.00
Cu806  Cu    0.74499   0.82754   0.77187   0.00000  Uiso   1.00
H807   H     0.88082   0.79949   0.73652   0.00000  Uiso   1.00
H808   H     0.61918   0.86718   0.93015   0.00000  Uiso   1.00
N809   N     0.73744   0.81881   0.67951   0.00000  Uiso   1.00
N810   N     0.76255   0.84786   0.98716   0.00000  Uiso   1.00
O811   O     0.75325   0.76204   0.87326   0.00000  Uiso   1.00
O812   O     0.74674   0.90462   0.79341   0.00000  Uiso   1.00
O813   O     0.74480   0.75226   0.76945   0.00000  Uiso   1.00
O814   O     0.75520   0.91441   0.89721   0.00000  Uiso   1.00
O815   O     0.68935   0.83821   0.88524   0.00000  Uiso   1.00
O816   O     0.81064   0.82845   0.78143   0.00000  Uiso   1.00
O817   O     0.68090   0.82843   0.78143   0.00000  Uiso   1.00
O818   O     0.81910   0.83824   0.88523   0.00000  Uiso   1.00
F819   F     0.89390   0.87760   0.94105   0.00000  Uiso   1.00
F820   F     0.60610   0.78907   0.72562   0.00000  Uiso   1.00
F821   F     0.94046   0.77357   0.66993   0.00000  Uiso   1.00
F822   F     0.55954   0.89310   0.99673   0.00000  Uiso   1.00
F823   F     0.52958   0.77025   0.66914   0.00000  Uiso   1.00
F824   F     0.97042   0.89642   0.99752   0.00000  Uiso   1.00
H825   H     0.74419   0.98658   0.76204   0.00000  Uiso   1.00
H826   H     0.75581   0.68008   0.90463   0.00000  Uiso   1.00
F827   F     0.70775   0.78409   0.97460   0.00000  Uiso   1.00
F828   F     0.79225   0.88258   0.69207   0.00000  Uiso   1.00
loop_
_geom_bond_atom_site_label_1
_geom_bond_atom_site_label_2
_geom_bond_distance
_geom_bond_site_symmetry_2
_ccdc_geom_bond_type
C1     O31     1.285   .     A
C1     O29     1.292   .     A
C1     C5      1.426   .     S
C2     O30     1.292   .     A
C2     C6      1.426   .     S
C2     O32     1.285   .     A
C3     C20     1.408   .     A
C3     F41     1.358   .     S
C3     C67     1.391   1_455 S
C4     F42     1.358   .     S
C4     C19     1.408   .     A
C4     C68     1.391   .     S
C5     C190    1.328   1_545 S
C5     H227    1.088   1_545 S
C6     C97     1.328   .     S
C6     H136    1.088   .     S
C7     C12     1.459   .     S
C7     O33     1.300   .     A
C7     O35     1.293   .     A
C8     O34     1.300   .     A
C8     C11     1.459   .     S
C8     O36     1.293   .     A
C9     F37     1.360   .     S
C9     C11     1.407   .     A
C9     C19     1.398   .     A
C10    F38     1.360   .     S
C10    C12     1.407   .     A
C10    C20     1.398   .     A
C11    C13     1.397   .     A
C12    C14     1.397   .     A
C13    C15     1.392   .     A
C13    H25     1.084   .     S
C14    H26     1.084   .     S
C14    C16     1.392   .     A
C15    C21     1.402   .     A
C15    C17     1.413   .     A
C16    C22     1.402   .     A
C16    C18     1.413   .     A
C17    C19     1.415   .     A
C17    C64     1.404   .     S
C18    C20     1.415   .     A
C18    C63     1.404   1_455 S
C21    F39     1.359   .     S
C21    C49     1.391   .     S
C22    F40     1.359   .     S
C22    C50     1.391   1_455 S
Cu23   Cu24    2.689   .     S
Cu23   O32     1.949   .     S
Cu23   N28     2.021   .     S
Cu23   O29     1.953   .     S
Cu23   O36     1.963   .     S
Cu23   O33     1.969   .     S
Cu24   N27     2.021   .     S
Cu24   O31     1.949   .     S
Cu24   O35     1.963   .     S
Cu24   O30     1.953   .     S
Cu24   O34     1.969   .     S
N27    N580    1.300   1_554 S
N27    F597    1.335   1_554 S
N28    N303    1.300   .     S
N28    F322    1.335   .     S
H43    C97     1.088   .     S
H44    C190    1.088   1_545 S
F45    N303    1.335   .     S
F46    N580    1.335   1_554 S
C47    O77     1.285   .     A
C47    O75     1.292   .     A
C47    C51     1.426   .     S
C48    O76     1.292   .     A
C48    C52     1.426   .     S
C48    O78     1.285   .     A
C49    C66     1.408   .     A
C49    F87     1.358   .     S
C50    F88     1.358   .     S
C50    C65     1.408   .     A
C50    C22     1.391   1_655 S
C51    C236    1.328   1_545 S
C51    H273    1.088   1_545 S
C52    C143    1.328   .     S
C52    H182    1.088   .     S
C53    C58     1.459   .     S
C53    O79     1.300   .     A
C53    O81     1.293   .     A
C54    O80     1.300   .     A
C54    C57     1.459   .     S
C54    O82     1.293   .     A
C55    F83     1.360   .     S
C55    C57     1.407   .     A
C55    C65     1.398   .     A
C56    F84     1.360   .     S
C56    C58     1.407   .     A
C56    C66     1.398   .     A
C57    C59     1.397   .     A
C58    C60     1.397   .     A
C59    C61     1.392   .     A
C59    H71     1.084   .     S
C60    H72     1.084   .     S
C60    C62     1.392   .     A
C61    C67     1.402   .     A
C61    C63     1.413   .     A
C62    C68     1.402   .     A
C62    C64     1.413   .     A
C63    C65     1.415   .     A
C63    C18     1.404   1_655 S
C64    C66     1.415   .     A
C67    F85     1.359   .     S
C67    C3      1.391   1_655 S
C68    F86     1.359   .     S
Cu69   Cu70    2.689   .     S
Cu69   O78     1.949   .     S
Cu69   N74     2.021   .     S
Cu69   O75     1.953   .     S
Cu69   O82     1.963   .     S
Cu69   O79     1.969   .     S
Cu70   N73     2.021   .     S
Cu70   O77     1.949   .     S
Cu70   O81     1.963   .     S
Cu70   O76     1.953   .     S
Cu70   O80     1.969   .     S
N73    N626    1.300   1_554 S
N73    F643    1.335   1_554 S
N74    N349    1.300   .     S
N74    F368    1.335   .     S
H89    C143    1.088   .     S
H90    C236    1.088   1_545 S
F91    N349    1.335   .     S
F92    N626    1.335   1_554 S
C93    O123    1.285   .     A
C93    O121    1.292   .     A
C93    C97     1.426   .     S
C94    O122    1.292   .     A
C94    C98     1.426   .     S
C94    O124    1.285   .     A
C95    C112    1.408   .     A
C95    F133    1.358   .     S
C95    C159    1.391   1_455 S
C96    F134    1.358   .     S
C96    C111    1.408   .     A
C96    C160    1.391   .     S
C98    C189    1.328   .     S
C98    H228    1.088   .     S
C99    C104    1.459   .     S
C99    O125    1.300   .     A
C99    O127    1.293   .     A
C100   O126    1.300   .     A
C100   C103    1.459   .     S
C100   O128    1.293   .     A
C101   F129    1.360   .     S
C101   C103    1.407   .     A
C101   C111    1.398   .     A
C102   F130    1.360   .     S
C102   C104    1.407   .     A
C102   C112    1.398   .     A
C103   C105    1.397   .     A
C104   C106    1.397   .     A
C105   C107    1.392   .     A
C105   H117    1.084   .     S
C106   H118    1.084   .     S
C106   C108    1.392   .     A
C107   C113    1.402   .     A
C107   C109    1.413   .     A
C108   C114    1.402   .     A
C108   C110    1.413   .     A
C109   C111    1.415   .     A
C109   C156    1.404   .     S
C110   C112    1.415   .     A
C110   C155    1.404   1_455 S
C113   F131    1.359   .     S
C113   C141    1.391   .     S
C114   F132    1.359   .     S
C114   C142    1.391   1_455 S
Cu115  Cu116   2.689   .     S
Cu115  O124    1.949   .     S
Cu115  N120    2.021   .     S
Cu115  O121    1.953   .     S
Cu115  O128    1.963   .     S
Cu115  O125    1.969   .     S
Cu116  N119    2.021   .     S
Cu116  O123    1.949   .     S
Cu116  O127    1.963   .     S
Cu116  O122    1.953   .     S
Cu116  O126    1.969   .     S
N119   N672    1.300   1_554 S
N119   F689    1.335   1_554 S
N120   N395    1.300   .     S
N120   F414    1.335   .     S
H135   C189    1.088   .     S
F137   N395    1.335   .     S
F138   N672    1.335   1_554 S
C139   O169    1.285   .     A
C139   O167    1.292   .     A
C139   C143    1.426   .     S
C140   O168    1.292   .     A
C140   C144    1.426   .     S
C140   O170    1.285   .     A
C141   C158    1.408   .     A
C141   F179    1.358   .     S
C142   F180    1.358   .     S
C142   C157    1.408   .     A
C142   C114    1.391   1_655 S
C144   C235    1.328   .     S
C144   H274    1.088   .     S
C145   C150    1.459   .     S
C145   O171    1.300   .     A
C145   O173    1.293   .     A
C146   O172    1.300   .     A
C146   C149    1.459   .     S
C146   O174    1.293   .     A
C147   F175    1.360   .     S
C147   C149    1.407   .     A
C147   C157    1.398   .     A
C148   F176    1.360   .     S
C148   C150    1.407   .     A
C148   C158    1.398   .     A
C149   C151    1.397   .     A
C150   C152    1.397   .     A
C151   C153    1.392   .     A
C151   H163    1.084   .     S
C152   H164    1.084   .     S
C152   C154    1.392   .     A
C153   C159    1.402   .     A
C153   C155    1.413   .     A
C154   C160    1.402   .     A
C154   C156    1.413   .     A
C155   C157    1.415   .     A
C155   C110    1.404   1_655 S
C156   C158    1.415   .     A
C159   F177    1.359   .     S
C159   C95     1.391   1_655 S
C160   F178    1.359   .     S
Cu161  Cu162   2.689   .     S
Cu161  O170    1.949   .     S
Cu161  N166    2.021   .     S
Cu161  O167    1.953   .     S
Cu161  O174    1.963   .     S
Cu161  O171    1.969   .     S
Cu162  N165    2.021   .     S
Cu162  O169    1.949   .     S
Cu162  O173    1.963   .     S
Cu162  O168    1.953   .     S
Cu162  O172    1.969   .     S
N165   N718    1.300   1_554 S
N165   F735    1.335   1_554 S
N166   N441    1.300   .     S
N166   F460    1.335   .     S
H181   C235    1.088   .     S
F183   N441    1.335   .     S
F184   N718    1.335   1_554 S
C185   O215    1.285   .     A
C185   O213    1.292   .     A
C185   C189    1.426   .     S
C186   O214    1.292   .     A
C186   C190    1.426   .     S
C186   O216    1.285   .     A
C187   C204    1.408   .     A
C187   F225    1.358   .     S
C187   C251    1.391   1_455 S
C188   F226    1.358   .     S
C188   C203    1.408   .     A
C188   C252    1.391   .     S
C190   C5      1.328   1_565 S
C190   H44     1.088   1_565 S
C191   C196    1.459   .     S
C191   O217    1.300   .     A
C191   O219    1.293   .     A
C192   O218    1.300   .     A
C192   C195    1.459   .     S
C192   O220    1.293   .     A
C193   F221    1.360   .     S
C193   C195    1.407   .     A
C193   C203    1.398   .     A
C194   F222    1.360   .     S
C194   C196    1.407   .     A
C194   C204    1.398   .     A
C195   C197    1.397   .     A
C196   C198    1.397   .     A
C197   C199    1.392   .     A
C197   H209    1.084   .     S
C198   H210    1.084   .     S
C198   C200    1.392   .     A
C199   C205    1.402   .     A
C199   C201    1.413   .     A
C200   C206    1.402   .     A
C200   C202    1.413   .     A
C201   C203    1.415   .     A
C201   C248    1.404   .     S
C202   C204    1.415   .     A
C202   C247    1.404   1_455 S
C205   F223    1.359   .     S
C205   C233    1.391   .     S
C206   F224    1.359   .     S
C206   C234    1.391   1_455 S
Cu207  Cu208   2.689   .     S
Cu207  O216    1.949   .     S
Cu207  N212    2.021   .     S
Cu207  O213    1.953   .     S
Cu207  O220    1.963   .     S
Cu207  O217    1.969   .     S
Cu208  N211    2.021   .     S
Cu208  O215    1.949   .     S
Cu208  O219    1.963   .     S
Cu208  O214    1.953   .     S
Cu208  O218    1.969   .     S
N211   N764    1.300   1_554 S
N211   F781    1.335   1_554 S
N212   N487    1.300   .     S
N212   F506    1.335   .     S
H227   C5      1.088   1_565 S
F229   N487    1.335   .     S
F230   N764    1.335   1_554 S
C231   O261    1.285   .     A
C231   O259    1.292   .     A
C231   C235    1.426   .     S
C232   O260    1.292   .     A
C232   C236    1.426   .     S
C232   O262    1.285   .     A
C233   C250    1.408   .     A
C233   F271    1.358   .     S
C234   F272    1.358   .     S
C234   C249    1.408   .     A
C234   C206    1.391   1_655 S
C236   C51     1.328   1_565 S
C236   H90     1.088   1_565 S
C237   C242    1.459   .     S
C237   O263    1.300   .     A
C237   O265    1.293   .     A
C238   O264    1.300   .     A
C238   C241    1.459   .     S
C238   O266    1.293   .     A
C239   F267    1.360   .     S
C239   C241    1.407   .     A
C239   C249    1.398   .     A
C240   F268    1.360   .     S
C240   C242    1.407   .     A
C240   C250    1.398   .     A
C241   C243    1.397   .     A
C242   C244    1.397   .     A
C243   C245    1.392   .     A
C243   H255    1.084   .     S
C244   H256    1.084   .     S
C244   C246    1.392   .     A
C245   C251    1.402   .     A
C245   C247    1.413   .     A
C246   C252    1.402   .     A
C246   C248    1.413   .     A
C247   C249    1.415   .     A
C247   C202    1.404   1_655 S
C248   C250    1.415   .     A
C251   F269    1.359   .     S
C251   C187    1.391   1_655 S
C252   F270    1.359   .     S
Cu253  Cu254   2.689   .     S
Cu253  O262    1.949   .     S
Cu253  N258    2.021   .     S
Cu253  O259    1.953   .     S
Cu253  O266    1.963   .     S
Cu253  O263    1.969   .     S
Cu254  N257    2.021   .     S
Cu254  O261    1.949   .     S
Cu254  O265    1.963   .     S
Cu254  O260    1.953   .     S
Cu254  O264    1.969   .     S
N257   N810    1.300   1_554 S
N257   F827    1.335   1_554 S
N258   N533    1.300   .     S
N258   F552    1.335   .     S
H273   C51     1.088   1_565 S
F275   N533    1.335   .     S
F276   N810    1.335   1_554 S
C277   O307    1.285   .     A
C277   O305    1.292   .     A
C277   C281    1.426   .     S
C278   O306    1.292   .     A
C278   C282    1.426   .     S
C278   O308    1.285   .     A
C279   C296    1.408   .     A
C279   F317    1.358   .     S
C279   C343    1.391   1_455 S
C280   F318    1.358   .     S
C280   C295    1.408   .     A
C280   C344    1.391   .     S
C281   C466    1.328   1_545 S
C281   H503    1.088   1_545 S
C282   C373    1.328   .     S
C282   H412    1.088   .     S
C283   C288    1.459   .     S
C283   O309    1.300   .     A
C283   O311    1.293   .     A
C284   O310    1.300   .     A
C284   C287    1.459   .     S
C284   O312    1.293   .     A
C285   F313    1.360   .     S
C285   C287    1.407   .     A
C285   C295    1.398   .     A
C286   F314    1.360   .     S
C286   C288    1.407   .     A
C286   C296    1.398   .     A
C287   C289    1.397   .     A
C288   C290    1.397   .     A
C289   C291    1.392   .     A
C289   H301    1.084   .     S
C290   H302    1.084   .     S
C290   C292    1.392   .     A
C291   C297    1.402   .     A
C291   C293    1.413   .     A
C292   C298    1.402   .     A
C292   C294    1.413   .     A
C293   C295    1.415   .     A
C293   C340    1.404   .     S
C294   C296    1.415   .     A
C294   C339    1.404   1_455 S
C297   F315    1.359   .     S
C297   C325    1.391   .     S
C298   F316    1.359   .     S
C298   C326    1.391   1_455 S
Cu299  Cu300   2.689   .     S
Cu299  O308    1.949   .     S
Cu299  N304    2.021   .     S
Cu299  O305    1.953   .     S
Cu299  O312    1.963   .     S
Cu299  O309    1.969   .     S
Cu300  N303    2.021   .     S
Cu300  O307    1.949   .     S
Cu300  O311    1.963   .     S
Cu300  O306    1.953   .     S
Cu300  O310    1.969   .     S
N304   N579    1.300   .     S
N304   F598    1.335   .     S
H319   C373    1.088   .     S
H320   C466    1.088   1_545 S
F321   N579    1.335   .     S
C323   O353    1.285   .     A
C323   O351    1.292   .     A
C323   C327    1.426   .     S
C324   O352    1.292   .     A
C324   C328    1.426   .     S
C324   O354    1.285   .     A
C325   C342    1.408   .     A
C325   F363    1.358   .     S
C326   F364    1.358   .     S
C326   C341    1.408   .     A
C326   C298    1.391   1_655 S
C327   C512    1.328   1_545 S
C327   H549    1.088   1_545 S
C328   C419    1.328   .     S
C328   H458    1.088   .     S
C329   C334    1.459   .     S
C329   O355    1.300   .     A
C329   O357    1.293   .     A
C330   O356    1.300   .     A
C330   C333    1.459   .     S
C330   O358    1.293   .     A
C331   F359    1.360   .     S
C331   C333    1.407   .     A
C331   C341    1.398   .     A
C332   F360    1.360   .     S
C332   C334    1.407   .     A
C332   C342    1.398   .     A
C333   C335    1.397   .     A
C334   C336    1.397   .     A
C335   C337    1.392   .     A
C335   H347    1.084   .     S
C336   H348    1.084   .     S
C336   C338    1.392   .     A
C337   C343    1.402   .     A
C337   C339    1.413   .     A
C338   C344    1.402   .     A
C338   C340    1.413   .     A
C339   C341    1.415   .     A
C339   C294    1.404   1_655 S
C340   C342    1.415   .     A
C343   F361    1.359   .     S
C343   C279    1.391   1_655 S
C344   F362    1.359   .     S
Cu345  Cu346   2.689   .     S
Cu345  O354    1.949   .     S
Cu345  N350    2.021   .     S
Cu345  O351    1.953   .     S
Cu345  O358    1.963   .     S
Cu345  O355    1.969   .     S
Cu346  N349    2.021   .     S
Cu346  O353    1.949   .     S
Cu346  O357    1.963   .     S
Cu346  O352    1.953   .     S
Cu346  O356    1.969   .     S
N350   N625    1.300   .     S
N350   F644    1.335   .     S
H365   C419    1.088   .     S
H366   C512    1.088   1_545 S
F367   N625    1.335   .     S
C369   O399    1.285   .     A
C369   O397    1.292   .     A
C369   C373    1.426   .     S
C370   O398    1.292   .     A
C370   C374    1.426   .     S
C370   O400    1.285   .     A
C371   C388    1.408   .     A
C371   F409    1.358   .     S
C371   C435    1.391   1_455 S
C372   F410    1.358   .     S
C372   C387    1.408   .     A
C372   C436    1.391   .     S
C374   C465    1.328   .     S
C374   H504    1.088   .     S
C375   C380    1.459   .     S
C375   O401    1.300   .     A
C375   O403    1.293   .     A
C376   O402    1.300   .     A
C376   C379    1.459   .     S
C376   O404    1.293   .     A
C377   F405    1.360   .     S
C377   C379    1.407   .     A
C377   C387    1.398   .     A
C378   F406    1.360   .     S
C378   C380    1.407   .     A
C378   C388    1.398   .     A
C379   C381    1.397   .     A
C380   C382    1.397   .     A
C381   C383    1.392   .     A
C381   H393    1.084   .     S
C382   H394    1.084   .     S
C382   C384    1.392   .     A
C383   C389    1.402   .     A
C383   C385    1.413   .     A
C384   C390    1.402   .     A
C384   C386    1.413   .     A
C385   C387    1.415   .     A
C385   C432    1.404   .     S
C386   C388    1.415   .     A
C386   C431    1.404   1_455 S
C389   F407    1.359   .     S
C389   C417    1.391   .     S
C390   F408    1.359   .     S
C390   C418    1.391   1_455 S
Cu391  Cu392   2.689   .     S
Cu391  O400    1.949   .     S
Cu391  N396    2.021   .     S
Cu391  O397    1.953   .     S
Cu391  O404    1.963   .     S
Cu391  O401    1.969   .     S
Cu392  N395    2.021   .     S
Cu392  O399    1.949   .     S
Cu392  O403    1.963   .     S
Cu392  O398    1.953   .     S
Cu392  O402    1.969   .     S
N396   N671    1.300   .     S
N396   F690    1.335   .     S
H411   C465    1.088   .     S
F413   N671    1.335   .     S
C415   O445    1.285   .     A
C415   O443    1.292   .     A
C415   C419    1.426   .     S
C416   O444    1.292   .     A
C416   C420    1.426   .     S
C416   O446    1.285   .     A
C417   C434    1.408   .     A
C417   F455    1.358   .     S
C418   F456    1.358   .     S
C418   C433    1.408   .     A
C418   C390    1.391   1_655 S
C420   C511    1.328   .     S
C420   H550    1.088   .     S
C421   C426    1.459   .     S
C421   O447    1.300   .     A
C421   O449    1.293   .     A
C422   O448    1.300   .     A
C422   C425    1.459   .     S
C422   O450    1.293   .     A
C423   F451    1.360   .     S
C423   C425    1.407   .     A
C423   C433    1.398   .     A
C424   F452    1.360   .     S
C424   C426    1.407   .     A
C424   C434    1.398   .     A
C425   C427    1.397   .     A
C426   C428    1.397   .     A
C427   C429    1.392   .     A
C427   H439    1.084   .     S
C428   H440    1.084   .     S
C428   C430    1.392   .     A
C429   C435    1.402   .     A
C429   C431    1.413   .     A
C430   C436    1.402   .     A
C430   C432    1.413   .     A
C431   C433    1.415   .     A
C431   C386    1.404   1_655 S
C432   C434    1.415   .     A
C435   F453    1.359   .     S
C435   C371    1.391   1_655 S
C436   F454    1.359   .     S
Cu437  Cu438   2.689   .     S
Cu437  O446    1.949   .     S
Cu437  N442    2.021   .     S
Cu437  O443    1.953   .     S
Cu437  O450    1.963   .     S
Cu437  O447    1.969   .     S
Cu438  N441    2.021   .     S
Cu438  O445    1.949   .     S
Cu438  O449    1.963   .     S
Cu438  O444    1.953   .     S
Cu438  O448    1.969   .     S
N442   N717    1.300   .     S
N442   F736    1.335   .     S
H457   C511    1.088   .     S
F459   N717    1.335   .     S
C461   O491    1.285   .     A
C461   O489    1.292   .     A
C461   C465    1.426   .     S
C462   O490    1.292   .     A
C462   C466    1.426   .     S
C462   O492    1.285   .     A
C463   C480    1.408   .     A
C463   F501    1.358   .     S
C463   C527    1.391   1_455 S
C464   F502    1.358   .     S
C464   C479    1.408   .     A
C464   C528    1.391   .     S
C466   C281    1.328   1_565 S
C466   H320    1.088   1_565 S
C467   C472    1.459   .     S
C467   O493    1.300   .     A
C467   O495    1.293   .     A
C468   O494    1.300   .     A
C468   C471    1.459   .     S
C468   O496    1.293   .     A
C469   F497    1.360   .     S
C469   C471    1.407   .     A
C469   C479    1.398   .     A
C470   F498    1.360   .     S
C470   C472    1.407   .     A
C470   C480    1.398   .     A
C471   C473    1.397   .     A
C472   C474    1.397   .     A
C473   C475    1.392   .     A
C473   H485    1.084   .     S
C474   H486    1.084   .     S
C474   C476    1.392   .     A
C475   C481    1.402   .     A
C475   C477    1.413   .     A
C476   C482    1.402   .     A
C476   C478    1.413   .     A
C477   C479    1.415   .     A
C477   C524    1.404   .     S
C478   C480    1.415   .     A
C478   C523    1.404   1_455 S
C481   F499    1.359   .     S
C481   C509    1.391   .     S
C482   F500    1.359   .     S
C482   C510    1.391   1_455 S
Cu483  Cu484   2.689   .     S
Cu483  O492    1.949   .     S
Cu483  N488    2.021   .     S
Cu483  O489    1.953   .     S
Cu483  O496    1.963   .     S
Cu483  O493    1.969   .     S
Cu484  N487    2.021   .     S
Cu484  O491    1.949   .     S
Cu484  O495    1.963   .     S
Cu484  O490    1.953   .     S
Cu484  O494    1.969   .     S
N488   N763    1.300   .     S
N488   F782    1.335   .     S
H503   C281    1.088   1_565 S
F505   N763    1.335   .     S
C507   O537    1.285   .     A
C507   O535    1.292   .     A
C507   C511    1.426   .     S
C508   O536    1.292   .     A
C508   C512    1.426   .     S
C508   O538    1.285   .     A
C509   C526    1.408   .     A
C509   F547    1.358   .     S
C510   F548    1.358   .     S
C510   C525    1.408   .     A
C510   C482    1.391   1_655 S
C512   C327    1.328   1_565 S
C512   H366    1.088   1_565 S
C513   C518    1.459   .     S
C513   O539    1.300   .     A
C513   O541    1.293   .     A
C514   O540    1.300   .     A
C514   C517    1.459   .     S
C514   O542    1.293   .     A
C515   F543    1.360   .     S
C515   C517    1.407   .     A
C515   C525    1.398   .     A
C516   F544    1.360   .     S
C516   C518    1.407   .     A
C516   C526    1.398   .     A
C517   C519    1.397   .     A
C518   C520    1.397   .     A
C519   C521    1.392   .     A
C519   H531    1.084   .     S
C520   H532    1.084   .     S
C520   C522    1.392   .     A
C521   C527    1.402   .     A
C521   C523    1.413   .     A
C522   C528    1.402   .     A
C522   C524    1.413   .     A
C523   C525    1.415   .     A
C523   C478    1.404   1_655 S
C524   C526    1.415   .     A
C527   F545    1.359   .     S
C527   C463    1.391   1_655 S
C528   F546    1.359   .     S
Cu529  Cu530   2.689   .     S
Cu529  O538    1.949   .     S
Cu529  N534    2.021   .     S
Cu529  O535    1.953   .     S
Cu529  O542    1.963   .     S
Cu529  O539    1.969   .     S
Cu530  N533    2.021   .     S
Cu530  O537    1.949   .     S
Cu530  O541    1.963   .     S
Cu530  O536    1.953   .     S
Cu530  O540    1.969   .     S
N534   N809    1.300   .     S
N534   F828    1.335   .     S
H549   C327    1.088   1_565 S
F551   N809    1.335   .     S
C553   O583    1.285   .     A
C553   O581    1.292   .     A
C553   C557    1.426   .     S
C554   O582    1.292   .     A
C554   C558    1.426   .     S
C554   O584    1.285   .     A
C555   C572    1.408   .     A
C555   F593    1.358   .     S
C555   C619    1.391   1_455 S
C556   F594    1.358   .     S
C556   C571    1.408   .     A
C556   C620    1.391   .     S
C557   C742    1.328   1_545 S
C557   H779    1.088   1_545 S
C558   C649    1.328   .     S
C558   H688    1.088   .     S
C559   C564    1.459   .     S
C559   O585    1.300   .     A
C559   O587    1.293   .     A
C560   O586    1.300   .     A
C560   C563    1.459   .     S
C560   O588    1.293   .     A
C561   F589    1.360   .     S
C561   C563    1.407   .     A
C561   C571    1.398   .     A
C562   F590    1.360   .     S
C562   C564    1.407   .     A
C562   C572    1.398   .     A
C563   C565    1.397   .     A
C564   C566    1.397   .     A
C565   C567    1.392   .     A
C565   H577    1.084   .     S
C566   H578    1.084   .     S
C566   C568    1.392   .     A
C567   C573    1.402   .     A
C567   C569    1.413   .     A
C568   C574    1.402   .     A
C568   C570    1.413   .     A
C569   C571    1.415   .     A
C569   C616    1.404   .     S
C570   C572    1.415   .     A
C570   C615    1.404   1_455 S
C573   F591    1.359   .     S
C573   C601    1.391   .     S
C574   F592    1.359   .     S
C574   C602    1.391   1_455 S
Cu575  Cu576   2.689   .     S
Cu575  O584    1.949   .     S
Cu575  N580    2.021   .     S
Cu575  O581    1.953   .     S
Cu575  O588    1.963   .     S
Cu575  O585    1.969   .     S
Cu576  N579    2.021   .     S
Cu576  O583    1.949   .     S
Cu576  O587    1.963   .     S
Cu576  O582    1.953   .     S
Cu576  O586    1.969   .     S
N580   N27     1.300   1_556 S
N580   F46     1.335   1_556 S
H595   C649    1.088   .     S
H596   C742    1.088   1_545 S
F597   N27     1.335   1_556 S
C599   O629    1.285   .     A
C599   O627    1.292   .     A
C599   C603    1.426   .     S
C600   O628    1.292   .     A
C600   C604    1.426   .     S
C600   O630    1.285   .     A
C601   C618    1.408   .     A
C601   F639    1.358   .     S
C602   F640    1.358   .     S
C602   C617    1.408   .     A
C602   C574    1.391   1_655 S
C603   C788    1.328   1_545 S
C603   H825    1.088   1_545 S
C604   C695    1.328   .     S
C604   H734    1.088   .     S
C605   C610    1.459   .     S
C605   O631    1.300   .     A
C605   O633    1.293   .     A
C606   O632    1.300   .     A
C606   C609    1.459   .     S
C606   O634    1.293   .     A
C607   F635    1.360   .     S
C607   C609    1.407   .     A
C607   C617    1.398   .     A
C608   F636    1.360   .     S
C608   C610    1.407   .     A
C608   C618    1.398   .     A
C609   C611    1.397   .     A
C610   C612    1.397   .     A
C611   C613    1.392   .     A
C611   H623    1.084   .     S
C612   H624    1.084   .     S
C612   C614    1.392   .     A
C613   C619    1.402   .     A
C613   C615    1.413   .     A
C614   C620    1.402   .     A
C614   C616    1.413   .     A
C615   C617    1.415   .     A
C615   C570    1.404   1_655 S
C616   C618    1.415   .     A
C619   F637    1.359   .     S
C619   C555    1.391   1_655 S
C620   F638    1.359   .     S
Cu621  Cu622   2.689   .     S
Cu621  O630    1.949   .     S
Cu621  N626    2.021   .     S
Cu621  O627    1.953   .     S
Cu621  O634    1.963   .     S
Cu621  O631    1.969   .     S
Cu622  N625    2.021   .     S
Cu622  O629    1.949   .     S
Cu622  O633    1.963   .     S
Cu622  O628    1.953   .     S
Cu622  O632    1.969   .     S
N626   N73     1.300   1_556 S
N626   F92     1.335   1_556 S
H641   C695    1.088   .     S
H642   C788    1.088   1_545 S
F643   N73     1.335   1_556 S
C645   O675    1.285   .     A
C645   O673    1.292   .     A
C645   C649    1.426   .     S
C646   O674    1.292   .     A
C646   C650    1.426   .     S
C646   O676    1.285   .     A
C647   C664    1.408   .     A
C647   F685    1.358   .     S
C647   C711    1.391   1_455 S
C648   F686    1.358   .     S
C648   C663    1.408   .     A
C648   C712    1.391   .     S
C650   C741    1.328   .     S
C650   H780    1.088   .     S
C651   C656    1.459   .     S
C651   O677    1.300   .     A
C651   O679    1.293   .     A
C652   O678    1.300   .     A
C652   C655    1.459   .     S
C652   O680    1.293   .     A
C653   F681    1.360   .     S
C653   C655    1.407   .     A
C653   C663    1.398   .     A
C654   F682    1.360   .     S
C654   C656    1.407   .     A
C654   C664    1.398   .     A
C655   C657    1.397   .     A
C656   C658    1.397   .     A
C657   C659    1.392   .     A
C657   H669    1.084   .     S
C658   H670    1.084   .     S
C658   C660    1.392   .     A
C659   C665    1.402   .     A
C659   C661    1.413   .     A
C660   C666    1.402   .     A
C660   C662    1.413   .     A
C661   C663    1.415   .     A
C661   C708    1.404   .     S
C662   C664    1.415   .     A
C662   C707    1.404   1_455 S
C665   F683    1.359   .     S
C665   C693    1.391   .     S
C666   F684    1.359   .     S
C666   C694    1.391   1_455 S
Cu667  Cu668   2.689   .     S
Cu667  O676    1.949   .     S
Cu667  N672    2.021   .     S
Cu667  O673    1.953   .     S
Cu667  O680    1.963   .     S
Cu667  O677    1.969   .     S
Cu668  N671    2.021   .     S
Cu668  O675    1.949   .     S
Cu668  O679    1.963   .     S
Cu668  O674    1.953   .     S
Cu668  O678    1.969   .     S
N672   N119    1.300   1_556 S
N672   F138    1.335   1_556 S
H687   C741    1.088   .     S
F689   N119    1.335   1_556 S
C691   O721    1.285   .     A
C691   O719    1.292   .     A
C691   C695    1.426   .     S
C692   O720    1.292   .     A
C692   C696    1.426   .     S
C692   O722    1.285   .     A
C693   C710    1.408   .     A
C693   F731    1.358   .     S
C694   F732    1.358   .     S
C694   C709    1.408   .     A
C694   C666    1.391   1_655 S
C696   C787    1.328   .     S
C696   H826    1.088   .     S
C697   C702    1.459   .     S
C697   O723    1.300   .     A
C697   O725    1.293   .     A
C698   O724    1.300   .     A
C698   C701    1.459   .     S
C698   O726    1.293   .     A
C699   F727    1.360   .     S
C699   C701    1.407   .     A
C699   C709    1.398   .     A
C700   F728    1.360   .     S
C700   C702    1.407   .     A
C700   C710    1.398   .     A
C701   C703    1.397   .     A
C702   C704    1.397   .     A
C703   C705    1.392   .     A
C703   H715    1.084   .     S
C704   H716    1.084   .     S
C704   C706    1.392   .     A
C705   C711    1.402   .     A
C705   C707    1.413   .     A
C706   C712    1.402   .     A
C706   C708    1.413   .     A
C707   C709    1.415   .     A
C707   C662    1.404   1_655 S
C708   C710    1.415   .     A
C711   F729    1.359   .     S
C711   C647    1.391   1_655 S
C712   F730    1.359   .     S
Cu713  Cu714   2.689   .     S
Cu713  O722    1.949   .     S
Cu713  N718    2.021   .     S
Cu713  O719    1.953   .     S
Cu713  O726    1.963   .     S
Cu713  O723    1.969   .     S
Cu714  N717    2.021   .     S
Cu714  O721    1.949   .     S
Cu714  O725    1.963   .     S
Cu714  O720    1.953   .     S
Cu714  O724    1.969   .     S
N718   N165    1.300   1_556 S
N718   F184    1.335   1_556 S
H733   C787    1.088   .     S
F735   N165    1.335   1_556 S
C737   O767    1.285   .     A
C737   O765    1.292   .     A
C737   C741    1.426   .     S
C738   O766    1.292   .     A
C738   C742    1.426   .     S
C738   O768    1.285   .     A
C739   C756    1.408   .     A
C739   F777    1.358   .     S
C739   C803    1.391   1_455 S
C740   F778    1.358   .     S
C740   C755    1.408   .     A
C740   C804    1.391   .     S
C742   C557    1.328   1_565 S
C742   H596    1.088   1_565 S
C743   C748    1.459   .     S
C743   O769    1.300   .     A
C743   O771    1.293   .     A
C744   O770    1.300   .     A
C744   C747    1.459   .     S
C744   O772    1.293   .     A
C745   F773    1.360   .     S
C745   C747    1.407   .     A
C745   C755    1.398   .     A
C746   F774    1.360   .     S
C746   C748    1.407   .     A
C746   C756    1.398   .     A
C747   C749    1.397   .     A
C748   C750    1.397   .     A
C749   C751    1.392   .     A
C749   H761    1.084   .     S
C750   H762    1.084   .     S
C750   C752    1.392   .     A
C751   C757    1.402   .     A
C751   C753    1.413   .     A
C752   C758    1.402   .     A
C752   C754    1.413   .     A
C753   C755    1.415   .     A
C753   C800    1.404   .     S
C754   C756    1.415   .     A
C754   C799    1.404   1_455 S
C757   F775    1.359   .     S
C757   C785    1.391   .     S
C758   F776    1.359   .     S
C758   C786    1.391   1_455 S
Cu759  Cu760   2.689   .     S
Cu759  O768    1.949   .     S
Cu759  N764    2.021   .     S
Cu759  O765    1.953   .     S
Cu759  O772    1.963   .     S
Cu759  O769    1.969   .     S
Cu760  N763    2.021   .     S
Cu760  O767    1.949   .     S
Cu760  O771    1.963   .     S
Cu760  O766    1.953   .     S
Cu760  O770    1.969   .     S
N764   N211    1.300   1_556 S
N764   F230    1.335   1_556 S
H779   C557    1.088   1_565 S
F781   N211    1.335   1_556 S
C783   O813    1.285   .     A
C783   O811    1.292   .     A
C783   C787    1.426   .     S
C784   O812    1.292   .     A
C784   C788    1.426   .     S
C784   O814    1.285   .     A
C785   C802    1.408   .     A
C785   F823    1.358   .     S
C786   F824    1.358   .     S
C786   C801    1.408   .     A
C786   C758    1.391   1_655 S
C788   C603    1.328   1_565 S
C788   H642    1.088   1_565 S
C789   C794    1.459   .     S
C789   O815    1.300   .     A
C789   O817    1.293   .     A
C790   O816    1.300   .     A
C790   C793    1.459   .     S
C790   O818    1.293   .     A
C791   F819    1.360   .     S
C791   C793    1.407   .     A
C791   C801    1.398   .     A
C792   F820    1.360   .     S
C792   C794    1.407   .     A
C792   C802    1.398   .     A
C793   C795    1.397   .     A
C794   C796    1.397   .     A
C795   C797    1.392   .     A
C795   H807    1.084   .     S
C796   H808    1.084   .     S
C796   C798    1.392   .     A
C797   C803    1.402   .     A
C797   C799    1.413   .     A
C798   C804    1.402   .     A
C798   C800    1.413   .     A
C799   C801    1.415   .     A
C799   C754    1.404   1_655 S
C800   C802    1.415   .     A
C803   F821    1.359   .     S
C803   C739    1.391   1_655 S
C804   F822    1.359   .     S
Cu805  Cu806   2.689   .     S
Cu805  O814    1.949   .     S
Cu805  N810    2.021   .     S
Cu805  O811    1.953   .     S
Cu805  O818    1.963   .     S
Cu805  O815    1.969   .     S
Cu806  N809    2.021   .     S
Cu806  O813    1.949   .     S
Cu806  O817    1.963   .     S
Cu806  O812    1.953   .     S
Cu806  O816    1.969   .     S
N810   N257    1.300   1_556 S
N810   F276    1.335   1_556 S
H825   C603    1.088   1_565 S
F827   N257    1.335   1_556 S
