data_str_m2_o1_o5_pcu_sym.31
_audit_creation_date              2020-01-03
_audit_creation_method            'Materials Studio'
_symmetry_space_group_name_H-M    'P1'
_symmetry_Int_Tables_number       1
_symmetry_cell_setting            triclinic
loop_
_symmetry_equiv_pos_as_xyz
  x,y,z
_cell_length_a                    32.6610
_cell_length_b                    28.6079
_cell_length_c                    27.1841
_cell_angle_alpha                 90.2357
_cell_angle_beta                  90.0490
_cell_angle_gamma                 90.1342
loop_
_atom_site_label
_atom_site_type_symbol
_atom_site_fract_x
_atom_site_fract_y
_atom_site_fract_z
_atom_site_U_iso_or_equiv
_atom_site_adp_type
_atom_site_occupancy
C1     C     0.08729   0.16664   0.16650   0.00000  Uiso   1.00
C2     C     0.02078   0.20868   0.15855   0.00000  Uiso   1.00
C3     C     0.29030   0.16664   0.16598   0.00000  Uiso   1.00
C4     C     0.04248   0.16665   0.16605   0.00000  Uiso   1.00
C5     C     0.15148   0.02455   0.12756   0.00000  Uiso   1.00
C6     C     0.18216   0.30879   0.20562   0.00000  Uiso   1.00
C7     C     0.18174   0.02495   0.20581   0.00000  Uiso   1.00
C8     C     0.15105   0.30839   0.12778   0.00000  Uiso   1.00
C9     C     0.04492   0.06363   0.12797   0.00000  Uiso   1.00
C10    C     0.00549   0.04209   0.10688   0.00000  Uiso   1.00
C11    C     0.01451   0.01492   0.05980   0.00000  Uiso   1.00
C12    C     0.24584   0.16669   0.16680   0.00000  Uiso   1.00
C13    C     0.28014   0.23189   0.07911   0.00000  Uiso   1.00
C14    C     0.31563   0.21963   0.04412   0.00000  Uiso   1.00
C15    C     0.30036   0.21367   0.32466   0.00000  Uiso   1.00
C16    C     0.28566   0.09504   0.25095   0.00000  Uiso   1.00
C17    C     0.27973   0.04786   0.27627   0.00000  Uiso   1.00
C18    C     0.25834   0.05355   0.32586   0.00000  Uiso   1.00
C19    C     0.03231   0.27906   0.19677   0.00000  Uiso   1.00
C20    C     0.06078   0.26720   0.23986   0.00000  Uiso   1.00
C21    C     0.05246   0.29859   0.28419   0.00000  Uiso   1.00
C22    C     0.16676   0.16661   0.07355   0.00000  Uiso   1.00
C23    C     0.16679   0.16672   0.25978   0.00000  Uiso   1.00
C24    C     0.16689   0.16658   0.02185   0.00000  Uiso   1.00
C25    C     0.16690   0.16675   0.31147   0.00000  Uiso   1.00
C26    C     0.02047   0.12467   0.17338   0.00000  Uiso   1.00
C27    C     0.31206   0.20639   0.14990   0.00000  Uiso   1.00
C28    C     0.31190   0.12666   0.18110   0.00000  Uiso   1.00
Cu29   Cu    0.16667   0.21355   0.16667   0.00000  Uiso   1.00
Cu30   Cu    0.16667   0.11978   0.16667   0.00000  Uiso   1.00
H31    H     0.13912   0.04284   0.09617   0.00000  Uiso   1.00
H32    H     0.31946   0.33104   0.04649   0.00000  Uiso   1.00
H33    H     0.03786   0.32091   0.06679   0.00000  Uiso   1.00
H34    H     0.26366   0.26259   0.06401   0.00000  Uiso   1.00
H35    H     0.25767   0.20269   0.07935   0.00000  Uiso   1.00
H36    H     0.00592   0.24748   0.04535   0.00000  Uiso   1.00
H37    H     0.33011   0.18631   0.05571   0.00000  Uiso   1.00
H38    H     0.27677   0.18567   0.32272   0.00000  Uiso   1.00
H39    H     0.32628   0.20379   0.30038   0.00000  Uiso   1.00
H40    H     0.28700   0.24689   0.31108   0.00000  Uiso   1.00
H41    H     0.25771   0.11671   0.25585   0.00000  Uiso   1.00
H42    H     0.19480   0.29052   0.23686   0.00000  Uiso   1.00
H43    H     0.31185   0.11316   0.26951   0.00000  Uiso   1.00
H44    H     0.26135   0.02410   0.25260   0.00000  Uiso   1.00
H45    H     0.31007   0.03126   0.28188   0.00000  Uiso   1.00
H46    H     0.27681   0.07629   0.01727   0.00000  Uiso   1.00
H47    H     0.25437   0.01880   0.00993   0.00000  Uiso   1.00
H48    H     0.22757   0.06934   0.32087   0.00000  Uiso   1.00
H49    H     0.33296   0.27714   0.20849   0.00000  Uiso   1.00
H50    H     0.03807   0.31594   0.18694   0.00000  Uiso   1.00
H51    H     0.05634   0.23019   0.25086   0.00000  Uiso   1.00
H52    H     0.09311   0.27224   0.22848   0.00000  Uiso   1.00
H53    H     0.19343   0.04364   0.23740   0.00000  Uiso   1.00
H54    H     0.05788   0.00248   0.27460   0.00000  Uiso   1.00
H55    H     0.07327   0.28896   0.31485   0.00000  Uiso   1.00
H56    H     0.02036   0.29423   0.29669   0.00000  Uiso   1.00
H57    H     0.13815   0.28980   0.09670   0.00000  Uiso   1.00
H58    H     0.06836   0.03581   0.13035   0.00000  Uiso   1.00
H59    H     0.05725   0.09028   0.10200   0.00000  Uiso   1.00
H60    H     0.32465   0.01822   0.13411   0.00000  Uiso   1.00
H61    H     0.31650   0.07011   0.09829   0.00000  Uiso   1.00
H62    H     0.02590   0.03894   0.03084   0.00000  Uiso   1.00
N63    N     0.16667   0.28402   0.16667   0.00000  Uiso   1.00
N64    N     0.16667   0.04931   0.16667   0.00000  Uiso   1.00
O65    O     0.10655   0.20625   0.16666   0.00000  Uiso   1.00
O66    O     0.29335   0.24417   0.12735   0.00000  Uiso   1.00
O67    O     0.29253   0.08765   0.20012   0.00000  Uiso   1.00
O68    O     0.04091   0.25122   0.15465   0.00000  Uiso   1.00
O69    O     0.22679   0.12709   0.16667   0.00000  Uiso   1.00
O70    O     0.22679   0.20625   0.16667   0.00000  Uiso   1.00
O71    O     0.10655   0.12709   0.16666   0.00000  Uiso   1.00
O72    O     0.16667   0.20625   0.09613   0.00000  Uiso   1.00
O73    O     0.16667   0.12708   0.23720   0.00000  Uiso   1.00
O74    O     0.16667   0.20625   0.23720   0.00000  Uiso   1.00
O75    O     0.16667   0.12708   0.09613   0.00000  Uiso   1.00
O76    O     0.03936   0.08156   0.17624   0.00000  Uiso   1.00
C77    C     0.42063   0.16664   0.16650   0.00000  Uiso   1.00
C78    C     0.35411   0.20868   0.15855   0.00000  Uiso   1.00
C79    C     0.62363   0.16664   0.16598   0.00000  Uiso   1.00
C80    C     0.37581   0.16665   0.16605   0.00000  Uiso   1.00
C81    C     0.48481   0.02455   0.12756   0.00000  Uiso   1.00
C82    C     0.51549   0.30879   0.20562   0.00000  Uiso   1.00
C83    C     0.51507   0.02495   0.20581   0.00000  Uiso   1.00
C84    C     0.48439   0.30839   0.12778   0.00000  Uiso   1.00
C85    C     0.37825   0.06363   0.12797   0.00000  Uiso   1.00
C86    C     0.33883   0.04209   0.10688   0.00000  Uiso   1.00
C87    C     0.34784   0.01492   0.05980   0.00000  Uiso   1.00
C88    C     0.57917   0.16669   0.16680   0.00000  Uiso   1.00
C89    C     0.61347   0.23189   0.07911   0.00000  Uiso   1.00
C90    C     0.64897   0.21963   0.04412   0.00000  Uiso   1.00
C91    C     0.63369   0.21367   0.32466   0.00000  Uiso   1.00
C92    C     0.61899   0.09504   0.25095   0.00000  Uiso   1.00
C93    C     0.61306   0.04786   0.27627   0.00000  Uiso   1.00
C94    C     0.59167   0.05355   0.32586   0.00000  Uiso   1.00
C95    C     0.36565   0.27906   0.19677   0.00000  Uiso   1.00
C96    C     0.39411   0.26720   0.23986   0.00000  Uiso   1.00
C97    C     0.38580   0.29859   0.28419   0.00000  Uiso   1.00
C98    C     0.50009   0.16661   0.07355   0.00000  Uiso   1.00
C99    C     0.50013   0.16672   0.25978   0.00000  Uiso   1.00
C100   C     0.50023   0.16658   0.02185   0.00000  Uiso   1.00
C101   C     0.50024   0.16675   0.31147   0.00000  Uiso   1.00
C102   C     0.35381   0.12467   0.17338   0.00000  Uiso   1.00
C103   C     0.64540   0.20639   0.14990   0.00000  Uiso   1.00
C104   C     0.64523   0.12666   0.18110   0.00000  Uiso   1.00
Cu105  Cu    0.50000   0.21355   0.16667   0.00000  Uiso   1.00
Cu106  Cu    0.50000   0.11978   0.16667   0.00000  Uiso   1.00
H107   H     0.47245   0.04284   0.09617   0.00000  Uiso   1.00
H108   H     0.65280   0.33104   0.04649   0.00000  Uiso   1.00
H109   H     0.37119   0.32091   0.06679   0.00000  Uiso   1.00
H110   H     0.59699   0.26259   0.06401   0.00000  Uiso   1.00
H111   H     0.59100   0.20269   0.07935   0.00000  Uiso   1.00
H112   H     0.33925   0.24748   0.04535   0.00000  Uiso   1.00
H113   H     0.66345   0.18631   0.05571   0.00000  Uiso   1.00
H114   H     0.61011   0.18567   0.32272   0.00000  Uiso   1.00
H115   H     0.65961   0.20379   0.30038   0.00000  Uiso   1.00
H116   H     0.62033   0.24689   0.31108   0.00000  Uiso   1.00
H117   H     0.59104   0.11671   0.25585   0.00000  Uiso   1.00
H118   H     0.52813   0.29052   0.23686   0.00000  Uiso   1.00
H119   H     0.64518   0.11316   0.26951   0.00000  Uiso   1.00
H120   H     0.59468   0.02410   0.25260   0.00000  Uiso   1.00
H121   H     0.64341   0.03126   0.28188   0.00000  Uiso   1.00
H122   H     0.61015   0.07629   0.01727   0.00000  Uiso   1.00
H123   H     0.58771   0.01880   0.00993   0.00000  Uiso   1.00
H124   H     0.56091   0.06934   0.32087   0.00000  Uiso   1.00
H125   H     0.66630   0.27714   0.20849   0.00000  Uiso   1.00
H126   H     0.37140   0.31594   0.18694   0.00000  Uiso   1.00
H127   H     0.38968   0.23019   0.25086   0.00000  Uiso   1.00
H128   H     0.42645   0.27224   0.22848   0.00000  Uiso   1.00
H129   H     0.52676   0.04364   0.23740   0.00000  Uiso   1.00
H130   H     0.39122   0.00248   0.27460   0.00000  Uiso   1.00
H131   H     0.40660   0.28896   0.31485   0.00000  Uiso   1.00
H132   H     0.35370   0.29423   0.29669   0.00000  Uiso   1.00
H133   H     0.47148   0.28980   0.09670   0.00000  Uiso   1.00
H134   H     0.40170   0.03581   0.13035   0.00000  Uiso   1.00
H135   H     0.39059   0.09028   0.10200   0.00000  Uiso   1.00
H136   H     0.65798   0.01822   0.13411   0.00000  Uiso   1.00
H137   H     0.64983   0.07011   0.09829   0.00000  Uiso   1.00
H138   H     0.35924   0.03894   0.03084   0.00000  Uiso   1.00
N139   N     0.50000   0.28402   0.16667   0.00000  Uiso   1.00
N140   N     0.50000   0.04931   0.16667   0.00000  Uiso   1.00
O141   O     0.43988   0.20625   0.16666   0.00000  Uiso   1.00
O142   O     0.62668   0.24417   0.12735   0.00000  Uiso   1.00
O143   O     0.62587   0.08765   0.20012   0.00000  Uiso   1.00
O144   O     0.37424   0.25122   0.15465   0.00000  Uiso   1.00
O145   O     0.56012   0.12709   0.16667   0.00000  Uiso   1.00
O146   O     0.56012   0.20625   0.16667   0.00000  Uiso   1.00
O147   O     0.43988   0.12709   0.16666   0.00000  Uiso   1.00
O148   O     0.50000   0.20625   0.09613   0.00000  Uiso   1.00
O149   O     0.50000   0.12708   0.23720   0.00000  Uiso   1.00
O150   O     0.50000   0.20625   0.23720   0.00000  Uiso   1.00
O151   O     0.50000   0.12708   0.09613   0.00000  Uiso   1.00
O152   O     0.37269   0.08156   0.17624   0.00000  Uiso   1.00
C153   C     0.75396   0.16664   0.16650   0.00000  Uiso   1.00
C154   C     0.68745   0.20868   0.15855   0.00000  Uiso   1.00
C155   C     0.95696   0.16664   0.16598   0.00000  Uiso   1.00
C156   C     0.70915   0.16665   0.16605   0.00000  Uiso   1.00
C157   C     0.81814   0.02455   0.12756   0.00000  Uiso   1.00
C158   C     0.84882   0.30879   0.20562   0.00000  Uiso   1.00
C159   C     0.84841   0.02495   0.20581   0.00000  Uiso   1.00
C160   C     0.81772   0.30839   0.12778   0.00000  Uiso   1.00
C161   C     0.71159   0.06363   0.12797   0.00000  Uiso   1.00
C162   C     0.67216   0.04209   0.10688   0.00000  Uiso   1.00
C163   C     0.68117   0.01492   0.05980   0.00000  Uiso   1.00
C164   C     0.91251   0.16669   0.16680   0.00000  Uiso   1.00
C165   C     0.94680   0.23189   0.07911   0.00000  Uiso   1.00
C166   C     0.98230   0.21963   0.04412   0.00000  Uiso   1.00
C167   C     0.96703   0.21367   0.32466   0.00000  Uiso   1.00
C168   C     0.95232   0.09504   0.25095   0.00000  Uiso   1.00
C169   C     0.94640   0.04786   0.27627   0.00000  Uiso   1.00
C170   C     0.92500   0.05355   0.32586   0.00000  Uiso   1.00
C171   C     0.69898   0.27906   0.19677   0.00000  Uiso   1.00
C172   C     0.72744   0.26720   0.23986   0.00000  Uiso   1.00
C173   C     0.71913   0.29859   0.28419   0.00000  Uiso   1.00
C174   C     0.83343   0.16661   0.07355   0.00000  Uiso   1.00
C175   C     0.83346   0.16672   0.25978   0.00000  Uiso   1.00
C176   C     0.83356   0.16658   0.02185   0.00000  Uiso   1.00
C177   C     0.83357   0.16675   0.31147   0.00000  Uiso   1.00
C178   C     0.68714   0.12467   0.17338   0.00000  Uiso   1.00
C179   C     0.97873   0.20639   0.14990   0.00000  Uiso   1.00
C180   C     0.97857   0.12666   0.18110   0.00000  Uiso   1.00
Cu181  Cu    0.83333   0.21355   0.16667   0.00000  Uiso   1.00
Cu182  Cu    0.83333   0.11978   0.16667   0.00000  Uiso   1.00
H183   H     0.80578   0.04284   0.09617   0.00000  Uiso   1.00
H184   H     0.98613   0.33104   0.04649   0.00000  Uiso   1.00
H185   H     0.70453   0.32091   0.06679   0.00000  Uiso   1.00
H186   H     0.93032   0.26259   0.06401   0.00000  Uiso   1.00
H187   H     0.92434   0.20269   0.07935   0.00000  Uiso   1.00
H188   H     0.67258   0.24748   0.04535   0.00000  Uiso   1.00
H189   H     0.99678   0.18631   0.05571   0.00000  Uiso   1.00
H190   H     0.94344   0.18567   0.32272   0.00000  Uiso   1.00
H191   H     0.99294   0.20379   0.30038   0.00000  Uiso   1.00
H192   H     0.95366   0.24689   0.31108   0.00000  Uiso   1.00
H193   H     0.92438   0.11671   0.25585   0.00000  Uiso   1.00
H194   H     0.86147   0.29052   0.23686   0.00000  Uiso   1.00
H195   H     0.97851   0.11316   0.26951   0.00000  Uiso   1.00
H196   H     0.92801   0.02410   0.25260   0.00000  Uiso   1.00
H197   H     0.97674   0.03126   0.28188   0.00000  Uiso   1.00
H198   H     0.94348   0.07629   0.01727   0.00000  Uiso   1.00
H199   H     0.92104   0.01880   0.00993   0.00000  Uiso   1.00
H200   H     0.89424   0.06934   0.32087   0.00000  Uiso   1.00
H201   H     0.99963   0.27714   0.20849   0.00000  Uiso   1.00
H202   H     0.70474   0.31594   0.18694   0.00000  Uiso   1.00
H203   H     0.72301   0.23019   0.25086   0.00000  Uiso   1.00
H204   H     0.75978   0.27224   0.22848   0.00000  Uiso   1.00
H205   H     0.86010   0.04364   0.23740   0.00000  Uiso   1.00
H206   H     0.72455   0.00248   0.27460   0.00000  Uiso   1.00
H207   H     0.73993   0.28896   0.31485   0.00000  Uiso   1.00
H208   H     0.68703   0.29423   0.29669   0.00000  Uiso   1.00
H209   H     0.80481   0.28980   0.09670   0.00000  Uiso   1.00
H210   H     0.73503   0.03581   0.13035   0.00000  Uiso   1.00
H211   H     0.72392   0.09028   0.10200   0.00000  Uiso   1.00
H212   H     0.99131   0.01822   0.13411   0.00000  Uiso   1.00
H213   H     0.98316   0.07011   0.09829   0.00000  Uiso   1.00
H214   H     0.69257   0.03894   0.03084   0.00000  Uiso   1.00
N215   N     0.83333   0.28402   0.16667   0.00000  Uiso   1.00
N216   N     0.83333   0.04931   0.16667   0.00000  Uiso   1.00
O217   O     0.77321   0.20625   0.16666   0.00000  Uiso   1.00
O218   O     0.96001   0.24417   0.12735   0.00000  Uiso   1.00
O219   O     0.95920   0.08765   0.20012   0.00000  Uiso   1.00
O220   O     0.70757   0.25122   0.15465   0.00000  Uiso   1.00
O221   O     0.89345   0.12709   0.16667   0.00000  Uiso   1.00
O222   O     0.89345   0.20625   0.16667   0.00000  Uiso   1.00
O223   O     0.77321   0.12709   0.16666   0.00000  Uiso   1.00
O224   O     0.83333   0.20625   0.09613   0.00000  Uiso   1.00
O225   O     0.83333   0.12708   0.23720   0.00000  Uiso   1.00
O226   O     0.83333   0.20625   0.23720   0.00000  Uiso   1.00
O227   O     0.83333   0.12708   0.09613   0.00000  Uiso   1.00
O228   O     0.70603   0.08156   0.17624   0.00000  Uiso   1.00
C229   C     0.08729   0.49997   0.16650   0.00000  Uiso   1.00
C230   C     0.02078   0.54201   0.15855   0.00000  Uiso   1.00
C231   C     0.29030   0.49998   0.16598   0.00000  Uiso   1.00
C232   C     0.04248   0.49998   0.16605   0.00000  Uiso   1.00
C233   C     0.15148   0.35788   0.12756   0.00000  Uiso   1.00
C234   C     0.18216   0.64212   0.20562   0.00000  Uiso   1.00
C235   C     0.18174   0.35829   0.20581   0.00000  Uiso   1.00
C236   C     0.15105   0.64172   0.12778   0.00000  Uiso   1.00
C237   C     0.04492   0.39696   0.12797   0.00000  Uiso   1.00
C238   C     0.00549   0.37542   0.10688   0.00000  Uiso   1.00
C239   C     0.01451   0.34825   0.05980   0.00000  Uiso   1.00
C240   C     0.24584   0.50002   0.16680   0.00000  Uiso   1.00
C241   C     0.28014   0.56522   0.07911   0.00000  Uiso   1.00
C242   C     0.31563   0.55296   0.04412   0.00000  Uiso   1.00
C243   C     0.30036   0.54701   0.32466   0.00000  Uiso   1.00
C244   C     0.28566   0.42838   0.25095   0.00000  Uiso   1.00
C245   C     0.27973   0.38120   0.27627   0.00000  Uiso   1.00
C246   C     0.25834   0.38689   0.32586   0.00000  Uiso   1.00
C247   C     0.03231   0.61240   0.19677   0.00000  Uiso   1.00
C248   C     0.06078   0.60053   0.23986   0.00000  Uiso   1.00
C249   C     0.05246   0.63192   0.28419   0.00000  Uiso   1.00
C250   C     0.16676   0.49994   0.07355   0.00000  Uiso   1.00
C251   C     0.16679   0.50006   0.25978   0.00000  Uiso   1.00
C252   C     0.16689   0.49992   0.02185   0.00000  Uiso   1.00
C253   C     0.16690   0.50008   0.31147   0.00000  Uiso   1.00
C254   C     0.02047   0.45800   0.17338   0.00000  Uiso   1.00
C255   C     0.31206   0.53972   0.14990   0.00000  Uiso   1.00
C256   C     0.31190   0.46000   0.18110   0.00000  Uiso   1.00
Cu257  Cu    0.16667   0.54689   0.16667   0.00000  Uiso   1.00
Cu258  Cu    0.16667   0.45311   0.16667   0.00000  Uiso   1.00
H259   H     0.13912   0.37617   0.09617   0.00000  Uiso   1.00
H260   H     0.31946   0.66438   0.04649   0.00000  Uiso   1.00
H261   H     0.03786   0.65424   0.06679   0.00000  Uiso   1.00
H262   H     0.26366   0.59592   0.06401   0.00000  Uiso   1.00
H263   H     0.25767   0.53602   0.07935   0.00000  Uiso   1.00
H264   H     0.00592   0.58082   0.04535   0.00000  Uiso   1.00
H265   H     0.33011   0.51965   0.05571   0.00000  Uiso   1.00
H266   H     0.27677   0.51901   0.32272   0.00000  Uiso   1.00
H267   H     0.32628   0.53712   0.30038   0.00000  Uiso   1.00
H268   H     0.28700   0.58022   0.31108   0.00000  Uiso   1.00
H269   H     0.25771   0.45005   0.25585   0.00000  Uiso   1.00
H270   H     0.19480   0.62385   0.23686   0.00000  Uiso   1.00
H271   H     0.31185   0.44649   0.26951   0.00000  Uiso   1.00
H272   H     0.26135   0.35743   0.25260   0.00000  Uiso   1.00
H273   H     0.31007   0.36459   0.28188   0.00000  Uiso   1.00
H274   H     0.27681   0.40962   0.01727   0.00000  Uiso   1.00
H275   H     0.25437   0.35213   0.00993   0.00000  Uiso   1.00
H276   H     0.22757   0.40267   0.32087   0.00000  Uiso   1.00
H277   H     0.33296   0.61047   0.20849   0.00000  Uiso   1.00
H278   H     0.03807   0.64927   0.18694   0.00000  Uiso   1.00
H279   H     0.05634   0.56352   0.25086   0.00000  Uiso   1.00
H280   H     0.09311   0.60558   0.22848   0.00000  Uiso   1.00
H281   H     0.19343   0.37697   0.23740   0.00000  Uiso   1.00
H282   H     0.05788   0.33581   0.27460   0.00000  Uiso   1.00
H283   H     0.07327   0.62229   0.31485   0.00000  Uiso   1.00
H284   H     0.02036   0.62756   0.29669   0.00000  Uiso   1.00
H285   H     0.13815   0.62314   0.09670   0.00000  Uiso   1.00
H286   H     0.06836   0.36914   0.13035   0.00000  Uiso   1.00
H287   H     0.05725   0.42361   0.10200   0.00000  Uiso   1.00
H288   H     0.32465   0.35155   0.13411   0.00000  Uiso   1.00
H289   H     0.31650   0.40345   0.09829   0.00000  Uiso   1.00
H290   H     0.02590   0.37227   0.03084   0.00000  Uiso   1.00
N291   N     0.16667   0.61736   0.16667   0.00000  Uiso   1.00
N292   N     0.16667   0.38264   0.16667   0.00000  Uiso   1.00
O293   O     0.10655   0.53958   0.16666   0.00000  Uiso   1.00
O294   O     0.29335   0.57751   0.12735   0.00000  Uiso   1.00
O295   O     0.29253   0.42099   0.20012   0.00000  Uiso   1.00
O296   O     0.04091   0.58456   0.15465   0.00000  Uiso   1.00
O297   O     0.22679   0.46042   0.16667   0.00000  Uiso   1.00
O298   O     0.22679   0.53958   0.16667   0.00000  Uiso   1.00
O299   O     0.10655   0.46042   0.16666   0.00000  Uiso   1.00
O300   O     0.16667   0.53959   0.09613   0.00000  Uiso   1.00
O301   O     0.16667   0.46041   0.23720   0.00000  Uiso   1.00
O302   O     0.16667   0.53959   0.23720   0.00000  Uiso   1.00
O303   O     0.16667   0.46041   0.09613   0.00000  Uiso   1.00
O304   O     0.03936   0.41490   0.17624   0.00000  Uiso   1.00
C305   C     0.42063   0.49997   0.16650   0.00000  Uiso   1.00
C306   C     0.35411   0.54201   0.15855   0.00000  Uiso   1.00
C307   C     0.62363   0.49998   0.16598   0.00000  Uiso   1.00
C308   C     0.37581   0.49998   0.16605   0.00000  Uiso   1.00
C309   C     0.48481   0.35788   0.12756   0.00000  Uiso   1.00
C310   C     0.51549   0.64212   0.20562   0.00000  Uiso   1.00
C311   C     0.51507   0.35829   0.20581   0.00000  Uiso   1.00
C312   C     0.48439   0.64172   0.12778   0.00000  Uiso   1.00
C313   C     0.37825   0.39696   0.12797   0.00000  Uiso   1.00
C314   C     0.33883   0.37542   0.10688   0.00000  Uiso   1.00
C315   C     0.34784   0.34825   0.05980   0.00000  Uiso   1.00
C316   C     0.57917   0.50002   0.16680   0.00000  Uiso   1.00
C317   C     0.61347   0.56522   0.07911   0.00000  Uiso   1.00
C318   C     0.64897   0.55296   0.04412   0.00000  Uiso   1.00
C319   C     0.63369   0.54701   0.32466   0.00000  Uiso   1.00
C320   C     0.61899   0.42838   0.25095   0.00000  Uiso   1.00
C321   C     0.61306   0.38120   0.27627   0.00000  Uiso   1.00
C322   C     0.59167   0.38689   0.32586   0.00000  Uiso   1.00
C323   C     0.36565   0.61240   0.19677   0.00000  Uiso   1.00
C324   C     0.39411   0.60053   0.23986   0.00000  Uiso   1.00
C325   C     0.38580   0.63192   0.28419   0.00000  Uiso   1.00
C326   C     0.50009   0.49994   0.07355   0.00000  Uiso   1.00
C327   C     0.50013   0.50006   0.25978   0.00000  Uiso   1.00
C328   C     0.50023   0.49992   0.02185   0.00000  Uiso   1.00
C329   C     0.50024   0.50008   0.31147   0.00000  Uiso   1.00
C330   C     0.35381   0.45800   0.17338   0.00000  Uiso   1.00
C331   C     0.64540   0.53972   0.14990   0.00000  Uiso   1.00
C332   C     0.64523   0.46000   0.18110   0.00000  Uiso   1.00
Cu333  Cu    0.50000   0.54689   0.16667   0.00000  Uiso   1.00
Cu334  Cu    0.50000   0.45311   0.16667   0.00000  Uiso   1.00
H335   H     0.47245   0.37617   0.09617   0.00000  Uiso   1.00
H336   H     0.65280   0.66438   0.04649   0.00000  Uiso   1.00
H337   H     0.37119   0.65424   0.06679   0.00000  Uiso   1.00
H338   H     0.59699   0.59592   0.06401   0.00000  Uiso   1.00
H339   H     0.59100   0.53602   0.07935   0.00000  Uiso   1.00
H340   H     0.33925   0.58082   0.04535   0.00000  Uiso   1.00
H341   H     0.66345   0.51965   0.05571   0.00000  Uiso   1.00
H342   H     0.61011   0.51901   0.32272   0.00000  Uiso   1.00
H343   H     0.65961   0.53712   0.30038   0.00000  Uiso   1.00
H344   H     0.62033   0.58022   0.31108   0.00000  Uiso   1.00
H345   H     0.59104   0.45005   0.25585   0.00000  Uiso   1.00
H346   H     0.52813   0.62385   0.23686   0.00000  Uiso   1.00
H347   H     0.64518   0.44649   0.26951   0.00000  Uiso   1.00
H348   H     0.59468   0.35743   0.25260   0.00000  Uiso   1.00
H349   H     0.64341   0.36459   0.28188   0.00000  Uiso   1.00
H350   H     0.61015   0.40962   0.01727   0.00000  Uiso   1.00
H351   H     0.58771   0.35213   0.00993   0.00000  Uiso   1.00
H352   H     0.56091   0.40267   0.32087   0.00000  Uiso   1.00
H353   H     0.66630   0.61047   0.20849   0.00000  Uiso   1.00
H354   H     0.37140   0.64927   0.18694   0.00000  Uiso   1.00
H355   H     0.38968   0.56352   0.25086   0.00000  Uiso   1.00
H356   H     0.42645   0.60558   0.22848   0.00000  Uiso   1.00
H357   H     0.52676   0.37697   0.23740   0.00000  Uiso   1.00
H358   H     0.39122   0.33581   0.27460   0.00000  Uiso   1.00
H359   H     0.40660   0.62229   0.31485   0.00000  Uiso   1.00
H360   H     0.35370   0.62756   0.29669   0.00000  Uiso   1.00
H361   H     0.47148   0.62314   0.09670   0.00000  Uiso   1.00
H362   H     0.40170   0.36914   0.13035   0.00000  Uiso   1.00
H363   H     0.39059   0.42361   0.10200   0.00000  Uiso   1.00
H364   H     0.65798   0.35155   0.13411   0.00000  Uiso   1.00
H365   H     0.64983   0.40345   0.09829   0.00000  Uiso   1.00
H366   H     0.35924   0.37227   0.03084   0.00000  Uiso   1.00
N367   N     0.50000   0.61736   0.16667   0.00000  Uiso   1.00
N368   N     0.50000   0.38264   0.16667   0.00000  Uiso   1.00
O369   O     0.43988   0.53958   0.16666   0.00000  Uiso   1.00
O370   O     0.62668   0.57751   0.12735   0.00000  Uiso   1.00
O371   O     0.62587   0.42099   0.20012   0.00000  Uiso   1.00
O372   O     0.37424   0.58456   0.15465   0.00000  Uiso   1.00
O373   O     0.56012   0.46042   0.16667   0.00000  Uiso   1.00
O374   O     0.56012   0.53958   0.16667   0.00000  Uiso   1.00
O375   O     0.43988   0.46042   0.16666   0.00000  Uiso   1.00
O376   O     0.50000   0.53959   0.09613   0.00000  Uiso   1.00
O377   O     0.50000   0.46041   0.23720   0.00000  Uiso   1.00
O378   O     0.50000   0.53959   0.23720   0.00000  Uiso   1.00
O379   O     0.50000   0.46041   0.09613   0.00000  Uiso   1.00
O380   O     0.37269   0.41490   0.17624   0.00000  Uiso   1.00
C381   C     0.75396   0.49997   0.16650   0.00000  Uiso   1.00
C382   C     0.68745   0.54201   0.15855   0.00000  Uiso   1.00
C383   C     0.95696   0.49998   0.16598   0.00000  Uiso   1.00
C384   C     0.70915   0.49998   0.16605   0.00000  Uiso   1.00
C385   C     0.81814   0.35788   0.12756   0.00000  Uiso   1.00
C386   C     0.84882   0.64212   0.20562   0.00000  Uiso   1.00
C387   C     0.84841   0.35829   0.20581   0.00000  Uiso   1.00
C388   C     0.81772   0.64172   0.12778   0.00000  Uiso   1.00
C389   C     0.71159   0.39696   0.12797   0.00000  Uiso   1.00
C390   C     0.67216   0.37542   0.10688   0.00000  Uiso   1.00
C391   C     0.68117   0.34825   0.05980   0.00000  Uiso   1.00
C392   C     0.91251   0.50002   0.16680   0.00000  Uiso   1.00
C393   C     0.94680   0.56522   0.07911   0.00000  Uiso   1.00
C394   C     0.98230   0.55296   0.04412   0.00000  Uiso   1.00
C395   C     0.96703   0.54701   0.32466   0.00000  Uiso   1.00
C396   C     0.95232   0.42838   0.25095   0.00000  Uiso   1.00
C397   C     0.94640   0.38120   0.27627   0.00000  Uiso   1.00
C398   C     0.92500   0.38689   0.32586   0.00000  Uiso   1.00
C399   C     0.69898   0.61240   0.19677   0.00000  Uiso   1.00
C400   C     0.72744   0.60053   0.23986   0.00000  Uiso   1.00
C401   C     0.71913   0.63192   0.28419   0.00000  Uiso   1.00
C402   C     0.83343   0.49994   0.07355   0.00000  Uiso   1.00
C403   C     0.83346   0.50006   0.25978   0.00000  Uiso   1.00
C404   C     0.83356   0.49992   0.02185   0.00000  Uiso   1.00
C405   C     0.83357   0.50008   0.31147   0.00000  Uiso   1.00
C406   C     0.68714   0.45800   0.17338   0.00000  Uiso   1.00
C407   C     0.97873   0.53972   0.14990   0.00000  Uiso   1.00
C408   C     0.97857   0.46000   0.18110   0.00000  Uiso   1.00
Cu409  Cu    0.83333   0.54689   0.16667   0.00000  Uiso   1.00
Cu410  Cu    0.83333   0.45311   0.16667   0.00000  Uiso   1.00
H411   H     0.80578   0.37617   0.09617   0.00000  Uiso   1.00
H412   H     0.98613   0.66438   0.04649   0.00000  Uiso   1.00
H413   H     0.70453   0.65424   0.06679   0.00000  Uiso   1.00
H414   H     0.93032   0.59592   0.06401   0.00000  Uiso   1.00
H415   H     0.92434   0.53602   0.07935   0.00000  Uiso   1.00
H416   H     0.67258   0.58082   0.04535   0.00000  Uiso   1.00
H417   H     0.99678   0.51965   0.05571   0.00000  Uiso   1.00
H418   H     0.94344   0.51901   0.32272   0.00000  Uiso   1.00
H419   H     0.99294   0.53712   0.30038   0.00000  Uiso   1.00
H420   H     0.95366   0.58022   0.31108   0.00000  Uiso   1.00
H421   H     0.92438   0.45005   0.25585   0.00000  Uiso   1.00
H422   H     0.86147   0.62385   0.23686   0.00000  Uiso   1.00
H423   H     0.97851   0.44649   0.26951   0.00000  Uiso   1.00
H424   H     0.92801   0.35743   0.25260   0.00000  Uiso   1.00
H425   H     0.97674   0.36459   0.28188   0.00000  Uiso   1.00
H426   H     0.94348   0.40962   0.01727   0.00000  Uiso   1.00
H427   H     0.92104   0.35213   0.00993   0.00000  Uiso   1.00
H428   H     0.89424   0.40267   0.32087   0.00000  Uiso   1.00
H429   H     0.99963   0.61047   0.20849   0.00000  Uiso   1.00
H430   H     0.70474   0.64927   0.18694   0.00000  Uiso   1.00
H431   H     0.72301   0.56352   0.25086   0.00000  Uiso   1.00
H432   H     0.75978   0.60558   0.22848   0.00000  Uiso   1.00
H433   H     0.86010   0.37697   0.23740   0.00000  Uiso   1.00
H434   H     0.72455   0.33581   0.27460   0.00000  Uiso   1.00
H435   H     0.73993   0.62229   0.31485   0.00000  Uiso   1.00
H436   H     0.68703   0.62756   0.29669   0.00000  Uiso   1.00
H437   H     0.80481   0.62314   0.09670   0.00000  Uiso   1.00
H438   H     0.73503   0.36914   0.13035   0.00000  Uiso   1.00
H439   H     0.72392   0.42361   0.10200   0.00000  Uiso   1.00
H440   H     0.99131   0.35155   0.13411   0.00000  Uiso   1.00
H441   H     0.98316   0.40345   0.09829   0.00000  Uiso   1.00
H442   H     0.69257   0.37227   0.03084   0.00000  Uiso   1.00
N443   N     0.83333   0.61736   0.16667   0.00000  Uiso   1.00
N444   N     0.83333   0.38264   0.16667   0.00000  Uiso   1.00
O445   O     0.77321   0.53958   0.16666   0.00000  Uiso   1.00
O446   O     0.96001   0.57751   0.12735   0.00000  Uiso   1.00
O447   O     0.95920   0.42099   0.20012   0.00000  Uiso   1.00
O448   O     0.70757   0.58456   0.15465   0.00000  Uiso   1.00
O449   O     0.89345   0.46042   0.16667   0.00000  Uiso   1.00
O450   O     0.89345   0.53958   0.16667   0.00000  Uiso   1.00
O451   O     0.77321   0.46042   0.16666   0.00000  Uiso   1.00
O452   O     0.83333   0.53959   0.09613   0.00000  Uiso   1.00
O453   O     0.83333   0.46041   0.23720   0.00000  Uiso   1.00
O454   O     0.83333   0.53959   0.23720   0.00000  Uiso   1.00
O455   O     0.83333   0.46041   0.09613   0.00000  Uiso   1.00
O456   O     0.70603   0.41490   0.17624   0.00000  Uiso   1.00
C457   C     0.08729   0.83331   0.16650   0.00000  Uiso   1.00
C458   C     0.02078   0.87535   0.15855   0.00000  Uiso   1.00
C459   C     0.29030   0.83331   0.16598   0.00000  Uiso   1.00
C460   C     0.04248   0.83331   0.16605   0.00000  Uiso   1.00
C461   C     0.15148   0.69122   0.12756   0.00000  Uiso   1.00
C462   C     0.18216   0.97545   0.20562   0.00000  Uiso   1.00
C463   C     0.18174   0.69162   0.20581   0.00000  Uiso   1.00
C464   C     0.15105   0.97505   0.12778   0.00000  Uiso   1.00
C465   C     0.04492   0.73029   0.12797   0.00000  Uiso   1.00
C466   C     0.00549   0.70876   0.10688   0.00000  Uiso   1.00
C467   C     0.01451   0.68158   0.05980   0.00000  Uiso   1.00
C468   C     0.24584   0.83335   0.16680   0.00000  Uiso   1.00
C469   C     0.28014   0.89855   0.07911   0.00000  Uiso   1.00
C470   C     0.31563   0.88629   0.04412   0.00000  Uiso   1.00
C471   C     0.30036   0.88034   0.32466   0.00000  Uiso   1.00
C472   C     0.28566   0.76171   0.25095   0.00000  Uiso   1.00
C473   C     0.27973   0.71453   0.27627   0.00000  Uiso   1.00
C474   C     0.25834   0.72022   0.32586   0.00000  Uiso   1.00
C475   C     0.03231   0.94573   0.19677   0.00000  Uiso   1.00
C476   C     0.06078   0.93387   0.23986   0.00000  Uiso   1.00
C477   C     0.05246   0.96525   0.28419   0.00000  Uiso   1.00
C478   C     0.16676   0.83327   0.07355   0.00000  Uiso   1.00
C479   C     0.16679   0.83339   0.25978   0.00000  Uiso   1.00
C480   C     0.16689   0.83325   0.02185   0.00000  Uiso   1.00
C481   C     0.16690   0.83341   0.31147   0.00000  Uiso   1.00
C482   C     0.02047   0.79134   0.17338   0.00000  Uiso   1.00
C483   C     0.31206   0.87305   0.14990   0.00000  Uiso   1.00
C484   C     0.31190   0.79333   0.18110   0.00000  Uiso   1.00
Cu485  Cu    0.16667   0.88022   0.16667   0.00000  Uiso   1.00
Cu486  Cu    0.16667   0.78645   0.16667   0.00000  Uiso   1.00
H487   H     0.13912   0.70951   0.09617   0.00000  Uiso   1.00
H488   H     0.31946   0.99771   0.04649   0.00000  Uiso   1.00
H489   H     0.03786   0.98758   0.06679   0.00000  Uiso   1.00
H490   H     0.26366   0.92926   0.06401   0.00000  Uiso   1.00
H491   H     0.25767   0.86936   0.07935   0.00000  Uiso   1.00
H492   H     0.00592   0.91415   0.04535   0.00000  Uiso   1.00
H493   H     0.33011   0.85298   0.05571   0.00000  Uiso   1.00
H494   H     0.27677   0.85234   0.32272   0.00000  Uiso   1.00
H495   H     0.32628   0.87046   0.30038   0.00000  Uiso   1.00
H496   H     0.28700   0.91356   0.31108   0.00000  Uiso   1.00
H497   H     0.25771   0.78338   0.25585   0.00000  Uiso   1.00
H498   H     0.19480   0.95718   0.23686   0.00000  Uiso   1.00
H499   H     0.31185   0.77982   0.26951   0.00000  Uiso   1.00
H500   H     0.26135   0.69077   0.25260   0.00000  Uiso   1.00
H501   H     0.31007   0.69793   0.28188   0.00000  Uiso   1.00
H502   H     0.27681   0.74296   0.01727   0.00000  Uiso   1.00
H503   H     0.25437   0.68547   0.00993   0.00000  Uiso   1.00
H504   H     0.22757   0.73600   0.32087   0.00000  Uiso   1.00
H505   H     0.33296   0.94380   0.20849   0.00000  Uiso   1.00
H506   H     0.03807   0.98261   0.18694   0.00000  Uiso   1.00
H507   H     0.05634   0.89685   0.25086   0.00000  Uiso   1.00
H508   H     0.09311   0.93891   0.22848   0.00000  Uiso   1.00
H509   H     0.19343   0.71031   0.23740   0.00000  Uiso   1.00
H510   H     0.05788   0.66915   0.27460   0.00000  Uiso   1.00
H511   H     0.07327   0.95563   0.31485   0.00000  Uiso   1.00
H512   H     0.02036   0.96089   0.29669   0.00000  Uiso   1.00
H513   H     0.13815   0.95647   0.09670   0.00000  Uiso   1.00
H514   H     0.06836   0.70247   0.13035   0.00000  Uiso   1.00
H515   H     0.05725   0.75694   0.10200   0.00000  Uiso   1.00
H516   H     0.32465   0.68488   0.13411   0.00000  Uiso   1.00
H517   H     0.31650   0.73678   0.09829   0.00000  Uiso   1.00
H518   H     0.02590   0.70560   0.03084   0.00000  Uiso   1.00
N519   N     0.16667   0.95069   0.16667   0.00000  Uiso   1.00
N520   N     0.16667   0.71598   0.16667   0.00000  Uiso   1.00
O521   O     0.10655   0.87291   0.16666   0.00000  Uiso   1.00
O522   O     0.29335   0.91084   0.12735   0.00000  Uiso   1.00
O523   O     0.29253   0.75432   0.20012   0.00000  Uiso   1.00
O524   O     0.04091   0.91789   0.15465   0.00000  Uiso   1.00
O525   O     0.22679   0.79375   0.16667   0.00000  Uiso   1.00
O526   O     0.22679   0.87291   0.16667   0.00000  Uiso   1.00
O527   O     0.10655   0.79375   0.16666   0.00000  Uiso   1.00
O528   O     0.16667   0.87292   0.09613   0.00000  Uiso   1.00
O529   O     0.16667   0.79375   0.23720   0.00000  Uiso   1.00
O530   O     0.16667   0.87292   0.23720   0.00000  Uiso   1.00
O531   O     0.16667   0.79375   0.09613   0.00000  Uiso   1.00
O532   O     0.03936   0.74823   0.17624   0.00000  Uiso   1.00
C533   C     0.42063   0.83331   0.16650   0.00000  Uiso   1.00
C534   C     0.35411   0.87535   0.15855   0.00000  Uiso   1.00
C535   C     0.62363   0.83331   0.16598   0.00000  Uiso   1.00
C536   C     0.37581   0.83331   0.16605   0.00000  Uiso   1.00
C537   C     0.48481   0.69122   0.12756   0.00000  Uiso   1.00
C538   C     0.51549   0.97545   0.20562   0.00000  Uiso   1.00
C539   C     0.51507   0.69162   0.20581   0.00000  Uiso   1.00
C540   C     0.48439   0.97505   0.12778   0.00000  Uiso   1.00
C541   C     0.37825   0.73029   0.12797   0.00000  Uiso   1.00
C542   C     0.33883   0.70876   0.10688   0.00000  Uiso   1.00
C543   C     0.34784   0.68158   0.05980   0.00000  Uiso   1.00
C544   C     0.57917   0.83335   0.16680   0.00000  Uiso   1.00
C545   C     0.61347   0.89855   0.07911   0.00000  Uiso   1.00
C546   C     0.64897   0.88629   0.04412   0.00000  Uiso   1.00
C547   C     0.63369   0.88034   0.32466   0.00000  Uiso   1.00
C548   C     0.61899   0.76171   0.25095   0.00000  Uiso   1.00
C549   C     0.61306   0.71453   0.27627   0.00000  Uiso   1.00
C550   C     0.59167   0.72022   0.32586   0.00000  Uiso   1.00
C551   C     0.36565   0.94573   0.19677   0.00000  Uiso   1.00
C552   C     0.39411   0.93387   0.23986   0.00000  Uiso   1.00
C553   C     0.38580   0.96525   0.28419   0.00000  Uiso   1.00
C554   C     0.50009   0.83327   0.07355   0.00000  Uiso   1.00
C555   C     0.50013   0.83339   0.25978   0.00000  Uiso   1.00
C556   C     0.50023   0.83325   0.02185   0.00000  Uiso   1.00
C557   C     0.50024   0.83341   0.31147   0.00000  Uiso   1.00
C558   C     0.35381   0.79134   0.17338   0.00000  Uiso   1.00
C559   C     0.64540   0.87305   0.14990   0.00000  Uiso   1.00
C560   C     0.64523   0.79333   0.18110   0.00000  Uiso   1.00
Cu561  Cu    0.50000   0.88022   0.16667   0.00000  Uiso   1.00
Cu562  Cu    0.50000   0.78645   0.16667   0.00000  Uiso   1.00
H563   H     0.47245   0.70951   0.09617   0.00000  Uiso   1.00
H564   H     0.65280   0.99771   0.04649   0.00000  Uiso   1.00
H565   H     0.37119   0.98758   0.06679   0.00000  Uiso   1.00
H566   H     0.59699   0.92926   0.06401   0.00000  Uiso   1.00
H567   H     0.59100   0.86936   0.07935   0.00000  Uiso   1.00
H568   H     0.33925   0.91415   0.04535   0.00000  Uiso   1.00
H569   H     0.66345   0.85298   0.05571   0.00000  Uiso   1.00
H570   H     0.61011   0.85234   0.32272   0.00000  Uiso   1.00
H571   H     0.65961   0.87046   0.30038   0.00000  Uiso   1.00
H572   H     0.62033   0.91356   0.31108   0.00000  Uiso   1.00
H573   H     0.59104   0.78338   0.25585   0.00000  Uiso   1.00
H574   H     0.52813   0.95718   0.23686   0.00000  Uiso   1.00
H575   H     0.64518   0.77982   0.26951   0.00000  Uiso   1.00
H576   H     0.59468   0.69077   0.25260   0.00000  Uiso   1.00
H577   H     0.64341   0.69793   0.28188   0.00000  Uiso   1.00
H578   H     0.61015   0.74296   0.01727   0.00000  Uiso   1.00
H579   H     0.58771   0.68547   0.00993   0.00000  Uiso   1.00
H580   H     0.56091   0.73600   0.32087   0.00000  Uiso   1.00
H581   H     0.66630   0.94380   0.20849   0.00000  Uiso   1.00
H582   H     0.37140   0.98261   0.18694   0.00000  Uiso   1.00
H583   H     0.38968   0.89685   0.25086   0.00000  Uiso   1.00
H584   H     0.42645   0.93891   0.22848   0.00000  Uiso   1.00
H585   H     0.52676   0.71031   0.23740   0.00000  Uiso   1.00
H586   H     0.39122   0.66915   0.27460   0.00000  Uiso   1.00
H587   H     0.40660   0.95563   0.31485   0.00000  Uiso   1.00
H588   H     0.35370   0.96089   0.29669   0.00000  Uiso   1.00
H589   H     0.47148   0.95647   0.09670   0.00000  Uiso   1.00
H590   H     0.40170   0.70247   0.13035   0.00000  Uiso   1.00
H591   H     0.39059   0.75694   0.10200   0.00000  Uiso   1.00
H592   H     0.65798   0.68488   0.13411   0.00000  Uiso   1.00
H593   H     0.64983   0.73678   0.09829   0.00000  Uiso   1.00
H594   H     0.35924   0.70560   0.03084   0.00000  Uiso   1.00
N595   N     0.50000   0.95069   0.16667   0.00000  Uiso   1.00
N596   N     0.50000   0.71598   0.16667   0.00000  Uiso   1.00
O597   O     0.43988   0.87291   0.16666   0.00000  Uiso   1.00
O598   O     0.62668   0.91084   0.12735   0.00000  Uiso   1.00
O599   O     0.62587   0.75432   0.20012   0.00000  Uiso   1.00
O600   O     0.37424   0.91789   0.15465   0.00000  Uiso   1.00
O601   O     0.56012   0.79375   0.16667   0.00000  Uiso   1.00
O602   O     0.56012   0.87291   0.16667   0.00000  Uiso   1.00
O603   O     0.43988   0.79375   0.16666   0.00000  Uiso   1.00
O604   O     0.50000   0.87292   0.09613   0.00000  Uiso   1.00
O605   O     0.50000   0.79375   0.23720   0.00000  Uiso   1.00
O606   O     0.50000   0.87292   0.23720   0.00000  Uiso   1.00
O607   O     0.50000   0.79375   0.09613   0.00000  Uiso   1.00
O608   O     0.37269   0.74823   0.17624   0.00000  Uiso   1.00
C609   C     0.75396   0.83331   0.16650   0.00000  Uiso   1.00
C610   C     0.68745   0.87535   0.15855   0.00000  Uiso   1.00
C611   C     0.95696   0.83331   0.16598   0.00000  Uiso   1.00
C612   C     0.70915   0.83331   0.16605   0.00000  Uiso   1.00
C613   C     0.81814   0.69122   0.12756   0.00000  Uiso   1.00
C614   C     0.84882   0.97545   0.20562   0.00000  Uiso   1.00
C615   C     0.84841   0.69162   0.20581   0.00000  Uiso   1.00
C616   C     0.81772   0.97505   0.12778   0.00000  Uiso   1.00
C617   C     0.71159   0.73029   0.12797   0.00000  Uiso   1.00
C618   C     0.67216   0.70876   0.10688   0.00000  Uiso   1.00
C619   C     0.68117   0.68158   0.05980   0.00000  Uiso   1.00
C620   C     0.91251   0.83335   0.16680   0.00000  Uiso   1.00
C621   C     0.94680   0.89855   0.07911   0.00000  Uiso   1.00
C622   C     0.98230   0.88629   0.04412   0.00000  Uiso   1.00
C623   C     0.96703   0.88034   0.32466   0.00000  Uiso   1.00
C624   C     0.95232   0.76171   0.25095   0.00000  Uiso   1.00
C625   C     0.94640   0.71453   0.27627   0.00000  Uiso   1.00
C626   C     0.92500   0.72022   0.32586   0.00000  Uiso   1.00
C627   C     0.69898   0.94573   0.19677   0.00000  Uiso   1.00
C628   C     0.72744   0.93387   0.23986   0.00000  Uiso   1.00
C629   C     0.71913   0.96525   0.28419   0.00000  Uiso   1.00
C630   C     0.83343   0.83327   0.07355   0.00000  Uiso   1.00
C631   C     0.83346   0.83339   0.25978   0.00000  Uiso   1.00
C632   C     0.83356   0.83325   0.02185   0.00000  Uiso   1.00
C633   C     0.83357   0.83341   0.31147   0.00000  Uiso   1.00
C634   C     0.68714   0.79134   0.17338   0.00000  Uiso   1.00
C635   C     0.97873   0.87305   0.14990   0.00000  Uiso   1.00
C636   C     0.97857   0.79333   0.18110   0.00000  Uiso   1.00
Cu637  Cu    0.83333   0.88022   0.16667   0.00000  Uiso   1.00
Cu638  Cu    0.83333   0.78645   0.16667   0.00000  Uiso   1.00
H639   H     0.80578   0.70951   0.09617   0.00000  Uiso   1.00
H640   H     0.98613   0.99771   0.04649   0.00000  Uiso   1.00
H641   H     0.70453   0.98758   0.06679   0.00000  Uiso   1.00
H642   H     0.93032   0.92926   0.06401   0.00000  Uiso   1.00
H643   H     0.92434   0.86936   0.07935   0.00000  Uiso   1.00
H644   H     0.67258   0.91415   0.04535   0.00000  Uiso   1.00
H645   H     0.99678   0.85298   0.05571   0.00000  Uiso   1.00
H646   H     0.94344   0.85234   0.32272   0.00000  Uiso   1.00
H647   H     0.99294   0.87046   0.30038   0.00000  Uiso   1.00
H648   H     0.95366   0.91356   0.31108   0.00000  Uiso   1.00
H649   H     0.92438   0.78338   0.25585   0.00000  Uiso   1.00
H650   H     0.86147   0.95718   0.23686   0.00000  Uiso   1.00
H651   H     0.97851   0.77982   0.26951   0.00000  Uiso   1.00
H652   H     0.92801   0.69077   0.25260   0.00000  Uiso   1.00
H653   H     0.97674   0.69793   0.28188   0.00000  Uiso   1.00
H654   H     0.94348   0.74296   0.01727   0.00000  Uiso   1.00
H655   H     0.92104   0.68547   0.00993   0.00000  Uiso   1.00
H656   H     0.89424   0.73600   0.32087   0.00000  Uiso   1.00
H657   H     0.99963   0.94380   0.20849   0.00000  Uiso   1.00
H658   H     0.70474   0.98261   0.18694   0.00000  Uiso   1.00
H659   H     0.72301   0.89685   0.25086   0.00000  Uiso   1.00
H660   H     0.75978   0.93891   0.22848   0.00000  Uiso   1.00
H661   H     0.86010   0.71031   0.23740   0.00000  Uiso   1.00
H662   H     0.72455   0.66915   0.27460   0.00000  Uiso   1.00
H663   H     0.73993   0.95563   0.31485   0.00000  Uiso   1.00
H664   H     0.68703   0.96089   0.29669   0.00000  Uiso   1.00
H665   H     0.80481   0.95647   0.09670   0.00000  Uiso   1.00
H666   H     0.73503   0.70247   0.13035   0.00000  Uiso   1.00
H667   H     0.72392   0.75694   0.10200   0.00000  Uiso   1.00
H668   H     0.99131   0.68488   0.13411   0.00000  Uiso   1.00
H669   H     0.98316   0.73678   0.09829   0.00000  Uiso   1.00
H670   H     0.69257   0.70560   0.03084   0.00000  Uiso   1.00
N671   N     0.83333   0.95069   0.16667   0.00000  Uiso   1.00
N672   N     0.83333   0.71598   0.16667   0.00000  Uiso   1.00
O673   O     0.77321   0.87291   0.16666   0.00000  Uiso   1.00
O674   O     0.96001   0.91084   0.12735   0.00000  Uiso   1.00
O675   O     0.95920   0.75432   0.20012   0.00000  Uiso   1.00
O676   O     0.70757   0.91789   0.15465   0.00000  Uiso   1.00
O677   O     0.89345   0.79375   0.16667   0.00000  Uiso   1.00
O678   O     0.89345   0.87291   0.16667   0.00000  Uiso   1.00
O679   O     0.77321   0.79375   0.16666   0.00000  Uiso   1.00
O680   O     0.83333   0.87292   0.09613   0.00000  Uiso   1.00
O681   O     0.83333   0.79375   0.23720   0.00000  Uiso   1.00
O682   O     0.83333   0.87292   0.23720   0.00000  Uiso   1.00
O683   O     0.83333   0.79375   0.09613   0.00000  Uiso   1.00
O684   O     0.70603   0.74823   0.17624   0.00000  Uiso   1.00
C685   C     0.08729   0.16664   0.49983   0.00000  Uiso   1.00
C686   C     0.02078   0.20868   0.49189   0.00000  Uiso   1.00
C687   C     0.29030   0.16664   0.49931   0.00000  Uiso   1.00
C688   C     0.04248   0.16665   0.49939   0.00000  Uiso   1.00
C689   C     0.15148   0.02455   0.46089   0.00000  Uiso   1.00
C690   C     0.18216   0.30879   0.53895   0.00000  Uiso   1.00
C691   C     0.18174   0.02495   0.53914   0.00000  Uiso   1.00
C692   C     0.15105   0.30839   0.46111   0.00000  Uiso   1.00
C693   C     0.04492   0.06363   0.46130   0.00000  Uiso   1.00
C694   C     0.00549   0.04209   0.44021   0.00000  Uiso   1.00
C695   C     0.01451   0.01492   0.39313   0.00000  Uiso   1.00
C696   C     0.24584   0.16669   0.50013   0.00000  Uiso   1.00
C697   C     0.28014   0.23189   0.41244   0.00000  Uiso   1.00
C698   C     0.31563   0.21963   0.37745   0.00000  Uiso   1.00
C699   C     0.30036   0.21367   0.65799   0.00000  Uiso   1.00
C700   C     0.28566   0.09504   0.58428   0.00000  Uiso   1.00
C701   C     0.27973   0.04786   0.60961   0.00000  Uiso   1.00
C702   C     0.25834   0.05355   0.65920   0.00000  Uiso   1.00
C703   C     0.03231   0.27906   0.53010   0.00000  Uiso   1.00
C704   C     0.06078   0.26720   0.57320   0.00000  Uiso   1.00
C705   C     0.05246   0.29859   0.61753   0.00000  Uiso   1.00
C706   C     0.16676   0.16661   0.40689   0.00000  Uiso   1.00
C707   C     0.16679   0.16672   0.59311   0.00000  Uiso   1.00
C708   C     0.16689   0.16658   0.35519   0.00000  Uiso   1.00
C709   C     0.16690   0.16675   0.64481   0.00000  Uiso   1.00
C710   C     0.02047   0.12467   0.50671   0.00000  Uiso   1.00
C711   C     0.31206   0.20639   0.48323   0.00000  Uiso   1.00
C712   C     0.31190   0.12666   0.51444   0.00000  Uiso   1.00
Cu713  Cu    0.16667   0.21355   0.50000   0.00000  Uiso   1.00
Cu714  Cu    0.16667   0.11978   0.50000   0.00000  Uiso   1.00
H715   H     0.13912   0.04284   0.42951   0.00000  Uiso   1.00
H716   H     0.31946   0.33104   0.37982   0.00000  Uiso   1.00
H717   H     0.03786   0.32091   0.40012   0.00000  Uiso   1.00
H718   H     0.26366   0.26259   0.39734   0.00000  Uiso   1.00
H719   H     0.25767   0.20269   0.41268   0.00000  Uiso   1.00
H720   H     0.00592   0.24748   0.37868   0.00000  Uiso   1.00
H721   H     0.33011   0.18631   0.38904   0.00000  Uiso   1.00
H722   H     0.27677   0.18567   0.65606   0.00000  Uiso   1.00
H723   H     0.32628   0.20379   0.63372   0.00000  Uiso   1.00
H724   H     0.28700   0.24689   0.64441   0.00000  Uiso   1.00
H725   H     0.25771   0.11671   0.58918   0.00000  Uiso   1.00
H726   H     0.19480   0.29052   0.57019   0.00000  Uiso   1.00
H727   H     0.31185   0.11316   0.60284   0.00000  Uiso   1.00
H728   H     0.26135   0.02410   0.58593   0.00000  Uiso   1.00
H729   H     0.31007   0.03126   0.61522   0.00000  Uiso   1.00
H730   H     0.27681   0.07629   0.35060   0.00000  Uiso   1.00
H731   H     0.25437   0.01880   0.34326   0.00000  Uiso   1.00
H732   H     0.22757   0.06934   0.65420   0.00000  Uiso   1.00
H733   H     0.33296   0.27714   0.54183   0.00000  Uiso   1.00
H734   H     0.03807   0.31594   0.52028   0.00000  Uiso   1.00
H735   H     0.05634   0.23019   0.58420   0.00000  Uiso   1.00
H736   H     0.09311   0.27224   0.56181   0.00000  Uiso   1.00
H737   H     0.19343   0.04364   0.57073   0.00000  Uiso   1.00
H738   H     0.05788   0.00248   0.60794   0.00000  Uiso   1.00
H739   H     0.07327   0.28896   0.64818   0.00000  Uiso   1.00
H740   H     0.02036   0.29423   0.63002   0.00000  Uiso   1.00
H741   H     0.13815   0.28980   0.43004   0.00000  Uiso   1.00
H742   H     0.06836   0.03581   0.46368   0.00000  Uiso   1.00
H743   H     0.05725   0.09028   0.43533   0.00000  Uiso   1.00
H744   H     0.32465   0.01822   0.46745   0.00000  Uiso   1.00
H745   H     0.31650   0.07011   0.43162   0.00000  Uiso   1.00
H746   H     0.02590   0.03894   0.36418   0.00000  Uiso   1.00
N747   N     0.16667   0.28402   0.50000   0.00000  Uiso   1.00
N748   N     0.16667   0.04931   0.50000   0.00000  Uiso   1.00
O749   O     0.10655   0.20625   0.50000   0.00000  Uiso   1.00
O750   O     0.29335   0.24417   0.46068   0.00000  Uiso   1.00
O751   O     0.29253   0.08765   0.53345   0.00000  Uiso   1.00
O752   O     0.04091   0.25122   0.48798   0.00000  Uiso   1.00
O753   O     0.22679   0.12709   0.50000   0.00000  Uiso   1.00
O754   O     0.22679   0.20625   0.50000   0.00000  Uiso   1.00
O755   O     0.10655   0.12709   0.50000   0.00000  Uiso   1.00
O756   O     0.16667   0.20625   0.42946   0.00000  Uiso   1.00
O757   O     0.16667   0.12708   0.57054   0.00000  Uiso   1.00
O758   O     0.16667   0.20625   0.57054   0.00000  Uiso   1.00
O759   O     0.16667   0.12708   0.42946   0.00000  Uiso   1.00
O760   O     0.03936   0.08156   0.50958   0.00000  Uiso   1.00
C761   C     0.42063   0.16664   0.49983   0.00000  Uiso   1.00
C762   C     0.35411   0.20868   0.49189   0.00000  Uiso   1.00
C763   C     0.62363   0.16664   0.49931   0.00000  Uiso   1.00
C764   C     0.37581   0.16665   0.49939   0.00000  Uiso   1.00
C765   C     0.48481   0.02455   0.46089   0.00000  Uiso   1.00
C766   C     0.51549   0.30879   0.53895   0.00000  Uiso   1.00
C767   C     0.51507   0.02495   0.53914   0.00000  Uiso   1.00
C768   C     0.48439   0.30839   0.46111   0.00000  Uiso   1.00
C769   C     0.37825   0.06363   0.46130   0.00000  Uiso   1.00
C770   C     0.33883   0.04209   0.44021   0.00000  Uiso   1.00
C771   C     0.34784   0.01492   0.39313   0.00000  Uiso   1.00
C772   C     0.57917   0.16669   0.50013   0.00000  Uiso   1.00
C773   C     0.61347   0.23189   0.41244   0.00000  Uiso   1.00
C774   C     0.64897   0.21963   0.37745   0.00000  Uiso   1.00
C775   C     0.63369   0.21367   0.65799   0.00000  Uiso   1.00
C776   C     0.61899   0.09504   0.58428   0.00000  Uiso   1.00
C777   C     0.61306   0.04786   0.60961   0.00000  Uiso   1.00
C778   C     0.59167   0.05355   0.65920   0.00000  Uiso   1.00
C779   C     0.36565   0.27906   0.53010   0.00000  Uiso   1.00
C780   C     0.39411   0.26720   0.57320   0.00000  Uiso   1.00
C781   C     0.38580   0.29859   0.61753   0.00000  Uiso   1.00
C782   C     0.50009   0.16661   0.40689   0.00000  Uiso   1.00
C783   C     0.50013   0.16672   0.59311   0.00000  Uiso   1.00
C784   C     0.50023   0.16658   0.35519   0.00000  Uiso   1.00
C785   C     0.50024   0.16675   0.64481   0.00000  Uiso   1.00
C786   C     0.35381   0.12467   0.50671   0.00000  Uiso   1.00
C787   C     0.64540   0.20639   0.48323   0.00000  Uiso   1.00
C788   C     0.64523   0.12666   0.51444   0.00000  Uiso   1.00
Cu789  Cu    0.50000   0.21355   0.50000   0.00000  Uiso   1.00
Cu790  Cu    0.50000   0.11978   0.50000   0.00000  Uiso   1.00
H791   H     0.47245   0.04284   0.42951   0.00000  Uiso   1.00
H792   H     0.65280   0.33104   0.37982   0.00000  Uiso   1.00
H793   H     0.37119   0.32091   0.40012   0.00000  Uiso   1.00
H794   H     0.59699   0.26259   0.39734   0.00000  Uiso   1.00
H795   H     0.59100   0.20269   0.41268   0.00000  Uiso   1.00
H796   H     0.33925   0.24748   0.37868   0.00000  Uiso   1.00
H797   H     0.66345   0.18631   0.38904   0.00000  Uiso   1.00
H798   H     0.61011   0.18567   0.65606   0.00000  Uiso   1.00
H799   H     0.65961   0.20379   0.63372   0.00000  Uiso   1.00
H800   H     0.62033   0.24689   0.64441   0.00000  Uiso   1.00
H801   H     0.59104   0.11671   0.58918   0.00000  Uiso   1.00
H802   H     0.52813   0.29052   0.57019   0.00000  Uiso   1.00
H803   H     0.64518   0.11316   0.60284   0.00000  Uiso   1.00
H804   H     0.59468   0.02410   0.58593   0.00000  Uiso   1.00
H805   H     0.64341   0.03126   0.61522   0.00000  Uiso   1.00
H806   H     0.61015   0.07629   0.35060   0.00000  Uiso   1.00
H807   H     0.58771   0.01880   0.34326   0.00000  Uiso   1.00
H808   H     0.56091   0.06934   0.65420   0.00000  Uiso   1.00
H809   H     0.66630   0.27714   0.54183   0.00000  Uiso   1.00
H810   H     0.37140   0.31594   0.52028   0.00000  Uiso   1.00
H811   H     0.38968   0.23019   0.58420   0.00000  Uiso   1.00
H812   H     0.42645   0.27224   0.56181   0.00000  Uiso   1.00
H813   H     0.52676   0.04364   0.57073   0.00000  Uiso   1.00
H814   H     0.39122   0.00248   0.60794   0.00000  Uiso   1.00
H815   H     0.40660   0.28896   0.64818   0.00000  Uiso   1.00
H816   H     0.35370   0.29423   0.63002   0.00000  Uiso   1.00
H817   H     0.47148   0.28980   0.43004   0.00000  Uiso   1.00
H818   H     0.40170   0.03581   0.46368   0.00000  Uiso   1.00
H819   H     0.39059   0.09028   0.43533   0.00000  Uiso   1.00
H820   H     0.65798   0.01822   0.46745   0.00000  Uiso   1.00
H821   H     0.64983   0.07011   0.43162   0.00000  Uiso   1.00
H822   H     0.35924   0.03894   0.36418   0.00000  Uiso   1.00
N823   N     0.50000   0.28402   0.50000   0.00000  Uiso   1.00
N824   N     0.50000   0.04931   0.50000   0.00000  Uiso   1.00
O825   O     0.43988   0.20625   0.50000   0.00000  Uiso   1.00
O826   O     0.62668   0.24417   0.46068   0.00000  Uiso   1.00
O827   O     0.62587   0.08765   0.53345   0.00000  Uiso   1.00
O828   O     0.37424   0.25122   0.48798   0.00000  Uiso   1.00
O829   O     0.56012   0.12709   0.50000   0.00000  Uiso   1.00
O830   O     0.56012   0.20625   0.50000   0.00000  Uiso   1.00
O831   O     0.43988   0.12709   0.50000   0.00000  Uiso   1.00
O832   O     0.50000   0.20625   0.42946   0.00000  Uiso   1.00
O833   O     0.50000   0.12708   0.57054   0.00000  Uiso   1.00
O834   O     0.50000   0.20625   0.57054   0.00000  Uiso   1.00
O835   O     0.50000   0.12708   0.42946   0.00000  Uiso   1.00
O836   O     0.37269   0.08156   0.50958   0.00000  Uiso   1.00
C837   C     0.75396   0.16664   0.49983   0.00000  Uiso   1.00
C838   C     0.68745   0.20868   0.49189   0.00000  Uiso   1.00
C839   C     0.95696   0.16664   0.49931   0.00000  Uiso   1.00
C840   C     0.70915   0.16665   0.49939   0.00000  Uiso   1.00
C841   C     0.81814   0.02455   0.46089   0.00000  Uiso   1.00
C842   C     0.84882   0.30879   0.53895   0.00000  Uiso   1.00
C843   C     0.84841   0.02495   0.53914   0.00000  Uiso   1.00
C844   C     0.81772   0.30839   0.46111   0.00000  Uiso   1.00
C845   C     0.71159   0.06363   0.46130   0.00000  Uiso   1.00
C846   C     0.67216   0.04209   0.44021   0.00000  Uiso   1.00
C847   C     0.68117   0.01492   0.39313   0.00000  Uiso   1.00
C848   C     0.91251   0.16669   0.50013   0.00000  Uiso   1.00
C849   C     0.94680   0.23189   0.41244   0.00000  Uiso   1.00
C850   C     0.98230   0.21963   0.37745   0.00000  Uiso   1.00
C851   C     0.96703   0.21367   0.65799   0.00000  Uiso   1.00
C852   C     0.95232   0.09504   0.58428   0.00000  Uiso   1.00
C853   C     0.94640   0.04786   0.60961   0.00000  Uiso   1.00
C854   C     0.92500   0.05355   0.65920   0.00000  Uiso   1.00
C855   C     0.69898   0.27906   0.53010   0.00000  Uiso   1.00
C856   C     0.72744   0.26720   0.57320   0.00000  Uiso   1.00
C857   C     0.71913   0.29859   0.61753   0.00000  Uiso   1.00
C858   C     0.83343   0.16661   0.40689   0.00000  Uiso   1.00
C859   C     0.83346   0.16672   0.59311   0.00000  Uiso   1.00
C860   C     0.83356   0.16658   0.35519   0.00000  Uiso   1.00
C861   C     0.83357   0.16675   0.64481   0.00000  Uiso   1.00
C862   C     0.68714   0.12467   0.50671   0.00000  Uiso   1.00
C863   C     0.97873   0.20639   0.48323   0.00000  Uiso   1.00
C864   C     0.97857   0.12666   0.51444   0.00000  Uiso   1.00
Cu865  Cu    0.83333   0.21355   0.50000   0.00000  Uiso   1.00
Cu866  Cu    0.83333   0.11978   0.50000   0.00000  Uiso   1.00
H867   H     0.80578   0.04284   0.42951   0.00000  Uiso   1.00
H868   H     0.98613   0.33104   0.37982   0.00000  Uiso   1.00
H869   H     0.70453   0.32091   0.40012   0.00000  Uiso   1.00
H870   H     0.93032   0.26259   0.39734   0.00000  Uiso   1.00
H871   H     0.92434   0.20269   0.41268   0.00000  Uiso   1.00
H872   H     0.67258   0.24748   0.37868   0.00000  Uiso   1.00
H873   H     0.99678   0.18631   0.38904   0.00000  Uiso   1.00
H874   H     0.94344   0.18567   0.65606   0.00000  Uiso   1.00
H875   H     0.99294   0.20379   0.63372   0.00000  Uiso   1.00
H876   H     0.95366   0.24689   0.64441   0.00000  Uiso   1.00
H877   H     0.92438   0.11671   0.58918   0.00000  Uiso   1.00
H878   H     0.86147   0.29052   0.57019   0.00000  Uiso   1.00
H879   H     0.97851   0.11316   0.60284   0.00000  Uiso   1.00
H880   H     0.92801   0.02410   0.58593   0.00000  Uiso   1.00
H881   H     0.97674   0.03126   0.61522   0.00000  Uiso   1.00
H882   H     0.94348   0.07629   0.35060   0.00000  Uiso   1.00
H883   H     0.92104   0.01880   0.34326   0.00000  Uiso   1.00
H884   H     0.89424   0.06934   0.65420   0.00000  Uiso   1.00
H885   H     0.99963   0.27714   0.54183   0.00000  Uiso   1.00
H886   H     0.70474   0.31594   0.52028   0.00000  Uiso   1.00
H887   H     0.72301   0.23019   0.58420   0.00000  Uiso   1.00
H888   H     0.75978   0.27224   0.56181   0.00000  Uiso   1.00
H889   H     0.86010   0.04364   0.57073   0.00000  Uiso   1.00
H890   H     0.72455   0.00248   0.60794   0.00000  Uiso   1.00
H891   H     0.73993   0.28896   0.64818   0.00000  Uiso   1.00
H892   H     0.68703   0.29423   0.63002   0.00000  Uiso   1.00
H893   H     0.80481   0.28980   0.43004   0.00000  Uiso   1.00
H894   H     0.73503   0.03581   0.46368   0.00000  Uiso   1.00
H895   H     0.72392   0.09028   0.43533   0.00000  Uiso   1.00
H896   H     0.99131   0.01822   0.46745   0.00000  Uiso   1.00
H897   H     0.98316   0.07011   0.43162   0.00000  Uiso   1.00
H898   H     0.69257   0.03894   0.36418   0.00000  Uiso   1.00
N899   N     0.83333   0.28402   0.50000   0.00000  Uiso   1.00
N900   N     0.83333   0.04931   0.50000   0.00000  Uiso   1.00
O901   O     0.77321   0.20625   0.50000   0.00000  Uiso   1.00
O902   O     0.96001   0.24417   0.46068   0.00000  Uiso   1.00
O903   O     0.95920   0.08765   0.53345   0.00000  Uiso   1.00
O904   O     0.70757   0.25122   0.48798   0.00000  Uiso   1.00
O905   O     0.89345   0.12709   0.50000   0.00000  Uiso   1.00
O906   O     0.89345   0.20625   0.50000   0.00000  Uiso   1.00
O907   O     0.77321   0.12709   0.50000   0.00000  Uiso   1.00
O908   O     0.83333   0.20625   0.42946   0.00000  Uiso   1.00
O909   O     0.83333   0.12708   0.57054   0.00000  Uiso   1.00
O910   O     0.83333   0.20625   0.57054   0.00000  Uiso   1.00
O911   O     0.83333   0.12708   0.42946   0.00000  Uiso   1.00
O912   O     0.70603   0.08156   0.50958   0.00000  Uiso   1.00
C913   C     0.08729   0.49997   0.49983   0.00000  Uiso   1.00
C914   C     0.02078   0.54201   0.49189   0.00000  Uiso   1.00
C915   C     0.29030   0.49998   0.49931   0.00000  Uiso   1.00
C916   C     0.04248   0.49998   0.49939   0.00000  Uiso   1.00
C917   C     0.15148   0.35788   0.46089   0.00000  Uiso   1.00
C918   C     0.18216   0.64212   0.53895   0.00000  Uiso   1.00
C919   C     0.18174   0.35829   0.53914   0.00000  Uiso   1.00
C920   C     0.15105   0.64172   0.46111   0.00000  Uiso   1.00
C921   C     0.04492   0.39696   0.46130   0.00000  Uiso   1.00
C922   C     0.00549   0.37542   0.44021   0.00000  Uiso   1.00
C923   C     0.01451   0.34825   0.39313   0.00000  Uiso   1.00
C924   C     0.24584   0.50002   0.50013   0.00000  Uiso   1.00
C925   C     0.28014   0.56522   0.41244   0.00000  Uiso   1.00
C926   C     0.31563   0.55296   0.37745   0.00000  Uiso   1.00
C927   C     0.30036   0.54701   0.65799   0.00000  Uiso   1.00
C928   C     0.28566   0.42838   0.58428   0.00000  Uiso   1.00
C929   C     0.27973   0.38120   0.60961   0.00000  Uiso   1.00
C930   C     0.25834   0.38689   0.65920   0.00000  Uiso   1.00
C931   C     0.03231   0.61240   0.53010   0.00000  Uiso   1.00
C932   C     0.06078   0.60053   0.57320   0.00000  Uiso   1.00
C933   C     0.05246   0.63192   0.61753   0.00000  Uiso   1.00
C934   C     0.16676   0.49994   0.40689   0.00000  Uiso   1.00
C935   C     0.16679   0.50006   0.59311   0.00000  Uiso   1.00
C936   C     0.16689   0.49992   0.35519   0.00000  Uiso   1.00
C937   C     0.16690   0.50008   0.64481   0.00000  Uiso   1.00
C938   C     0.02047   0.45800   0.50671   0.00000  Uiso   1.00
C939   C     0.31206   0.53972   0.48323   0.00000  Uiso   1.00
C940   C     0.31190   0.46000   0.51444   0.00000  Uiso   1.00
Cu941  Cu    0.16667   0.54689   0.50000   0.00000  Uiso   1.00
Cu942  Cu    0.16667   0.45311   0.50000   0.00000  Uiso   1.00
H943   H     0.13912   0.37617   0.42951   0.00000  Uiso   1.00
H944   H     0.31946   0.66438   0.37982   0.00000  Uiso   1.00
H945   H     0.03786   0.65424   0.40012   0.00000  Uiso   1.00
H946   H     0.26366   0.59592   0.39734   0.00000  Uiso   1.00
H947   H     0.25767   0.53602   0.41268   0.00000  Uiso   1.00
H948   H     0.00592   0.58082   0.37868   0.00000  Uiso   1.00
H949   H     0.33011   0.51965   0.38904   0.00000  Uiso   1.00
H950   H     0.27677   0.51901   0.65606   0.00000  Uiso   1.00
H951   H     0.32628   0.53712   0.63372   0.00000  Uiso   1.00
H952   H     0.28700   0.58022   0.64441   0.00000  Uiso   1.00
H953   H     0.25771   0.45005   0.58918   0.00000  Uiso   1.00
H954   H     0.19480   0.62385   0.57019   0.00000  Uiso   1.00
H955   H     0.31185   0.44649   0.60284   0.00000  Uiso   1.00
H956   H     0.26135   0.35743   0.58593   0.00000  Uiso   1.00
H957   H     0.31007   0.36459   0.61522   0.00000  Uiso   1.00
H958   H     0.27681   0.40962   0.35060   0.00000  Uiso   1.00
H959   H     0.25437   0.35213   0.34326   0.00000  Uiso   1.00
H960   H     0.22757   0.40267   0.65420   0.00000  Uiso   1.00
H961   H     0.33296   0.61047   0.54183   0.00000  Uiso   1.00
H962   H     0.03807   0.64927   0.52028   0.00000  Uiso   1.00
H963   H     0.05634   0.56352   0.58420   0.00000  Uiso   1.00
H964   H     0.09311   0.60558   0.56181   0.00000  Uiso   1.00
H965   H     0.19343   0.37697   0.57073   0.00000  Uiso   1.00
H966   H     0.05788   0.33581   0.60794   0.00000  Uiso   1.00
H967   H     0.07327   0.62229   0.64818   0.00000  Uiso   1.00
H968   H     0.02036   0.62756   0.63002   0.00000  Uiso   1.00
H969   H     0.13815   0.62314   0.43004   0.00000  Uiso   1.00
H970   H     0.06836   0.36914   0.46368   0.00000  Uiso   1.00
H971   H     0.05725   0.42361   0.43533   0.00000  Uiso   1.00
H972   H     0.32465   0.35155   0.46745   0.00000  Uiso   1.00
H973   H     0.31650   0.40345   0.43162   0.00000  Uiso   1.00
H974   H     0.02590   0.37227   0.36418   0.00000  Uiso   1.00
N975   N     0.16667   0.61736   0.50000   0.00000  Uiso   1.00
N976   N     0.16667   0.38264   0.50000   0.00000  Uiso   1.00
O977   O     0.10655   0.53958   0.50000   0.00000  Uiso   1.00
O978   O     0.29335   0.57751   0.46068   0.00000  Uiso   1.00
O979   O     0.29253   0.42099   0.53345   0.00000  Uiso   1.00
O980   O     0.04091   0.58456   0.48798   0.00000  Uiso   1.00
O981   O     0.22679   0.46042   0.50000   0.00000  Uiso   1.00
O982   O     0.22679   0.53958   0.50000   0.00000  Uiso   1.00
O983   O     0.10655   0.46042   0.50000   0.00000  Uiso   1.00
O984   O     0.16667   0.53959   0.42946   0.00000  Uiso   1.00
O985   O     0.16667   0.46041   0.57054   0.00000  Uiso   1.00
O986   O     0.16667   0.53959   0.57054   0.00000  Uiso   1.00
O987   O     0.16667   0.46041   0.42946   0.00000  Uiso   1.00
O988   O     0.03936   0.41490   0.50958   0.00000  Uiso   1.00
C989   C     0.42063   0.49997   0.49983   0.00000  Uiso   1.00
C990   C     0.35411   0.54201   0.49189   0.00000  Uiso   1.00
C991   C     0.62363   0.49998   0.49931   0.00000  Uiso   1.00
C992   C     0.37581   0.49998   0.49939   0.00000  Uiso   1.00
C993   C     0.48481   0.35788   0.46089   0.00000  Uiso   1.00
C994   C     0.51549   0.64212   0.53895   0.00000  Uiso   1.00
C995   C     0.51507   0.35829   0.53914   0.00000  Uiso   1.00
C996   C     0.48439   0.64172   0.46111   0.00000  Uiso   1.00
C997   C     0.37825   0.39696   0.46130   0.00000  Uiso   1.00
C998   C     0.33883   0.37542   0.44021   0.00000  Uiso   1.00
C999   C     0.34784   0.34825   0.39313   0.00000  Uiso   1.00
C1000  C     0.57917   0.50002   0.50013   0.00000  Uiso   1.00
C1001  C     0.61347   0.56522   0.41244   0.00000  Uiso   1.00
C1002  C     0.64897   0.55296   0.37745   0.00000  Uiso   1.00
C1003  C     0.63369   0.54701   0.65799   0.00000  Uiso   1.00
C1004  C     0.61899   0.42838   0.58428   0.00000  Uiso   1.00
C1005  C     0.61306   0.38120   0.60961   0.00000  Uiso   1.00
C1006  C     0.59167   0.38689   0.65920   0.00000  Uiso   1.00
C1007  C     0.36565   0.61240   0.53010   0.00000  Uiso   1.00
C1008  C     0.39411   0.60053   0.57320   0.00000  Uiso   1.00
C1009  C     0.38580   0.63192   0.61753   0.00000  Uiso   1.00
C1010  C     0.50009   0.49994   0.40689   0.00000  Uiso   1.00
C1011  C     0.50013   0.50006   0.59311   0.00000  Uiso   1.00
C1012  C     0.50023   0.49992   0.35519   0.00000  Uiso   1.00
C1013  C     0.50024   0.50008   0.64481   0.00000  Uiso   1.00
C1014  C     0.35381   0.45800   0.50671   0.00000  Uiso   1.00
C1015  C     0.64540   0.53972   0.48323   0.00000  Uiso   1.00
C1016  C     0.64523   0.46000   0.51444   0.00000  Uiso   1.00
Cu1017 Cu    0.50000   0.54689   0.50000   0.00000  Uiso   1.00
Cu1018 Cu    0.50000   0.45311   0.50000   0.00000  Uiso   1.00
H1019  H     0.47245   0.37617   0.42951   0.00000  Uiso   1.00
H1020  H     0.65280   0.66438   0.37982   0.00000  Uiso   1.00
H1021  H     0.37119   0.65424   0.40012   0.00000  Uiso   1.00
H1022  H     0.59699   0.59592   0.39734   0.00000  Uiso   1.00
H1023  H     0.59100   0.53602   0.41268   0.00000  Uiso   1.00
H1024  H     0.33925   0.58082   0.37868   0.00000  Uiso   1.00
H1025  H     0.66345   0.51965   0.38904   0.00000  Uiso   1.00
H1026  H     0.61011   0.51901   0.65606   0.00000  Uiso   1.00
H1027  H     0.65961   0.53712   0.63372   0.00000  Uiso   1.00
H1028  H     0.62033   0.58022   0.64441   0.00000  Uiso   1.00
H1029  H     0.59104   0.45005   0.58918   0.00000  Uiso   1.00
H1030  H     0.52813   0.62385   0.57019   0.00000  Uiso   1.00
H1031  H     0.64518   0.44649   0.60284   0.00000  Uiso   1.00
H1032  H     0.59468   0.35743   0.58593   0.00000  Uiso   1.00
H1033  H     0.64341   0.36459   0.61522   0.00000  Uiso   1.00
H1034  H     0.61015   0.40962   0.35060   0.00000  Uiso   1.00
H1035  H     0.58771   0.35213   0.34326   0.00000  Uiso   1.00
H1036  H     0.56091   0.40267   0.65420   0.00000  Uiso   1.00
H1037  H     0.66630   0.61047   0.54183   0.00000  Uiso   1.00
H1038  H     0.37140   0.64927   0.52028   0.00000  Uiso   1.00
H1039  H     0.38968   0.56352   0.58420   0.00000  Uiso   1.00
H1040  H     0.42645   0.60558   0.56181   0.00000  Uiso   1.00
H1041  H     0.52676   0.37697   0.57073   0.00000  Uiso   1.00
H1042  H     0.39122   0.33581   0.60794   0.00000  Uiso   1.00
H1043  H     0.40660   0.62229   0.64818   0.00000  Uiso   1.00
H1044  H     0.35370   0.62756   0.63002   0.00000  Uiso   1.00
H1045  H     0.47148   0.62314   0.43004   0.00000  Uiso   1.00
H1046  H     0.40170   0.36914   0.46368   0.00000  Uiso   1.00
H1047  H     0.39059   0.42361   0.43533   0.00000  Uiso   1.00
H1048  H     0.65798   0.35155   0.46745   0.00000  Uiso   1.00
H1049  H     0.64983   0.40345   0.43162   0.00000  Uiso   1.00
H1050  H     0.35924   0.37227   0.36418   0.00000  Uiso   1.00
N1051  N     0.50000   0.61736   0.50000   0.00000  Uiso   1.00
N1052  N     0.50000   0.38264   0.50000   0.00000  Uiso   1.00
O1053  O     0.43988   0.53958   0.50000   0.00000  Uiso   1.00
O1054  O     0.62668   0.57751   0.46068   0.00000  Uiso   1.00
O1055  O     0.62587   0.42099   0.53345   0.00000  Uiso   1.00
O1056  O     0.37424   0.58456   0.48798   0.00000  Uiso   1.00
O1057  O     0.56012   0.46042   0.50000   0.00000  Uiso   1.00
O1058  O     0.56012   0.53958   0.50000   0.00000  Uiso   1.00
O1059  O     0.43988   0.46042   0.50000   0.00000  Uiso   1.00
O1060  O     0.50000   0.53959   0.42946   0.00000  Uiso   1.00
O1061  O     0.50000   0.46041   0.57054   0.00000  Uiso   1.00
O1062  O     0.50000   0.53959   0.57054   0.00000  Uiso   1.00
O1063  O     0.50000   0.46041   0.42946   0.00000  Uiso   1.00
O1064  O     0.37269   0.41490   0.50958   0.00000  Uiso   1.00
C1065  C     0.75396   0.49997   0.49983   0.00000  Uiso   1.00
C1066  C     0.68745   0.54201   0.49189   0.00000  Uiso   1.00
C1067  C     0.95696   0.49998   0.49931   0.00000  Uiso   1.00
C1068  C     0.70915   0.49998   0.49939   0.00000  Uiso   1.00
C1069  C     0.81814   0.35788   0.46089   0.00000  Uiso   1.00
C1070  C     0.84882   0.64212   0.53895   0.00000  Uiso   1.00
C1071  C     0.84841   0.35829   0.53914   0.00000  Uiso   1.00
C1072  C     0.81772   0.64172   0.46111   0.00000  Uiso   1.00
C1073  C     0.71159   0.39696   0.46130   0.00000  Uiso   1.00
C1074  C     0.67216   0.37542   0.44021   0.00000  Uiso   1.00
C1075  C     0.68117   0.34825   0.39313   0.00000  Uiso   1.00
C1076  C     0.91251   0.50002   0.50013   0.00000  Uiso   1.00
C1077  C     0.94680   0.56522   0.41244   0.00000  Uiso   1.00
C1078  C     0.98230   0.55296   0.37745   0.00000  Uiso   1.00
C1079  C     0.96703   0.54701   0.65799   0.00000  Uiso   1.00
C1080  C     0.95232   0.42838   0.58428   0.00000  Uiso   1.00
C1081  C     0.94640   0.38120   0.60961   0.00000  Uiso   1.00
C1082  C     0.92500   0.38689   0.65920   0.00000  Uiso   1.00
C1083  C     0.69898   0.61240   0.53010   0.00000  Uiso   1.00
C1084  C     0.72744   0.60053   0.57320   0.00000  Uiso   1.00
C1085  C     0.71913   0.63192   0.61753   0.00000  Uiso   1.00
C1086  C     0.83343   0.49994   0.40689   0.00000  Uiso   1.00
C1087  C     0.83346   0.50006   0.59311   0.00000  Uiso   1.00
C1088  C     0.83356   0.49992   0.35519   0.00000  Uiso   1.00
C1089  C     0.83357   0.50008   0.64481   0.00000  Uiso   1.00
C1090  C     0.68714   0.45800   0.50671   0.00000  Uiso   1.00
C1091  C     0.97873   0.53972   0.48323   0.00000  Uiso   1.00
C1092  C     0.97857   0.46000   0.51444   0.00000  Uiso   1.00
Cu1093 Cu    0.83333   0.54689   0.50000   0.00000  Uiso   1.00
Cu1094 Cu    0.83333   0.45311   0.50000   0.00000  Uiso   1.00
H1095  H     0.80578   0.37617   0.42951   0.00000  Uiso   1.00
H1096  H     0.98613   0.66438   0.37982   0.00000  Uiso   1.00
H1097  H     0.70453   0.65424   0.40012   0.00000  Uiso   1.00
H1098  H     0.93032   0.59592   0.39734   0.00000  Uiso   1.00
H1099  H     0.92434   0.53602   0.41268   0.00000  Uiso   1.00
H1100  H     0.67258   0.58082   0.37868   0.00000  Uiso   1.00
H1101  H     0.99678   0.51965   0.38904   0.00000  Uiso   1.00
H1102  H     0.94344   0.51901   0.65606   0.00000  Uiso   1.00
H1103  H     0.99294   0.53712   0.63372   0.00000  Uiso   1.00
H1104  H     0.95366   0.58022   0.64441   0.00000  Uiso   1.00
H1105  H     0.92438   0.45005   0.58918   0.00000  Uiso   1.00
H1106  H     0.86147   0.62385   0.57019   0.00000  Uiso   1.00
H1107  H     0.97851   0.44649   0.60284   0.00000  Uiso   1.00
H1108  H     0.92801   0.35743   0.58593   0.00000  Uiso   1.00
H1109  H     0.97674   0.36459   0.61522   0.00000  Uiso   1.00
H1110  H     0.94348   0.40962   0.35060   0.00000  Uiso   1.00
H1111  H     0.92104   0.35213   0.34326   0.00000  Uiso   1.00
H1112  H     0.89424   0.40267   0.65420   0.00000  Uiso   1.00
H1113  H     0.99963   0.61047   0.54183   0.00000  Uiso   1.00
H1114  H     0.70474   0.64927   0.52028   0.00000  Uiso   1.00
H1115  H     0.72301   0.56352   0.58420   0.00000  Uiso   1.00
H1116  H     0.75978   0.60558   0.56181   0.00000  Uiso   1.00
H1117  H     0.86010   0.37697   0.57073   0.00000  Uiso   1.00
H1118  H     0.72455   0.33581   0.60794   0.00000  Uiso   1.00
H1119  H     0.73993   0.62229   0.64818   0.00000  Uiso   1.00
H1120  H     0.68703   0.62756   0.63002   0.00000  Uiso   1.00
H1121  H     0.80481   0.62314   0.43004   0.00000  Uiso   1.00
H1122  H     0.73503   0.36914   0.46368   0.00000  Uiso   1.00
H1123  H     0.72392   0.42361   0.43533   0.00000  Uiso   1.00
H1124  H     0.99131   0.35155   0.46745   0.00000  Uiso   1.00
H1125  H     0.98316   0.40345   0.43162   0.00000  Uiso   1.00
H1126  H     0.69257   0.37227   0.36418   0.00000  Uiso   1.00
N1127  N     0.83333   0.61736   0.50000   0.00000  Uiso   1.00
N1128  N     0.83333   0.38264   0.50000   0.00000  Uiso   1.00
O1129  O     0.77321   0.53958   0.50000   0.00000  Uiso   1.00
O1130  O     0.96001   0.57751   0.46068   0.00000  Uiso   1.00
O1131  O     0.95920   0.42099   0.53345   0.00000  Uiso   1.00
O1132  O     0.70757   0.58456   0.48798   0.00000  Uiso   1.00
O1133  O     0.89345   0.46042   0.50000   0.00000  Uiso   1.00
O1134  O     0.89345   0.53958   0.50000   0.00000  Uiso   1.00
O1135  O     0.77321   0.46042   0.50000   0.00000  Uiso   1.00
O1136  O     0.83333   0.53959   0.42946   0.00000  Uiso   1.00
O1137  O     0.83333   0.46041   0.57054   0.00000  Uiso   1.00
O1138  O     0.83333   0.53959   0.57054   0.00000  Uiso   1.00
O1139  O     0.83333   0.46041   0.42946   0.00000  Uiso   1.00
O1140  O     0.70603   0.41490   0.50958   0.00000  Uiso   1.00
C1141  C     0.08729   0.83331   0.49983   0.00000  Uiso   1.00
C1142  C     0.02078   0.87535   0.49189   0.00000  Uiso   1.00
C1143  C     0.29030   0.83331   0.49931   0.00000  Uiso   1.00
C1144  C     0.04248   0.83331   0.49939   0.00000  Uiso   1.00
C1145  C     0.15148   0.69122   0.46089   0.00000  Uiso   1.00
C1146  C     0.18216   0.97545   0.53895   0.00000  Uiso   1.00
C1147  C     0.18174   0.69162   0.53914   0.00000  Uiso   1.00
C1148  C     0.15105   0.97505   0.46111   0.00000  Uiso   1.00
C1149  C     0.04492   0.73029   0.46130   0.00000  Uiso   1.00
C1150  C     0.00549   0.70876   0.44021   0.00000  Uiso   1.00
C1151  C     0.01451   0.68158   0.39313   0.00000  Uiso   1.00
C1152  C     0.24584   0.83335   0.50013   0.00000  Uiso   1.00
C1153  C     0.28014   0.89855   0.41244   0.00000  Uiso   1.00
C1154  C     0.31563   0.88629   0.37745   0.00000  Uiso   1.00
C1155  C     0.30036   0.88034   0.65799   0.00000  Uiso   1.00
C1156  C     0.28566   0.76171   0.58428   0.00000  Uiso   1.00
C1157  C     0.27973   0.71453   0.60961   0.00000  Uiso   1.00
C1158  C     0.25834   0.72022   0.65920   0.00000  Uiso   1.00
C1159  C     0.03231   0.94573   0.53010   0.00000  Uiso   1.00
C1160  C     0.06078   0.93387   0.57320   0.00000  Uiso   1.00
C1161  C     0.05246   0.96525   0.61753   0.00000  Uiso   1.00
C1162  C     0.16676   0.83327   0.40689   0.00000  Uiso   1.00
C1163  C     0.16679   0.83339   0.59311   0.00000  Uiso   1.00
C1164  C     0.16689   0.83325   0.35519   0.00000  Uiso   1.00
C1165  C     0.16690   0.83341   0.64481   0.00000  Uiso   1.00
C1166  C     0.02047   0.79134   0.50671   0.00000  Uiso   1.00
C1167  C     0.31206   0.87305   0.48323   0.00000  Uiso   1.00
C1168  C     0.31190   0.79333   0.51444   0.00000  Uiso   1.00
Cu1169 Cu    0.16667   0.88022   0.50000   0.00000  Uiso   1.00
Cu1170 Cu    0.16667   0.78645   0.50000   0.00000  Uiso   1.00
H1171  H     0.13912   0.70951   0.42951   0.00000  Uiso   1.00
H1172  H     0.31946   0.99771   0.37982   0.00000  Uiso   1.00
H1173  H     0.03786   0.98758   0.40012   0.00000  Uiso   1.00
H1174  H     0.26366   0.92926   0.39734   0.00000  Uiso   1.00
H1175  H     0.25767   0.86936   0.41268   0.00000  Uiso   1.00
H1176  H     0.00592   0.91415   0.37868   0.00000  Uiso   1.00
H1177  H     0.33011   0.85298   0.38904   0.00000  Uiso   1.00
H1178  H     0.27677   0.85234   0.65606   0.00000  Uiso   1.00
H1179  H     0.32628   0.87046   0.63372   0.00000  Uiso   1.00
H1180  H     0.28700   0.91356   0.64441   0.00000  Uiso   1.00
H1181  H     0.25771   0.78338   0.58918   0.00000  Uiso   1.00
H1182  H     0.19480   0.95718   0.57019   0.00000  Uiso   1.00
H1183  H     0.31185   0.77982   0.60284   0.00000  Uiso   1.00
H1184  H     0.26135   0.69077   0.58593   0.00000  Uiso   1.00
H1185  H     0.31007   0.69793   0.61522   0.00000  Uiso   1.00
H1186  H     0.27681   0.74296   0.35060   0.00000  Uiso   1.00
H1187  H     0.25437   0.68547   0.34326   0.00000  Uiso   1.00
H1188  H     0.22757   0.73600   0.65420   0.00000  Uiso   1.00
H1189  H     0.33296   0.94380   0.54183   0.00000  Uiso   1.00
H1190  H     0.03807   0.98261   0.52028   0.00000  Uiso   1.00
H1191  H     0.05634   0.89685   0.58420   0.00000  Uiso   1.00
H1192  H     0.09311   0.93891   0.56181   0.00000  Uiso   1.00
H1193  H     0.19343   0.71031   0.57073   0.00000  Uiso   1.00
H1194  H     0.05788   0.66915   0.60794   0.00000  Uiso   1.00
H1195  H     0.07327   0.95563   0.64818   0.00000  Uiso   1.00
H1196  H     0.02036   0.96089   0.63002   0.00000  Uiso   1.00
H1197  H     0.13815   0.95647   0.43004   0.00000  Uiso   1.00
H1198  H     0.06836   0.70247   0.46368   0.00000  Uiso   1.00
H1199  H     0.05725   0.75694   0.43533   0.00000  Uiso   1.00
H1200  H     0.32465   0.68488   0.46745   0.00000  Uiso   1.00
H1201  H     0.31650   0.73678   0.43162   0.00000  Uiso   1.00
H1202  H     0.02590   0.70560   0.36418   0.00000  Uiso   1.00
N1203  N     0.16667   0.95069   0.50000   0.00000  Uiso   1.00
N1204  N     0.16667   0.71598   0.50000   0.00000  Uiso   1.00
O1205  O     0.10655   0.87291   0.50000   0.00000  Uiso   1.00
O1206  O     0.29335   0.91084   0.46068   0.00000  Uiso   1.00
O1207  O     0.29253   0.75432   0.53345   0.00000  Uiso   1.00
O1208  O     0.04091   0.91789   0.48798   0.00000  Uiso   1.00
O1209  O     0.22679   0.79375   0.50000   0.00000  Uiso   1.00
O1210  O     0.22679   0.87291   0.50000   0.00000  Uiso   1.00
O1211  O     0.10655   0.79375   0.50000   0.00000  Uiso   1.00
O1212  O     0.16667   0.87292   0.42946   0.00000  Uiso   1.00
O1213  O     0.16667   0.79375   0.57054   0.00000  Uiso   1.00
O1214  O     0.16667   0.87292   0.57054   0.00000  Uiso   1.00
O1215  O     0.16667   0.79375   0.42946   0.00000  Uiso   1.00
O1216  O     0.03936   0.74823   0.50958   0.00000  Uiso   1.00
C1217  C     0.42063   0.83331   0.49983   0.00000  Uiso   1.00
C1218  C     0.35411   0.87535   0.49189   0.00000  Uiso   1.00
C1219  C     0.62363   0.83331   0.49931   0.00000  Uiso   1.00
C1220  C     0.37581   0.83331   0.49939   0.00000  Uiso   1.00
C1221  C     0.48481   0.69122   0.46089   0.00000  Uiso   1.00
C1222  C     0.51549   0.97545   0.53895   0.00000  Uiso   1.00
C1223  C     0.51507   0.69162   0.53914   0.00000  Uiso   1.00
C1224  C     0.48439   0.97505   0.46111   0.00000  Uiso   1.00
C1225  C     0.37825   0.73029   0.46130   0.00000  Uiso   1.00
C1226  C     0.33883   0.70876   0.44021   0.00000  Uiso   1.00
C1227  C     0.34784   0.68158   0.39313   0.00000  Uiso   1.00
C1228  C     0.57917   0.83335   0.50013   0.00000  Uiso   1.00
C1229  C     0.61347   0.89855   0.41244   0.00000  Uiso   1.00
C1230  C     0.64897   0.88629   0.37745   0.00000  Uiso   1.00
C1231  C     0.63369   0.88034   0.65799   0.00000  Uiso   1.00
C1232  C     0.61899   0.76171   0.58428   0.00000  Uiso   1.00
C1233  C     0.61306   0.71453   0.60961   0.00000  Uiso   1.00
C1234  C     0.59167   0.72022   0.65920   0.00000  Uiso   1.00
C1235  C     0.36565   0.94573   0.53010   0.00000  Uiso   1.00
C1236  C     0.39411   0.93387   0.57320   0.00000  Uiso   1.00
C1237  C     0.38580   0.96525   0.61753   0.00000  Uiso   1.00
C1238  C     0.50009   0.83327   0.40689   0.00000  Uiso   1.00
C1239  C     0.50013   0.83339   0.59311   0.00000  Uiso   1.00
C1240  C     0.50023   0.83325   0.35519   0.00000  Uiso   1.00
C1241  C     0.50024   0.83341   0.64481   0.00000  Uiso   1.00
C1242  C     0.35381   0.79134   0.50671   0.00000  Uiso   1.00
C1243  C     0.64540   0.87305   0.48323   0.00000  Uiso   1.00
C1244  C     0.64523   0.79333   0.51444   0.00000  Uiso   1.00
Cu1245 Cu    0.50000   0.88022   0.50000   0.00000  Uiso   1.00
Cu1246 Cu    0.50000   0.78645   0.50000   0.00000  Uiso   1.00
H1247  H     0.47245   0.70951   0.42951   0.00000  Uiso   1.00
H1248  H     0.65280   0.99771   0.37982   0.00000  Uiso   1.00
H1249  H     0.37119   0.98758   0.40012   0.00000  Uiso   1.00
H1250  H     0.59699   0.92926   0.39734   0.00000  Uiso   1.00
H1251  H     0.59100   0.86936   0.41268   0.00000  Uiso   1.00
H1252  H     0.33925   0.91415   0.37868   0.00000  Uiso   1.00
H1253  H     0.66345   0.85298   0.38904   0.00000  Uiso   1.00
H1254  H     0.61011   0.85234   0.65606   0.00000  Uiso   1.00
H1255  H     0.65961   0.87046   0.63372   0.00000  Uiso   1.00
H1256  H     0.62033   0.91356   0.64441   0.00000  Uiso   1.00
H1257  H     0.59104   0.78338   0.58918   0.00000  Uiso   1.00
H1258  H     0.52813   0.95718   0.57019   0.00000  Uiso   1.00
H1259  H     0.64518   0.77982   0.60284   0.00000  Uiso   1.00
H1260  H     0.59468   0.69077   0.58593   0.00000  Uiso   1.00
H1261  H     0.64341   0.69793   0.61522   0.00000  Uiso   1.00
H1262  H     0.61015   0.74296   0.35060   0.00000  Uiso   1.00
H1263  H     0.58771   0.68547   0.34326   0.00000  Uiso   1.00
H1264  H     0.56091   0.73600   0.65420   0.00000  Uiso   1.00
H1265  H     0.66630   0.94380   0.54183   0.00000  Uiso   1.00
H1266  H     0.37140   0.98261   0.52028   0.00000  Uiso   1.00
H1267  H     0.38968   0.89685   0.58420   0.00000  Uiso   1.00
H1268  H     0.42645   0.93891   0.56181   0.00000  Uiso   1.00
H1269  H     0.52676   0.71031   0.57073   0.00000  Uiso   1.00
H1270  H     0.39122   0.66915   0.60794   0.00000  Uiso   1.00
H1271  H     0.40660   0.95563   0.64818   0.00000  Uiso   1.00
H1272  H     0.35370   0.96089   0.63002   0.00000  Uiso   1.00
H1273  H     0.47148   0.95647   0.43004   0.00000  Uiso   1.00
H1274  H     0.40170   0.70247   0.46368   0.00000  Uiso   1.00
H1275  H     0.39059   0.75694   0.43533   0.00000  Uiso   1.00
H1276  H     0.65798   0.68488   0.46745   0.00000  Uiso   1.00
H1277  H     0.64983   0.73678   0.43162   0.00000  Uiso   1.00
H1278  H     0.35924   0.70560   0.36418   0.00000  Uiso   1.00
N1279  N     0.50000   0.95069   0.50000   0.00000  Uiso   1.00
N1280  N     0.50000   0.71598   0.50000   0.00000  Uiso   1.00
O1281  O     0.43988   0.87291   0.50000   0.00000  Uiso   1.00
O1282  O     0.62668   0.91084   0.46068   0.00000  Uiso   1.00
O1283  O     0.62587   0.75432   0.53345   0.00000  Uiso   1.00
O1284  O     0.37424   0.91789   0.48798   0.00000  Uiso   1.00
O1285  O     0.56012   0.79375   0.50000   0.00000  Uiso   1.00
O1286  O     0.56012   0.87291   0.50000   0.00000  Uiso   1.00
O1287  O     0.43988   0.79375   0.50000   0.00000  Uiso   1.00
O1288  O     0.50000   0.87292   0.42946   0.00000  Uiso   1.00
O1289  O     0.50000   0.79375   0.57054   0.00000  Uiso   1.00
O1290  O     0.50000   0.87292   0.57054   0.00000  Uiso   1.00
O1291  O     0.50000   0.79375   0.42946   0.00000  Uiso   1.00
O1292  O     0.37269   0.74823   0.50958   0.00000  Uiso   1.00
C1293  C     0.75396   0.83331   0.49983   0.00000  Uiso   1.00
C1294  C     0.68745   0.87535   0.49189   0.00000  Uiso   1.00
C1295  C     0.95696   0.83331   0.49931   0.00000  Uiso   1.00
C1296  C     0.70915   0.83331   0.49939   0.00000  Uiso   1.00
C1297  C     0.81814   0.69122   0.46089   0.00000  Uiso   1.00
C1298  C     0.84882   0.97545   0.53895   0.00000  Uiso   1.00
C1299  C     0.84841   0.69162   0.53914   0.00000  Uiso   1.00
C1300  C     0.81772   0.97505   0.46111   0.00000  Uiso   1.00
C1301  C     0.71159   0.73029   0.46130   0.00000  Uiso   1.00
C1302  C     0.67216   0.70876   0.44021   0.00000  Uiso   1.00
C1303  C     0.68117   0.68158   0.39313   0.00000  Uiso   1.00
C1304  C     0.91251   0.83335   0.50013   0.00000  Uiso   1.00
C1305  C     0.94680   0.89855   0.41244   0.00000  Uiso   1.00
C1306  C     0.98230   0.88629   0.37745   0.00000  Uiso   1.00
C1307  C     0.96703   0.88034   0.65799   0.00000  Uiso   1.00
C1308  C     0.95232   0.76171   0.58428   0.00000  Uiso   1.00
C1309  C     0.94640   0.71453   0.60961   0.00000  Uiso   1.00
C1310  C     0.92500   0.72022   0.65920   0.00000  Uiso   1.00
C1311  C     0.69898   0.94573   0.53010   0.00000  Uiso   1.00
C1312  C     0.72744   0.93387   0.57320   0.00000  Uiso   1.00
C1313  C     0.71913   0.96525   0.61753   0.00000  Uiso   1.00
C1314  C     0.83343   0.83327   0.40689   0.00000  Uiso   1.00
C1315  C     0.83346   0.83339   0.59311   0.00000  Uiso   1.00
C1316  C     0.83356   0.83325   0.35519   0.00000  Uiso   1.00
C1317  C     0.83357   0.83341   0.64481   0.00000  Uiso   1.00
C1318  C     0.68714   0.79134   0.50671   0.00000  Uiso   1.00
C1319  C     0.97873   0.87305   0.48323   0.00000  Uiso   1.00
C1320  C     0.97857   0.79333   0.51444   0.00000  Uiso   1.00
Cu1321 Cu    0.83333   0.88022   0.50000   0.00000  Uiso   1.00
Cu1322 Cu    0.83333   0.78645   0.50000   0.00000  Uiso   1.00
H1323  H     0.80578   0.70951   0.42951   0.00000  Uiso   1.00
H1324  H     0.98613   0.99771   0.37982   0.00000  Uiso   1.00
H1325  H     0.70453   0.98758   0.40012   0.00000  Uiso   1.00
H1326  H     0.93032   0.92926   0.39734   0.00000  Uiso   1.00
H1327  H     0.92434   0.86936   0.41268   0.00000  Uiso   1.00
H1328  H     0.67258   0.91415   0.37868   0.00000  Uiso   1.00
H1329  H     0.99678   0.85298   0.38904   0.00000  Uiso   1.00
H1330  H     0.94344   0.85234   0.65606   0.00000  Uiso   1.00
H1331  H     0.99294   0.87046   0.63372   0.00000  Uiso   1.00
H1332  H     0.95366   0.91356   0.64441   0.00000  Uiso   1.00
H1333  H     0.92438   0.78338   0.58918   0.00000  Uiso   1.00
H1334  H     0.86147   0.95718   0.57019   0.00000  Uiso   1.00
H1335  H     0.97851   0.77982   0.60284   0.00000  Uiso   1.00
H1336  H     0.92801   0.69077   0.58593   0.00000  Uiso   1.00
H1337  H     0.97674   0.69793   0.61522   0.00000  Uiso   1.00
H1338  H     0.94348   0.74296   0.35060   0.00000  Uiso   1.00
H1339  H     0.92104   0.68547   0.34326   0.00000  Uiso   1.00
H1340  H     0.89424   0.73600   0.65420   0.00000  Uiso   1.00
H1341  H     0.99963   0.94380   0.54183   0.00000  Uiso   1.00
H1342  H     0.70474   0.98261   0.52028   0.00000  Uiso   1.00
H1343  H     0.72301   0.89685   0.58420   0.00000  Uiso   1.00
H1344  H     0.75978   0.93891   0.56181   0.00000  Uiso   1.00
H1345  H     0.86010   0.71031   0.57073   0.00000  Uiso   1.00
H1346  H     0.72455   0.66915   0.60794   0.00000  Uiso   1.00
H1347  H     0.73993   0.95563   0.64818   0.00000  Uiso   1.00
H1348  H     0.68703   0.96089   0.63002   0.00000  Uiso   1.00
H1349  H     0.80481   0.95647   0.43004   0.00000  Uiso   1.00
H1350  H     0.73503   0.70247   0.46368   0.00000  Uiso   1.00
H1351  H     0.72392   0.75694   0.43533   0.00000  Uiso   1.00
H1352  H     0.99131   0.68488   0.46745   0.00000  Uiso   1.00
H1353  H     0.98316   0.73678   0.43162   0.00000  Uiso   1.00
H1354  H     0.69257   0.70560   0.36418   0.00000  Uiso   1.00
N1355  N     0.83333   0.95069   0.50000   0.00000  Uiso   1.00
N1356  N     0.83333   0.71598   0.50000   0.00000  Uiso   1.00
O1357  O     0.77321   0.87291   0.50000   0.00000  Uiso   1.00
O1358  O     0.96001   0.91084   0.46068   0.00000  Uiso   1.00
O1359  O     0.95920   0.75432   0.53345   0.00000  Uiso   1.00
O1360  O     0.70757   0.91789   0.48798   0.00000  Uiso   1.00
O1361  O     0.89345   0.79375   0.50000   0.00000  Uiso   1.00
O1362  O     0.89345   0.87291   0.50000   0.00000  Uiso   1.00
O1363  O     0.77321   0.79375   0.50000   0.00000  Uiso   1.00
O1364  O     0.83333   0.87292   0.42946   0.00000  Uiso   1.00
O1365  O     0.83333   0.79375   0.57054   0.00000  Uiso   1.00
O1366  O     0.83333   0.87292   0.57054   0.00000  Uiso   1.00
O1367  O     0.83333   0.79375   0.42946   0.00000  Uiso   1.00
O1368  O     0.70603   0.74823   0.50958   0.00000  Uiso   1.00
C1369  C     0.08729   0.16664   0.83316   0.00000  Uiso   1.00
C1370  C     0.02078   0.20868   0.82522   0.00000  Uiso   1.00
C1371  C     0.29030   0.16664   0.83265   0.00000  Uiso   1.00
C1372  C     0.04248   0.16665   0.83272   0.00000  Uiso   1.00
C1373  C     0.15148   0.02455   0.79422   0.00000  Uiso   1.00
C1374  C     0.18216   0.30879   0.87229   0.00000  Uiso   1.00
C1375  C     0.18174   0.02495   0.87247   0.00000  Uiso   1.00
C1376  C     0.15105   0.30839   0.79445   0.00000  Uiso   1.00
C1377  C     0.04492   0.06363   0.79464   0.00000  Uiso   1.00
C1378  C     0.00549   0.04209   0.77354   0.00000  Uiso   1.00
C1379  C     0.01451   0.01492   0.72647   0.00000  Uiso   1.00
C1380  C     0.24584   0.16669   0.83347   0.00000  Uiso   1.00
C1381  C     0.28014   0.23189   0.74577   0.00000  Uiso   1.00
C1382  C     0.31563   0.21963   0.71079   0.00000  Uiso   1.00
C1383  C     0.30036   0.21367   0.99133   0.00000  Uiso   1.00
C1384  C     0.28566   0.09504   0.91762   0.00000  Uiso   1.00
C1385  C     0.27973   0.04786   0.94294   0.00000  Uiso   1.00
C1386  C     0.25834   0.05355   0.99253   0.00000  Uiso   1.00
C1387  C     0.03231   0.27906   0.86343   0.00000  Uiso   1.00
C1388  C     0.06078   0.26720   0.90653   0.00000  Uiso   1.00
C1389  C     0.05246   0.29859   0.95086   0.00000  Uiso   1.00
C1390  C     0.16676   0.16661   0.74022   0.00000  Uiso   1.00
C1391  C     0.16679   0.16672   0.92645   0.00000  Uiso   1.00
C1392  C     0.16689   0.16658   0.68852   0.00000  Uiso   1.00
C1393  C     0.16690   0.16675   0.97814   0.00000  Uiso   1.00
C1394  C     0.02047   0.12467   0.84005   0.00000  Uiso   1.00
C1395  C     0.31206   0.20639   0.81657   0.00000  Uiso   1.00
C1396  C     0.31190   0.12666   0.84777   0.00000  Uiso   1.00
Cu1397 Cu    0.16667   0.21355   0.83333   0.00000  Uiso   1.00
Cu1398 Cu    0.16667   0.11978   0.83333   0.00000  Uiso   1.00
H1399  H     0.13912   0.04284   0.76284   0.00000  Uiso   1.00
H1400  H     0.31946   0.33104   0.71316   0.00000  Uiso   1.00
H1401  H     0.03786   0.32091   0.73346   0.00000  Uiso   1.00
H1402  H     0.26366   0.26259   0.73067   0.00000  Uiso   1.00
H1403  H     0.25767   0.20269   0.74601   0.00000  Uiso   1.00
H1404  H     0.00592   0.24748   0.71202   0.00000  Uiso   1.00
H1405  H     0.33011   0.18631   0.72237   0.00000  Uiso   1.00
H1406  H     0.27677   0.18567   0.98939   0.00000  Uiso   1.00
H1407  H     0.32628   0.20379   0.96705   0.00000  Uiso   1.00
H1408  H     0.28700   0.24689   0.97774   0.00000  Uiso   1.00
H1409  H     0.25771   0.11671   0.92251   0.00000  Uiso   1.00
H1410  H     0.19480   0.29052   0.90352   0.00000  Uiso   1.00
H1411  H     0.31185   0.11316   0.93617   0.00000  Uiso   1.00
H1412  H     0.26135   0.02410   0.91927   0.00000  Uiso   1.00
H1413  H     0.31007   0.03126   0.94855   0.00000  Uiso   1.00
H1414  H     0.27681   0.07629   0.68394   0.00000  Uiso   1.00
H1415  H     0.25437   0.01880   0.67660   0.00000  Uiso   1.00
H1416  H     0.22757   0.06934   0.98754   0.00000  Uiso   1.00
H1417  H     0.33296   0.27714   0.87516   0.00000  Uiso   1.00
H1418  H     0.03807   0.31594   0.85361   0.00000  Uiso   1.00
H1419  H     0.05634   0.23019   0.91753   0.00000  Uiso   1.00
H1420  H     0.09311   0.27224   0.89514   0.00000  Uiso   1.00
H1421  H     0.19343   0.04364   0.90407   0.00000  Uiso   1.00
H1422  H     0.05788   0.00248   0.94127   0.00000  Uiso   1.00
H1423  H     0.07327   0.28896   0.98151   0.00000  Uiso   1.00
H1424  H     0.02036   0.29423   0.96335   0.00000  Uiso   1.00
H1425  H     0.13815   0.28980   0.76337   0.00000  Uiso   1.00
H1426  H     0.06836   0.03581   0.79702   0.00000  Uiso   1.00
H1427  H     0.05725   0.09028   0.76867   0.00000  Uiso   1.00
H1428  H     0.32465   0.01822   0.80078   0.00000  Uiso   1.00
H1429  H     0.31650   0.07011   0.76496   0.00000  Uiso   1.00
H1430  H     0.02590   0.03894   0.69751   0.00000  Uiso   1.00
N1431  N     0.16667   0.28402   0.83333   0.00000  Uiso   1.00
N1432  N     0.16667   0.04931   0.83333   0.00000  Uiso   1.00
O1433  O     0.10655   0.20625   0.83333   0.00000  Uiso   1.00
O1434  O     0.29335   0.24417   0.79401   0.00000  Uiso   1.00
O1435  O     0.29253   0.08765   0.86678   0.00000  Uiso   1.00
O1436  O     0.04091   0.25122   0.82132   0.00000  Uiso   1.00
O1437  O     0.22679   0.12709   0.83334   0.00000  Uiso   1.00
O1438  O     0.22679   0.20625   0.83334   0.00000  Uiso   1.00
O1439  O     0.10655   0.12709   0.83333   0.00000  Uiso   1.00
O1440  O     0.16667   0.20625   0.76280   0.00000  Uiso   1.00
O1441  O     0.16667   0.12708   0.90387   0.00000  Uiso   1.00
O1442  O     0.16667   0.20625   0.90387   0.00000  Uiso   1.00
O1443  O     0.16667   0.12708   0.76280   0.00000  Uiso   1.00
O1444  O     0.03936   0.08156   0.84291   0.00000  Uiso   1.00
C1445  C     0.42063   0.16664   0.83316   0.00000  Uiso   1.00
C1446  C     0.35411   0.20868   0.82522   0.00000  Uiso   1.00
C1447  C     0.62363   0.16664   0.83265   0.00000  Uiso   1.00
C1448  C     0.37581   0.16665   0.83272   0.00000  Uiso   1.00
C1449  C     0.48481   0.02455   0.79422   0.00000  Uiso   1.00
C1450  C     0.51549   0.30879   0.87229   0.00000  Uiso   1.00
C1451  C     0.51507   0.02495   0.87247   0.00000  Uiso   1.00
C1452  C     0.48439   0.30839   0.79445   0.00000  Uiso   1.00
C1453  C     0.37825   0.06363   0.79464   0.00000  Uiso   1.00
C1454  C     0.33883   0.04209   0.77354   0.00000  Uiso   1.00
C1455  C     0.34784   0.01492   0.72647   0.00000  Uiso   1.00
C1456  C     0.57917   0.16669   0.83347   0.00000  Uiso   1.00
C1457  C     0.61347   0.23189   0.74577   0.00000  Uiso   1.00
C1458  C     0.64897   0.21963   0.71079   0.00000  Uiso   1.00
C1459  C     0.63369   0.21367   0.99133   0.00000  Uiso   1.00
C1460  C     0.61899   0.09504   0.91762   0.00000  Uiso   1.00
C1461  C     0.61306   0.04786   0.94294   0.00000  Uiso   1.00
C1462  C     0.59167   0.05355   0.99253   0.00000  Uiso   1.00
C1463  C     0.36565   0.27906   0.86343   0.00000  Uiso   1.00
C1464  C     0.39411   0.26720   0.90653   0.00000  Uiso   1.00
C1465  C     0.38580   0.29859   0.95086   0.00000  Uiso   1.00
C1466  C     0.50009   0.16661   0.74022   0.00000  Uiso   1.00
C1467  C     0.50013   0.16672   0.92645   0.00000  Uiso   1.00
C1468  C     0.50023   0.16658   0.68852   0.00000  Uiso   1.00
C1469  C     0.50024   0.16675   0.97814   0.00000  Uiso   1.00
C1470  C     0.35381   0.12467   0.84005   0.00000  Uiso   1.00
C1471  C     0.64540   0.20639   0.81657   0.00000  Uiso   1.00
C1472  C     0.64523   0.12666   0.84777   0.00000  Uiso   1.00
Cu1473 Cu    0.50000   0.21355   0.83333   0.00000  Uiso   1.00
Cu1474 Cu    0.50000   0.11978   0.83333   0.00000  Uiso   1.00
H1475  H     0.47245   0.04284   0.76284   0.00000  Uiso   1.00
H1476  H     0.65280   0.33104   0.71316   0.00000  Uiso   1.00
H1477  H     0.37119   0.32091   0.73346   0.00000  Uiso   1.00
H1478  H     0.59699   0.26259   0.73067   0.00000  Uiso   1.00
H1479  H     0.59100   0.20269   0.74601   0.00000  Uiso   1.00
H1480  H     0.33925   0.24748   0.71202   0.00000  Uiso   1.00
H1481  H     0.66345   0.18631   0.72237   0.00000  Uiso   1.00
H1482  H     0.61011   0.18567   0.98939   0.00000  Uiso   1.00
H1483  H     0.65961   0.20379   0.96705   0.00000  Uiso   1.00
H1484  H     0.62033   0.24689   0.97774   0.00000  Uiso   1.00
H1485  H     0.59104   0.11671   0.92251   0.00000  Uiso   1.00
H1486  H     0.52813   0.29052   0.90352   0.00000  Uiso   1.00
H1487  H     0.64518   0.11316   0.93617   0.00000  Uiso   1.00
H1488  H     0.59468   0.02410   0.91927   0.00000  Uiso   1.00
H1489  H     0.64341   0.03126   0.94855   0.00000  Uiso   1.00
H1490  H     0.61015   0.07629   0.68394   0.00000  Uiso   1.00
H1491  H     0.58771   0.01880   0.67660   0.00000  Uiso   1.00
H1492  H     0.56091   0.06934   0.98754   0.00000  Uiso   1.00
H1493  H     0.66630   0.27714   0.87516   0.00000  Uiso   1.00
H1494  H     0.37140   0.31594   0.85361   0.00000  Uiso   1.00
H1495  H     0.38968   0.23019   0.91753   0.00000  Uiso   1.00
H1496  H     0.42645   0.27224   0.89514   0.00000  Uiso   1.00
H1497  H     0.52676   0.04364   0.90407   0.00000  Uiso   1.00
H1498  H     0.39122   0.00248   0.94127   0.00000  Uiso   1.00
H1499  H     0.40660   0.28896   0.98151   0.00000  Uiso   1.00
H1500  H     0.35370   0.29423   0.96335   0.00000  Uiso   1.00
H1501  H     0.47148   0.28980   0.76337   0.00000  Uiso   1.00
H1502  H     0.40170   0.03581   0.79702   0.00000  Uiso   1.00
H1503  H     0.39059   0.09028   0.76867   0.00000  Uiso   1.00
H1504  H     0.65798   0.01822   0.80078   0.00000  Uiso   1.00
H1505  H     0.64983   0.07011   0.76496   0.00000  Uiso   1.00
H1506  H     0.35924   0.03894   0.69751   0.00000  Uiso   1.00
N1507  N     0.50000   0.28402   0.83333   0.00000  Uiso   1.00
N1508  N     0.50000   0.04931   0.83333   0.00000  Uiso   1.00
O1509  O     0.43988   0.20625   0.83333   0.00000  Uiso   1.00
O1510  O     0.62668   0.24417   0.79401   0.00000  Uiso   1.00
O1511  O     0.62587   0.08765   0.86678   0.00000  Uiso   1.00
O1512  O     0.37424   0.25122   0.82132   0.00000  Uiso   1.00
O1513  O     0.56012   0.12709   0.83334   0.00000  Uiso   1.00
O1514  O     0.56012   0.20625   0.83334   0.00000  Uiso   1.00
O1515  O     0.43988   0.12709   0.83333   0.00000  Uiso   1.00
O1516  O     0.50000   0.20625   0.76280   0.00000  Uiso   1.00
O1517  O     0.50000   0.12708   0.90387   0.00000  Uiso   1.00
O1518  O     0.50000   0.20625   0.90387   0.00000  Uiso   1.00
O1519  O     0.50000   0.12708   0.76280   0.00000  Uiso   1.00
O1520  O     0.37269   0.08156   0.84291   0.00000  Uiso   1.00
C1521  C     0.75396   0.16664   0.83316   0.00000  Uiso   1.00
C1522  C     0.68745   0.20868   0.82522   0.00000  Uiso   1.00
C1523  C     0.95696   0.16664   0.83265   0.00000  Uiso   1.00
C1524  C     0.70915   0.16665   0.83272   0.00000  Uiso   1.00
C1525  C     0.81814   0.02455   0.79422   0.00000  Uiso   1.00
C1526  C     0.84882   0.30879   0.87229   0.00000  Uiso   1.00
C1527  C     0.84841   0.02495   0.87247   0.00000  Uiso   1.00
C1528  C     0.81772   0.30839   0.79445   0.00000  Uiso   1.00
C1529  C     0.71159   0.06363   0.79464   0.00000  Uiso   1.00
C1530  C     0.67216   0.04209   0.77354   0.00000  Uiso   1.00
C1531  C     0.68117   0.01492   0.72647   0.00000  Uiso   1.00
C1532  C     0.91251   0.16669   0.83347   0.00000  Uiso   1.00
C1533  C     0.94680   0.23189   0.74577   0.00000  Uiso   1.00
C1534  C     0.98230   0.21963   0.71079   0.00000  Uiso   1.00
C1535  C     0.96703   0.21367   0.99133   0.00000  Uiso   1.00
C1536  C     0.95232   0.09504   0.91762   0.00000  Uiso   1.00
C1537  C     0.94640   0.04786   0.94294   0.00000  Uiso   1.00
C1538  C     0.92500   0.05355   0.99253   0.00000  Uiso   1.00
C1539  C     0.69898   0.27906   0.86343   0.00000  Uiso   1.00
C1540  C     0.72744   0.26720   0.90653   0.00000  Uiso   1.00
C1541  C     0.71913   0.29859   0.95086   0.00000  Uiso   1.00
C1542  C     0.83343   0.16661   0.74022   0.00000  Uiso   1.00
C1543  C     0.83346   0.16672   0.92645   0.00000  Uiso   1.00
C1544  C     0.83356   0.16658   0.68852   0.00000  Uiso   1.00
C1545  C     0.83357   0.16675   0.97814   0.00000  Uiso   1.00
C1546  C     0.68714   0.12467   0.84005   0.00000  Uiso   1.00
C1547  C     0.97873   0.20639   0.81657   0.00000  Uiso   1.00
C1548  C     0.97857   0.12666   0.84777   0.00000  Uiso   1.00
Cu1549 Cu    0.83333   0.21355   0.83333   0.00000  Uiso   1.00
Cu1550 Cu    0.83333   0.11978   0.83333   0.00000  Uiso   1.00
H1551  H     0.80578   0.04284   0.76284   0.00000  Uiso   1.00
H1552  H     0.98613   0.33104   0.71316   0.00000  Uiso   1.00
H1553  H     0.70453   0.32091   0.73346   0.00000  Uiso   1.00
H1554  H     0.93032   0.26259   0.73067   0.00000  Uiso   1.00
H1555  H     0.92434   0.20269   0.74601   0.00000  Uiso   1.00
H1556  H     0.67258   0.24748   0.71202   0.00000  Uiso   1.00
H1557  H     0.99678   0.18631   0.72237   0.00000  Uiso   1.00
H1558  H     0.94344   0.18567   0.98939   0.00000  Uiso   1.00
H1559  H     0.99294   0.20379   0.96705   0.00000  Uiso   1.00
H1560  H     0.95366   0.24689   0.97774   0.00000  Uiso   1.00
H1561  H     0.92438   0.11671   0.92251   0.00000  Uiso   1.00
H1562  H     0.86147   0.29052   0.90352   0.00000  Uiso   1.00
H1563  H     0.97851   0.11316   0.93617   0.00000  Uiso   1.00
H1564  H     0.92801   0.02410   0.91927   0.00000  Uiso   1.00
H1565  H     0.97674   0.03126   0.94855   0.00000  Uiso   1.00
H1566  H     0.94348   0.07629   0.68394   0.00000  Uiso   1.00
H1567  H     0.92104   0.01880   0.67660   0.00000  Uiso   1.00
H1568  H     0.89424   0.06934   0.98754   0.00000  Uiso   1.00
H1569  H     0.99963   0.27714   0.87516   0.00000  Uiso   1.00
H1570  H     0.70474   0.31594   0.85361   0.00000  Uiso   1.00
H1571  H     0.72301   0.23019   0.91753   0.00000  Uiso   1.00
H1572  H     0.75978   0.27224   0.89514   0.00000  Uiso   1.00
H1573  H     0.86010   0.04364   0.90407   0.00000  Uiso   1.00
H1574  H     0.72455   0.00248   0.94127   0.00000  Uiso   1.00
H1575  H     0.73993   0.28896   0.98151   0.00000  Uiso   1.00
H1576  H     0.68703   0.29423   0.96335   0.00000  Uiso   1.00
H1577  H     0.80481   0.28980   0.76337   0.00000  Uiso   1.00
H1578  H     0.73503   0.03581   0.79702   0.00000  Uiso   1.00
H1579  H     0.72392   0.09028   0.76867   0.00000  Uiso   1.00
H1580  H     0.99131   0.01822   0.80078   0.00000  Uiso   1.00
H1581  H     0.98316   0.07011   0.76496   0.00000  Uiso   1.00
H1582  H     0.69257   0.03894   0.69751   0.00000  Uiso   1.00
N1583  N     0.83333   0.28402   0.83333   0.00000  Uiso   1.00
N1584  N     0.83333   0.04931   0.83333   0.00000  Uiso   1.00
O1585  O     0.77321   0.20625   0.83333   0.00000  Uiso   1.00
O1586  O     0.96001   0.24417   0.79401   0.00000  Uiso   1.00
O1587  O     0.95920   0.08765   0.86678   0.00000  Uiso   1.00
O1588  O     0.70757   0.25122   0.82132   0.00000  Uiso   1.00
O1589  O     0.89345   0.12709   0.83334   0.00000  Uiso   1.00
O1590  O     0.89345   0.20625   0.83334   0.00000  Uiso   1.00
O1591  O     0.77321   0.12709   0.83333   0.00000  Uiso   1.00
O1592  O     0.83333   0.20625   0.76280   0.00000  Uiso   1.00
O1593  O     0.83333   0.12708   0.90387   0.00000  Uiso   1.00
O1594  O     0.83333   0.20625   0.90387   0.00000  Uiso   1.00
O1595  O     0.83333   0.12708   0.76280   0.00000  Uiso   1.00
O1596  O     0.70603   0.08156   0.84291   0.00000  Uiso   1.00
C1597  C     0.08729   0.49997   0.83316   0.00000  Uiso   1.00
C1598  C     0.02078   0.54201   0.82522   0.00000  Uiso   1.00
C1599  C     0.29030   0.49998   0.83265   0.00000  Uiso   1.00
C1600  C     0.04248   0.49998   0.83272   0.00000  Uiso   1.00
C1601  C     0.15148   0.35788   0.79422   0.00000  Uiso   1.00
C1602  C     0.18216   0.64212   0.87229   0.00000  Uiso   1.00
C1603  C     0.18174   0.35829   0.87247   0.00000  Uiso   1.00
C1604  C     0.15105   0.64172   0.79445   0.00000  Uiso   1.00
C1605  C     0.04492   0.39696   0.79464   0.00000  Uiso   1.00
C1606  C     0.00549   0.37542   0.77354   0.00000  Uiso   1.00
C1607  C     0.01451   0.34825   0.72647   0.00000  Uiso   1.00
C1608  C     0.24584   0.50002   0.83347   0.00000  Uiso   1.00
C1609  C     0.28014   0.56522   0.74577   0.00000  Uiso   1.00
C1610  C     0.31563   0.55296   0.71079   0.00000  Uiso   1.00
C1611  C     0.30036   0.54701   0.99133   0.00000  Uiso   1.00
C1612  C     0.28566   0.42838   0.91762   0.00000  Uiso   1.00
C1613  C     0.27973   0.38120   0.94294   0.00000  Uiso   1.00
C1614  C     0.25834   0.38689   0.99253   0.00000  Uiso   1.00
C1615  C     0.03231   0.61240   0.86343   0.00000  Uiso   1.00
C1616  C     0.06078   0.60053   0.90653   0.00000  Uiso   1.00
C1617  C     0.05246   0.63192   0.95086   0.00000  Uiso   1.00
C1618  C     0.16676   0.49994   0.74022   0.00000  Uiso   1.00
C1619  C     0.16679   0.50006   0.92645   0.00000  Uiso   1.00
C1620  C     0.16689   0.49992   0.68852   0.00000  Uiso   1.00
C1621  C     0.16690   0.50008   0.97814   0.00000  Uiso   1.00
C1622  C     0.02047   0.45800   0.84005   0.00000  Uiso   1.00
C1623  C     0.31206   0.53972   0.81657   0.00000  Uiso   1.00
C1624  C     0.31190   0.46000   0.84777   0.00000  Uiso   1.00
Cu1625 Cu    0.16667   0.54689   0.83333   0.00000  Uiso   1.00
Cu1626 Cu    0.16667   0.45311   0.83333   0.00000  Uiso   1.00
H1627  H     0.13912   0.37617   0.76284   0.00000  Uiso   1.00
H1628  H     0.31946   0.66438   0.71316   0.00000  Uiso   1.00
H1629  H     0.03786   0.65424   0.73346   0.00000  Uiso   1.00
H1630  H     0.26366   0.59592   0.73067   0.00000  Uiso   1.00
H1631  H     0.25767   0.53602   0.74601   0.00000  Uiso   1.00
H1632  H     0.00592   0.58082   0.71202   0.00000  Uiso   1.00
H1633  H     0.33011   0.51965   0.72237   0.00000  Uiso   1.00
H1634  H     0.27677   0.51901   0.98939   0.00000  Uiso   1.00
H1635  H     0.32628   0.53712   0.96705   0.00000  Uiso   1.00
H1636  H     0.28700   0.58022   0.97774   0.00000  Uiso   1.00
H1637  H     0.25771   0.45005   0.92251   0.00000  Uiso   1.00
H1638  H     0.19480   0.62385   0.90352   0.00000  Uiso   1.00
H1639  H     0.31185   0.44649   0.93617   0.00000  Uiso   1.00
H1640  H     0.26135   0.35743   0.91927   0.00000  Uiso   1.00
H1641  H     0.31007   0.36459   0.94855   0.00000  Uiso   1.00
H1642  H     0.27681   0.40962   0.68394   0.00000  Uiso   1.00
H1643  H     0.25437   0.35213   0.67660   0.00000  Uiso   1.00
H1644  H     0.22757   0.40267   0.98754   0.00000  Uiso   1.00
H1645  H     0.33296   0.61047   0.87516   0.00000  Uiso   1.00
H1646  H     0.03807   0.64927   0.85361   0.00000  Uiso   1.00
H1647  H     0.05634   0.56352   0.91753   0.00000  Uiso   1.00
H1648  H     0.09311   0.60558   0.89514   0.00000  Uiso   1.00
H1649  H     0.19343   0.37697   0.90407   0.00000  Uiso   1.00
H1650  H     0.05788   0.33581   0.94127   0.00000  Uiso   1.00
H1651  H     0.07327   0.62229   0.98151   0.00000  Uiso   1.00
H1652  H     0.02036   0.62756   0.96335   0.00000  Uiso   1.00
H1653  H     0.13815   0.62314   0.76337   0.00000  Uiso   1.00
H1654  H     0.06836   0.36914   0.79702   0.00000  Uiso   1.00
H1655  H     0.05725   0.42361   0.76867   0.00000  Uiso   1.00
H1656  H     0.32465   0.35155   0.80078   0.00000  Uiso   1.00
H1657  H     0.31650   0.40345   0.76496   0.00000  Uiso   1.00
H1658  H     0.02590   0.37227   0.69751   0.00000  Uiso   1.00
N1659  N     0.16667   0.61736   0.83333   0.00000  Uiso   1.00
N1660  N     0.16667   0.38264   0.83333   0.00000  Uiso   1.00
O1661  O     0.10655   0.53958   0.83333   0.00000  Uiso   1.00
O1662  O     0.29335   0.57751   0.79401   0.00000  Uiso   1.00
O1663  O     0.29253   0.42099   0.86678   0.00000  Uiso   1.00
O1664  O     0.04091   0.58456   0.82132   0.00000  Uiso   1.00
O1665  O     0.22679   0.46042   0.83334   0.00000  Uiso   1.00
O1666  O     0.22679   0.53958   0.83334   0.00000  Uiso   1.00
O1667  O     0.10655   0.46042   0.83333   0.00000  Uiso   1.00
O1668  O     0.16667   0.53959   0.76280   0.00000  Uiso   1.00
O1669  O     0.16667   0.46041   0.90387   0.00000  Uiso   1.00
O1670  O     0.16667   0.53959   0.90387   0.00000  Uiso   1.00
O1671  O     0.16667   0.46041   0.76280   0.00000  Uiso   1.00
O1672  O     0.03936   0.41490   0.84291   0.00000  Uiso   1.00
C1673  C     0.42063   0.49997   0.83316   0.00000  Uiso   1.00
C1674  C     0.35411   0.54201   0.82522   0.00000  Uiso   1.00
C1675  C     0.62363   0.49998   0.83265   0.00000  Uiso   1.00
C1676  C     0.37581   0.49998   0.83272   0.00000  Uiso   1.00
C1677  C     0.48481   0.35788   0.79422   0.00000  Uiso   1.00
C1678  C     0.51549   0.64212   0.87229   0.00000  Uiso   1.00
C1679  C     0.51507   0.35829   0.87247   0.00000  Uiso   1.00
C1680  C     0.48439   0.64172   0.79445   0.00000  Uiso   1.00
C1681  C     0.37825   0.39696   0.79464   0.00000  Uiso   1.00
C1682  C     0.33883   0.37542   0.77354   0.00000  Uiso   1.00
C1683  C     0.34784   0.34825   0.72647   0.00000  Uiso   1.00
C1684  C     0.57917   0.50002   0.83347   0.00000  Uiso   1.00
C1685  C     0.61347   0.56522   0.74577   0.00000  Uiso   1.00
C1686  C     0.64897   0.55296   0.71079   0.00000  Uiso   1.00
C1687  C     0.63369   0.54701   0.99133   0.00000  Uiso   1.00
C1688  C     0.61899   0.42838   0.91762   0.00000  Uiso   1.00
C1689  C     0.61306   0.38120   0.94294   0.00000  Uiso   1.00
C1690  C     0.59167   0.38689   0.99253   0.00000  Uiso   1.00
C1691  C     0.36565   0.61240   0.86343   0.00000  Uiso   1.00
C1692  C     0.39411   0.60053   0.90653   0.00000  Uiso   1.00
C1693  C     0.38580   0.63192   0.95086   0.00000  Uiso   1.00
C1694  C     0.50009   0.49994   0.74022   0.00000  Uiso   1.00
C1695  C     0.50013   0.50006   0.92645   0.00000  Uiso   1.00
C1696  C     0.50023   0.49992   0.68852   0.00000  Uiso   1.00
C1697  C     0.50024   0.50008   0.97814   0.00000  Uiso   1.00
C1698  C     0.35381   0.45800   0.84005   0.00000  Uiso   1.00
C1699  C     0.64540   0.53972   0.81657   0.00000  Uiso   1.00
C1700  C     0.64523   0.46000   0.84777   0.00000  Uiso   1.00
Cu1701 Cu    0.50000   0.54689   0.83333   0.00000  Uiso   1.00
Cu1702 Cu    0.50000   0.45311   0.83333   0.00000  Uiso   1.00
H1703  H     0.47245   0.37617   0.76284   0.00000  Uiso   1.00
H1704  H     0.65280   0.66438   0.71316   0.00000  Uiso   1.00
H1705  H     0.37119   0.65424   0.73346   0.00000  Uiso   1.00
H1706  H     0.59699   0.59592   0.73067   0.00000  Uiso   1.00
H1707  H     0.59100   0.53602   0.74601   0.00000  Uiso   1.00
H1708  H     0.33925   0.58082   0.71202   0.00000  Uiso   1.00
H1709  H     0.66345   0.51965   0.72237   0.00000  Uiso   1.00
H1710  H     0.61011   0.51901   0.98939   0.00000  Uiso   1.00
H1711  H     0.65961   0.53712   0.96705   0.00000  Uiso   1.00
H1712  H     0.62033   0.58022   0.97774   0.00000  Uiso   1.00
H1713  H     0.59104   0.45005   0.92251   0.00000  Uiso   1.00
H1714  H     0.52813   0.62385   0.90352   0.00000  Uiso   1.00
H1715  H     0.64518   0.44649   0.93617   0.00000  Uiso   1.00
H1716  H     0.59468   0.35743   0.91927   0.00000  Uiso   1.00
H1717  H     0.64341   0.36459   0.94855   0.00000  Uiso   1.00
H1718  H     0.61015   0.40962   0.68394   0.00000  Uiso   1.00
H1719  H     0.58771   0.35213   0.67660   0.00000  Uiso   1.00
H1720  H     0.56091   0.40267   0.98754   0.00000  Uiso   1.00
H1721  H     0.66630   0.61047   0.87516   0.00000  Uiso   1.00
H1722  H     0.37140   0.64927   0.85361   0.00000  Uiso   1.00
H1723  H     0.38968   0.56352   0.91753   0.00000  Uiso   1.00
H1724  H     0.42645   0.60558   0.89514   0.00000  Uiso   1.00
H1725  H     0.52676   0.37697   0.90407   0.00000  Uiso   1.00
H1726  H     0.39122   0.33581   0.94127   0.00000  Uiso   1.00
H1727  H     0.40660   0.62229   0.98151   0.00000  Uiso   1.00
H1728  H     0.35370   0.62756   0.96335   0.00000  Uiso   1.00
H1729  H     0.47148   0.62314   0.76337   0.00000  Uiso   1.00
H1730  H     0.40170   0.36914   0.79702   0.00000  Uiso   1.00
H1731  H     0.39059   0.42361   0.76867   0.00000  Uiso   1.00
H1732  H     0.65798   0.35155   0.80078   0.00000  Uiso   1.00
H1733  H     0.64983   0.40345   0.76496   0.00000  Uiso   1.00
H1734  H     0.35924   0.37227   0.69751   0.00000  Uiso   1.00
N1735  N     0.50000   0.61736   0.83333   0.00000  Uiso   1.00
N1736  N     0.50000   0.38264   0.83333   0.00000  Uiso   1.00
O1737  O     0.43988   0.53958   0.83333   0.00000  Uiso   1.00
O1738  O     0.62668   0.57751   0.79401   0.00000  Uiso   1.00
O1739  O     0.62587   0.42099   0.86678   0.00000  Uiso   1.00
O1740  O     0.37424   0.58456   0.82132   0.00000  Uiso   1.00
O1741  O     0.56012   0.46042   0.83334   0.00000  Uiso   1.00
O1742  O     0.56012   0.53958   0.83334   0.00000  Uiso   1.00
O1743  O     0.43988   0.46042   0.83333   0.00000  Uiso   1.00
O1744  O     0.50000   0.53959   0.76280   0.00000  Uiso   1.00
O1745  O     0.50000   0.46041   0.90387   0.00000  Uiso   1.00
O1746  O     0.50000   0.53959   0.90387   0.00000  Uiso   1.00
O1747  O     0.50000   0.46041   0.76280   0.00000  Uiso   1.00
O1748  O     0.37269   0.41490   0.84291   0.00000  Uiso   1.00
C1749  C     0.75396   0.49997   0.83316   0.00000  Uiso   1.00
C1750  C     0.68745   0.54201   0.82522   0.00000  Uiso   1.00
C1751  C     0.95696   0.49998   0.83265   0.00000  Uiso   1.00
C1752  C     0.70915   0.49998   0.83272   0.00000  Uiso   1.00
C1753  C     0.81814   0.35788   0.79422   0.00000  Uiso   1.00
C1754  C     0.84882   0.64212   0.87229   0.00000  Uiso   1.00
C1755  C     0.84841   0.35829   0.87247   0.00000  Uiso   1.00
C1756  C     0.81772   0.64172   0.79445   0.00000  Uiso   1.00
C1757  C     0.71159   0.39696   0.79464   0.00000  Uiso   1.00
C1758  C     0.67216   0.37542   0.77354   0.00000  Uiso   1.00
C1759  C     0.68117   0.34825   0.72647   0.00000  Uiso   1.00
C1760  C     0.91251   0.50002   0.83347   0.00000  Uiso   1.00
C1761  C     0.94680   0.56522   0.74577   0.00000  Uiso   1.00
C1762  C     0.98230   0.55296   0.71079   0.00000  Uiso   1.00
C1763  C     0.96703   0.54701   0.99133   0.00000  Uiso   1.00
C1764  C     0.95232   0.42838   0.91762   0.00000  Uiso   1.00
C1765  C     0.94640   0.38120   0.94294   0.00000  Uiso   1.00
C1766  C     0.92500   0.38689   0.99253   0.00000  Uiso   1.00
C1767  C     0.69898   0.61240   0.86343   0.00000  Uiso   1.00
C1768  C     0.72744   0.60053   0.90653   0.00000  Uiso   1.00
C1769  C     0.71913   0.63192   0.95086   0.00000  Uiso   1.00
C1770  C     0.83343   0.49994   0.74022   0.00000  Uiso   1.00
C1771  C     0.83346   0.50006   0.92645   0.00000  Uiso   1.00
C1772  C     0.83356   0.49992   0.68852   0.00000  Uiso   1.00
C1773  C     0.83357   0.50008   0.97814   0.00000  Uiso   1.00
C1774  C     0.68714   0.45800   0.84005   0.00000  Uiso   1.00
C1775  C     0.97873   0.53972   0.81657   0.00000  Uiso   1.00
C1776  C     0.97857   0.46000   0.84777   0.00000  Uiso   1.00
Cu1777 Cu    0.83333   0.54689   0.83333   0.00000  Uiso   1.00
Cu1778 Cu    0.83333   0.45311   0.83333   0.00000  Uiso   1.00
H1779  H     0.80578   0.37617   0.76284   0.00000  Uiso   1.00
H1780  H     0.98613   0.66438   0.71316   0.00000  Uiso   1.00
H1781  H     0.70453   0.65424   0.73346   0.00000  Uiso   1.00
H1782  H     0.93032   0.59592   0.73067   0.00000  Uiso   1.00
H1783  H     0.92434   0.53602   0.74601   0.00000  Uiso   1.00
H1784  H     0.67258   0.58082   0.71202   0.00000  Uiso   1.00
H1785  H     0.99678   0.51965   0.72237   0.00000  Uiso   1.00
H1786  H     0.94344   0.51901   0.98939   0.00000  Uiso   1.00
H1787  H     0.99294   0.53712   0.96705   0.00000  Uiso   1.00
H1788  H     0.95366   0.58022   0.97774   0.00000  Uiso   1.00
H1789  H     0.92438   0.45005   0.92251   0.00000  Uiso   1.00
H1790  H     0.86147   0.62385   0.90352   0.00000  Uiso   1.00
H1791  H     0.97851   0.44649   0.93617   0.00000  Uiso   1.00
H1792  H     0.92801   0.35743   0.91927   0.00000  Uiso   1.00
H1793  H     0.97674   0.36459   0.94855   0.00000  Uiso   1.00
H1794  H     0.94348   0.40962   0.68394   0.00000  Uiso   1.00
H1795  H     0.92104   0.35213   0.67660   0.00000  Uiso   1.00
H1796  H     0.89424   0.40267   0.98754   0.00000  Uiso   1.00
H1797  H     0.99963   0.61047   0.87516   0.00000  Uiso   1.00
H1798  H     0.70474   0.64927   0.85361   0.00000  Uiso   1.00
H1799  H     0.72301   0.56352   0.91753   0.00000  Uiso   1.00
H1800  H     0.75978   0.60558   0.89514   0.00000  Uiso   1.00
H1801  H     0.86010   0.37697   0.90407   0.00000  Uiso   1.00
H1802  H     0.72455   0.33581   0.94127   0.00000  Uiso   1.00
H1803  H     0.73993   0.62229   0.98151   0.00000  Uiso   1.00
H1804  H     0.68703   0.62756   0.96335   0.00000  Uiso   1.00
H1805  H     0.80481   0.62314   0.76337   0.00000  Uiso   1.00
H1806  H     0.73503   0.36914   0.79702   0.00000  Uiso   1.00
H1807  H     0.72392   0.42361   0.76867   0.00000  Uiso   1.00
H1808  H     0.99131   0.35155   0.80078   0.00000  Uiso   1.00
H1809  H     0.98316   0.40345   0.76496   0.00000  Uiso   1.00
H1810  H     0.69257   0.37227   0.69751   0.00000  Uiso   1.00
N1811  N     0.83333   0.61736   0.83333   0.00000  Uiso   1.00
N1812  N     0.83333   0.38264   0.83333   0.00000  Uiso   1.00
O1813  O     0.77321   0.53958   0.83333   0.00000  Uiso   1.00
O1814  O     0.96001   0.57751   0.79401   0.00000  Uiso   1.00
O1815  O     0.95920   0.42099   0.86678   0.00000  Uiso   1.00
O1816  O     0.70757   0.58456   0.82132   0.00000  Uiso   1.00
O1817  O     0.89345   0.46042   0.83334   0.00000  Uiso   1.00
O1818  O     0.89345   0.53958   0.83334   0.00000  Uiso   1.00
O1819  O     0.77321   0.46042   0.83333   0.00000  Uiso   1.00
O1820  O     0.83333   0.53959   0.76280   0.00000  Uiso   1.00
O1821  O     0.83333   0.46041   0.90387   0.00000  Uiso   1.00
O1822  O     0.83333   0.53959   0.90387   0.00000  Uiso   1.00
O1823  O     0.83333   0.46041   0.76280   0.00000  Uiso   1.00
O1824  O     0.70603   0.41490   0.84291   0.00000  Uiso   1.00
C1825  C     0.08729   0.83331   0.83316   0.00000  Uiso   1.00
C1826  C     0.02078   0.87535   0.82522   0.00000  Uiso   1.00
C1827  C     0.29030   0.83331   0.83265   0.00000  Uiso   1.00
C1828  C     0.04248   0.83331   0.83272   0.00000  Uiso   1.00
C1829  C     0.15148   0.69122   0.79422   0.00000  Uiso   1.00
C1830  C     0.18216   0.97545   0.87229   0.00000  Uiso   1.00
C1831  C     0.18174   0.69162   0.87247   0.00000  Uiso   1.00
C1832  C     0.15105   0.97505   0.79445   0.00000  Uiso   1.00
C1833  C     0.04492   0.73029   0.79464   0.00000  Uiso   1.00
C1834  C     0.00549   0.70876   0.77354   0.00000  Uiso   1.00
C1835  C     0.01451   0.68158   0.72647   0.00000  Uiso   1.00
C1836  C     0.24584   0.83335   0.83347   0.00000  Uiso   1.00
C1837  C     0.28014   0.89855   0.74577   0.00000  Uiso   1.00
C1838  C     0.31563   0.88629   0.71079   0.00000  Uiso   1.00
C1839  C     0.30036   0.88034   0.99133   0.00000  Uiso   1.00
C1840  C     0.28566   0.76171   0.91762   0.00000  Uiso   1.00
C1841  C     0.27973   0.71453   0.94294   0.00000  Uiso   1.00
C1842  C     0.25834   0.72022   0.99253   0.00000  Uiso   1.00
C1843  C     0.03231   0.94573   0.86343   0.00000  Uiso   1.00
C1844  C     0.06078   0.93387   0.90653   0.00000  Uiso   1.00
C1845  C     0.05246   0.96525   0.95086   0.00000  Uiso   1.00
C1846  C     0.16676   0.83327   0.74022   0.00000  Uiso   1.00
C1847  C     0.16679   0.83339   0.92645   0.00000  Uiso   1.00
C1848  C     0.16689   0.83325   0.68852   0.00000  Uiso   1.00
C1849  C     0.16690   0.83341   0.97814   0.00000  Uiso   1.00
C1850  C     0.02047   0.79134   0.84005   0.00000  Uiso   1.00
C1851  C     0.31206   0.87305   0.81657   0.00000  Uiso   1.00
C1852  C     0.31190   0.79333   0.84777   0.00000  Uiso   1.00
Cu1853 Cu    0.16667   0.88022   0.83333   0.00000  Uiso   1.00
Cu1854 Cu    0.16667   0.78645   0.83333   0.00000  Uiso   1.00
H1855  H     0.13912   0.70951   0.76284   0.00000  Uiso   1.00
H1856  H     0.31946   0.99771   0.71316   0.00000  Uiso   1.00
H1857  H     0.03786   0.98758   0.73346   0.00000  Uiso   1.00
H1858  H     0.26366   0.92926   0.73067   0.00000  Uiso   1.00
H1859  H     0.25767   0.86936   0.74601   0.00000  Uiso   1.00
H1860  H     0.00592   0.91415   0.71202   0.00000  Uiso   1.00
H1861  H     0.33011   0.85298   0.72237   0.00000  Uiso   1.00
H1862  H     0.27677   0.85234   0.98939   0.00000  Uiso   1.00
H1863  H     0.32628   0.87046   0.96705   0.00000  Uiso   1.00
H1864  H     0.28700   0.91356   0.97774   0.00000  Uiso   1.00
H1865  H     0.25771   0.78338   0.92251   0.00000  Uiso   1.00
H1866  H     0.19480   0.95718   0.90352   0.00000  Uiso   1.00
H1867  H     0.31185   0.77982   0.93617   0.00000  Uiso   1.00
H1868  H     0.26135   0.69077   0.91927   0.00000  Uiso   1.00
H1869  H     0.31007   0.69793   0.94855   0.00000  Uiso   1.00
H1870  H     0.27681   0.74296   0.68394   0.00000  Uiso   1.00
H1871  H     0.25437   0.68547   0.67660   0.00000  Uiso   1.00
H1872  H     0.22757   0.73600   0.98754   0.00000  Uiso   1.00
H1873  H     0.33296   0.94380   0.87516   0.00000  Uiso   1.00
H1874  H     0.03807   0.98261   0.85361   0.00000  Uiso   1.00
H1875  H     0.05634   0.89685   0.91753   0.00000  Uiso   1.00
H1876  H     0.09311   0.93891   0.89514   0.00000  Uiso   1.00
H1877  H     0.19343   0.71031   0.90407   0.00000  Uiso   1.00
H1878  H     0.05788   0.66915   0.94127   0.00000  Uiso   1.00
H1879  H     0.07327   0.95563   0.98151   0.00000  Uiso   1.00
H1880  H     0.02036   0.96089   0.96335   0.00000  Uiso   1.00
H1881  H     0.13815   0.95647   0.76337   0.00000  Uiso   1.00
H1882  H     0.06836   0.70247   0.79702   0.00000  Uiso   1.00
H1883  H     0.05725   0.75694   0.76867   0.00000  Uiso   1.00
H1884  H     0.32465   0.68488   0.80078   0.00000  Uiso   1.00
H1885  H     0.31650   0.73678   0.76496   0.00000  Uiso   1.00
H1886  H     0.02590   0.70560   0.69751   0.00000  Uiso   1.00
N1887  N     0.16667   0.95069   0.83333   0.00000  Uiso   1.00
N1888  N     0.16667   0.71598   0.83333   0.00000  Uiso   1.00
O1889  O     0.10655   0.87291   0.83333   0.00000  Uiso   1.00
O1890  O     0.29335   0.91084   0.79401   0.00000  Uiso   1.00
O1891  O     0.29253   0.75432   0.86678   0.00000  Uiso   1.00
O1892  O     0.04091   0.91789   0.82132   0.00000  Uiso   1.00
O1893  O     0.22679   0.79375   0.83334   0.00000  Uiso   1.00
O1894  O     0.22679   0.87291   0.83334   0.00000  Uiso   1.00
O1895  O     0.10655   0.79375   0.83333   0.00000  Uiso   1.00
O1896  O     0.16667   0.87292   0.76280   0.00000  Uiso   1.00
O1897  O     0.16667   0.79375   0.90387   0.00000  Uiso   1.00
O1898  O     0.16667   0.87292   0.90387   0.00000  Uiso   1.00
O1899  O     0.16667   0.79375   0.76280   0.00000  Uiso   1.00
O1900  O     0.03936   0.74823   0.84291   0.00000  Uiso   1.00
C1901  C     0.42063   0.83331   0.83316   0.00000  Uiso   1.00
C1902  C     0.35411   0.87535   0.82522   0.00000  Uiso   1.00
C1903  C     0.62363   0.83331   0.83265   0.00000  Uiso   1.00
C1904  C     0.37581   0.83331   0.83272   0.00000  Uiso   1.00
C1905  C     0.48481   0.69122   0.79422   0.00000  Uiso   1.00
C1906  C     0.51549   0.97545   0.87229   0.00000  Uiso   1.00
C1907  C     0.51507   0.69162   0.87247   0.00000  Uiso   1.00
C1908  C     0.48439   0.97505   0.79445   0.00000  Uiso   1.00
C1909  C     0.37825   0.73029   0.79464   0.00000  Uiso   1.00
C1910  C     0.33883   0.70876   0.77354   0.00000  Uiso   1.00
C1911  C     0.34784   0.68158   0.72647   0.00000  Uiso   1.00
C1912  C     0.57917   0.83335   0.83347   0.00000  Uiso   1.00
C1913  C     0.61347   0.89855   0.74577   0.00000  Uiso   1.00
C1914  C     0.64897   0.88629   0.71079   0.00000  Uiso   1.00
C1915  C     0.63369   0.88034   0.99133   0.00000  Uiso   1.00
C1916  C     0.61899   0.76171   0.91762   0.00000  Uiso   1.00
C1917  C     0.61306   0.71453   0.94294   0.00000  Uiso   1.00
C1918  C     0.59167   0.72022   0.99253   0.00000  Uiso   1.00
C1919  C     0.36565   0.94573   0.86343   0.00000  Uiso   1.00
C1920  C     0.39411   0.93387   0.90653   0.00000  Uiso   1.00
C1921  C     0.38580   0.96525   0.95086   0.00000  Uiso   1.00
C1922  C     0.50009   0.83327   0.74022   0.00000  Uiso   1.00
C1923  C     0.50013   0.83339   0.92645   0.00000  Uiso   1.00
C1924  C     0.50023   0.83325   0.68852   0.00000  Uiso   1.00
C1925  C     0.50024   0.83341   0.97814   0.00000  Uiso   1.00
C1926  C     0.35381   0.79134   0.84005   0.00000  Uiso   1.00
C1927  C     0.64540   0.87305   0.81657   0.00000  Uiso   1.00
C1928  C     0.64523   0.79333   0.84777   0.00000  Uiso   1.00
Cu1929 Cu    0.50000   0.88022   0.83333   0.00000  Uiso   1.00
Cu1930 Cu    0.50000   0.78645   0.83333   0.00000  Uiso   1.00
H1931  H     0.47245   0.70951   0.76284   0.00000  Uiso   1.00
H1932  H     0.65280   0.99771   0.71316   0.00000  Uiso   1.00
H1933  H     0.37119   0.98758   0.73346   0.00000  Uiso   1.00
H1934  H     0.59699   0.92926   0.73067   0.00000  Uiso   1.00
H1935  H     0.59100   0.86936   0.74601   0.00000  Uiso   1.00
H1936  H     0.33925   0.91415   0.71202   0.00000  Uiso   1.00
H1937  H     0.66345   0.85298   0.72237   0.00000  Uiso   1.00
H1938  H     0.61011   0.85234   0.98939   0.00000  Uiso   1.00
H1939  H     0.65961   0.87046   0.96705   0.00000  Uiso   1.00
H1940  H     0.62033   0.91356   0.97774   0.00000  Uiso   1.00
H1941  H     0.59104   0.78338   0.92251   0.00000  Uiso   1.00
H1942  H     0.52813   0.95718   0.90352   0.00000  Uiso   1.00
H1943  H     0.64518   0.77982   0.93617   0.00000  Uiso   1.00
H1944  H     0.59468   0.69077   0.91927   0.00000  Uiso   1.00
H1945  H     0.64341   0.69793   0.94855   0.00000  Uiso   1.00
H1946  H     0.61015   0.74296   0.68394   0.00000  Uiso   1.00
H1947  H     0.58771   0.68547   0.67660   0.00000  Uiso   1.00
H1948  H     0.56091   0.73600   0.98754   0.00000  Uiso   1.00
H1949  H     0.66630   0.94380   0.87516   0.00000  Uiso   1.00
H1950  H     0.37140   0.98261   0.85361   0.00000  Uiso   1.00
H1951  H     0.38968   0.89685   0.91753   0.00000  Uiso   1.00
H1952  H     0.42645   0.93891   0.89514   0.00000  Uiso   1.00
H1953  H     0.52676   0.71031   0.90407   0.00000  Uiso   1.00
H1954  H     0.39122   0.66915   0.94127   0.00000  Uiso   1.00
H1955  H     0.40660   0.95563   0.98151   0.00000  Uiso   1.00
H1956  H     0.35370   0.96089   0.96335   0.00000  Uiso   1.00
H1957  H     0.47148   0.95647   0.76337   0.00000  Uiso   1.00
H1958  H     0.40170   0.70247   0.79702   0.00000  Uiso   1.00
H1959  H     0.39059   0.75694   0.76867   0.00000  Uiso   1.00
H1960  H     0.65798   0.68488   0.80078   0.00000  Uiso   1.00
H1961  H     0.64983   0.73678   0.76496   0.00000  Uiso   1.00
H1962  H     0.35924   0.70560   0.69751   0.00000  Uiso   1.00
N1963  N     0.50000   0.95069   0.83333   0.00000  Uiso   1.00
N1964  N     0.50000   0.71598   0.83333   0.00000  Uiso   1.00
O1965  O     0.43988   0.87291   0.83333   0.00000  Uiso   1.00
O1966  O     0.62668   0.91084   0.79401   0.00000  Uiso   1.00
O1967  O     0.62587   0.75432   0.86678   0.00000  Uiso   1.00
O1968  O     0.37424   0.91789   0.82132   0.00000  Uiso   1.00
O1969  O     0.56012   0.79375   0.83334   0.00000  Uiso   1.00
O1970  O     0.56012   0.87291   0.83334   0.00000  Uiso   1.00
O1971  O     0.43988   0.79375   0.83333   0.00000  Uiso   1.00
O1972  O     0.50000   0.87292   0.76280   0.00000  Uiso   1.00
O1973  O     0.50000   0.79375   0.90387   0.00000  Uiso   1.00
O1974  O     0.50000   0.87292   0.90387   0.00000  Uiso   1.00
O1975  O     0.50000   0.79375   0.76280   0.00000  Uiso   1.00
O1976  O     0.37269   0.74823   0.84291   0.00000  Uiso   1.00
C1977  C     0.75396   0.83331   0.83316   0.00000  Uiso   1.00
C1978  C     0.68745   0.87535   0.82522   0.00000  Uiso   1.00
C1979  C     0.95696   0.83331   0.83265   0.00000  Uiso   1.00
C1980  C     0.70915   0.83331   0.83272   0.00000  Uiso   1.00
C1981  C     0.81814   0.69122   0.79422   0.00000  Uiso   1.00
C1982  C     0.84882   0.97545   0.87229   0.00000  Uiso   1.00
C1983  C     0.84841   0.69162   0.87247   0.00000  Uiso   1.00
C1984  C     0.81772   0.97505   0.79445   0.00000  Uiso   1.00
C1985  C     0.71159   0.73029   0.79464   0.00000  Uiso   1.00
C1986  C     0.67216   0.70876   0.77354   0.00000  Uiso   1.00
C1987  C     0.68117   0.68158   0.72647   0.00000  Uiso   1.00
C1988  C     0.91251   0.83335   0.83347   0.00000  Uiso   1.00
C1989  C     0.94680   0.89855   0.74577   0.00000  Uiso   1.00
C1990  C     0.98230   0.88629   0.71079   0.00000  Uiso   1.00
C1991  C     0.96703   0.88034   0.99133   0.00000  Uiso   1.00
C1992  C     0.95232   0.76171   0.91762   0.00000  Uiso   1.00
C1993  C     0.94640   0.71453   0.94294   0.00000  Uiso   1.00
C1994  C     0.92500   0.72022   0.99253   0.00000  Uiso   1.00
C1995  C     0.69898   0.94573   0.86343   0.00000  Uiso   1.00
C1996  C     0.72744   0.93387   0.90653   0.00000  Uiso   1.00
C1997  C     0.71913   0.96525   0.95086   0.00000  Uiso   1.00
C1998  C     0.83343   0.83327   0.74022   0.00000  Uiso   1.00
C1999  C     0.83346   0.83339   0.92645   0.00000  Uiso   1.00
C2000  C     0.83356   0.83325   0.68852   0.00000  Uiso   1.00
C2001  C     0.83357   0.83341   0.97814   0.00000  Uiso   1.00
C2002  C     0.68714   0.79134   0.84005   0.00000  Uiso   1.00
C2003  C     0.97873   0.87305   0.81657   0.00000  Uiso   1.00
C2004  C     0.97857   0.79333   0.84777   0.00000  Uiso   1.00
Cu2005 Cu    0.83333   0.88022   0.83333   0.00000  Uiso   1.00
Cu2006 Cu    0.83333   0.78645   0.83333   0.00000  Uiso   1.00
H2007  H     0.80578   0.70951   0.76284   0.00000  Uiso   1.00
H2008  H     0.98613   0.99771   0.71316   0.00000  Uiso   1.00
H2009  H     0.70453   0.98758   0.73346   0.00000  Uiso   1.00
H2010  H     0.93032   0.92926   0.73067   0.00000  Uiso   1.00
H2011  H     0.92434   0.86936   0.74601   0.00000  Uiso   1.00
H2012  H     0.67258   0.91415   0.71202   0.00000  Uiso   1.00
H2013  H     0.99678   0.85298   0.72237   0.00000  Uiso   1.00
H2014  H     0.94344   0.85234   0.98939   0.00000  Uiso   1.00
H2015  H     0.99294   0.87046   0.96705   0.00000  Uiso   1.00
H2016  H     0.95366   0.91356   0.97774   0.00000  Uiso   1.00
H2017  H     0.92438   0.78338   0.92251   0.00000  Uiso   1.00
H2018  H     0.86147   0.95718   0.90352   0.00000  Uiso   1.00
H2019  H     0.97851   0.77982   0.93617   0.00000  Uiso   1.00
H2020  H     0.92801   0.69077   0.91927   0.00000  Uiso   1.00
H2021  H     0.97674   0.69793   0.94855   0.00000  Uiso   1.00
H2022  H     0.94348   0.74296   0.68394   0.00000  Uiso   1.00
H2023  H     0.92104   0.68547   0.67660   0.00000  Uiso   1.00
H2024  H     0.89424   0.73600   0.98754   0.00000  Uiso   1.00
H2025  H     0.99963   0.94380   0.87516   0.00000  Uiso   1.00
H2026  H     0.70474   0.98261   0.85361   0.00000  Uiso   1.00
H2027  H     0.72301   0.89685   0.91753   0.00000  Uiso   1.00
H2028  H     0.75978   0.93891   0.89514   0.00000  Uiso   1.00
H2029  H     0.86010   0.71031   0.90407   0.00000  Uiso   1.00
H2030  H     0.72455   0.66915   0.94127   0.00000  Uiso   1.00
H2031  H     0.73993   0.95563   0.98151   0.00000  Uiso   1.00
H2032  H     0.68703   0.96089   0.96335   0.00000  Uiso   1.00
H2033  H     0.80481   0.95647   0.76337   0.00000  Uiso   1.00
H2034  H     0.73503   0.70247   0.79702   0.00000  Uiso   1.00
H2035  H     0.72392   0.75694   0.76867   0.00000  Uiso   1.00
H2036  H     0.99131   0.68488   0.80078   0.00000  Uiso   1.00
H2037  H     0.98316   0.73678   0.76496   0.00000  Uiso   1.00
H2038  H     0.69257   0.70560   0.69751   0.00000  Uiso   1.00
N2039  N     0.83333   0.95069   0.83333   0.00000  Uiso   1.00
N2040  N     0.83333   0.71598   0.83333   0.00000  Uiso   1.00
O2041  O     0.77321   0.87291   0.83333   0.00000  Uiso   1.00
O2042  O     0.96001   0.91084   0.79401   0.00000  Uiso   1.00
O2043  O     0.95920   0.75432   0.86678   0.00000  Uiso   1.00
O2044  O     0.70757   0.91789   0.82132   0.00000  Uiso   1.00
O2045  O     0.89345   0.79375   0.83334   0.00000  Uiso   1.00
O2046  O     0.89345   0.87291   0.83334   0.00000  Uiso   1.00
O2047  O     0.77321   0.79375   0.83333   0.00000  Uiso   1.00
O2048  O     0.83333   0.87292   0.76280   0.00000  Uiso   1.00
O2049  O     0.83333   0.79375   0.90387   0.00000  Uiso   1.00
O2050  O     0.83333   0.87292   0.90387   0.00000  Uiso   1.00
O2051  O     0.83333   0.79375   0.76280   0.00000  Uiso   1.00
O2052  O     0.70603   0.74823   0.84291   0.00000  Uiso   1.00
loop_
_geom_bond_atom_site_label_1
_geom_bond_atom_site_label_2
_geom_bond_distance
_geom_bond_site_symmetry_2
_ccdc_geom_bond_type
C1     O71     1.296   .     A
C1     C4      1.464   .     S
C1     O65     1.295   .     A
C2     C4      1.413   .     A
C2     O68     1.386   .     S
C2     C179    1.395   1_455 S
C3     C12     1.452   .     S
C3     C27     1.411   .     A
C3     C28     1.408   .     A
C4     C26     1.413   .     A
C5     N64     1.367   .     A
C5     H31     1.081   .     S
C5     C464    1.416   1_545 S
C6     N63     1.368   .     A
C6     H42     1.081   .     S
C6     C235    1.416   .     S
C7     N64     1.366   .     A
C7     H53     1.079   .     S
C7     C462    1.416   1_545 S
C8     H57     1.081   .     S
C8     N63     1.368   .     A
C8     C233    1.416   .     S
C9     O76     1.419   .     S
C9     C10     1.536   .     S
C9     H58     1.108   .     S
C9     H59     1.116   .     S
C10    C11     1.524   .     S
C10    H212    1.110   1_455 S
C10    H213    1.110   1_455 S
C11    H62     1.111   .     S
C11    H640    1.108   1_445 S
C11    H489    1.111   1_545 S
C12    O69     1.291   .     A
C12    O70     1.293   .     A
C13    H35     1.111   .     S
C13    C14     1.540   .     S
C13    O66     1.423   .     S
C13    H34     1.111   .     S
C14    H37     1.111   .     S
C14    C1383   1.528   1_554 S
C14    H112    1.108   .     S
C15    H38     1.111   .     S
C15    H39     1.110   .     S
C15    H40     1.111   .     S
C15    C698    1.528   .     S
C16    H41     1.112   .     S
C16    H43     1.118   .     S
C16    O67     1.415   .     S
C16    C17     1.530   .     S
C17    H44     1.109   .     S
C17    H45     1.111   .     S
C17    C18     1.527   .     S
C18    H48     1.111   .     S
C18    H730    1.111   .     S
C18    H731    1.110   .     S
C19    C20     1.535   .     S
C19    H50     1.105   .     S
C19    O68     1.421   .     S
C19    H201    1.116   1_455 S
C20    H52     1.110   .     S
C20    H51     1.111   .     S
C20    C21     1.525   .     S
C21    H56     1.109   .     S
C21    H55     1.111   .     S
C21    H282    1.111   .     S
C22    O75     1.289   .     A
C22    O72     1.287   .     A
C22    C24     1.405   .     S
C23    O73     1.287   .     A
C23    C25     1.405   .     S
C23    O74     1.289   .     A
C24    C1393   1.188   1_554 S
C25    C708    1.188   .     S
C26    O76     1.383   .     S
C26    C180    1.386   1_455 S
C27    O66     1.388   .     S
C27    C78     1.395   .     S
C28    O67     1.384   .     S
C28    C102    1.386   .     S
Cu29   N63     2.016   .     S
Cu29   O72     1.928   .     S
Cu29   Cu30    2.683   .     S
Cu29   O65     1.974   .     S
Cu29   O70     1.975   .     S
Cu29   O74     1.930   .     S
Cu30   N64     2.016   .     S
Cu30   O71     1.975   .     S
Cu30   O75     1.930   .     S
Cu30   O69     1.974   .     S
Cu30   O73     1.928   .     S
H32    C315    1.108   .     S
H33    C239    1.111   .     S
H36    C166    1.108   1_455 S
H46    C1386   1.111   1_554 S
H47    C1386   1.110   1_554 S
H49    C95     1.116   .     S
H54    C477    1.111   1_545 S
H60    C86     1.110   .     S
H61    C86     1.110   .     S
C77    O147    1.296   .     A
C77    C80     1.464   .     S
C77    O141    1.295   .     A
C78    C80     1.413   .     A
C78    O144    1.386   .     S
C79    C88     1.452   .     S
C79    C103    1.411   .     A
C79    C104    1.408   .     A
C80    C102    1.413   .     A
C81    N140    1.367   .     A
C81    H107    1.081   .     S
C81    C540    1.416   1_545 S
C82    N139    1.368   .     A
C82    H118    1.081   .     S
C82    C311    1.416   .     S
C83    N140    1.366   .     A
C83    H129    1.079   .     S
C83    C538    1.416   1_545 S
C84    H133    1.081   .     S
C84    N139    1.368   .     A
C84    C309    1.416   .     S
C85    O152    1.419   .     S
C85    C86     1.536   .     S
C85    H134    1.108   .     S
C85    H135    1.116   .     S
C86    C87     1.524   .     S
C87    H138    1.111   .     S
C87    H488    1.108   1_545 S
C87    H565    1.111   1_545 S
C88    O145    1.291   .     A
C88    O146    1.293   .     A
C89    H111    1.111   .     S
C89    C90     1.540   .     S
C89    O142    1.423   .     S
C89    H110    1.111   .     S
C90    H113    1.111   .     S
C90    C1459   1.528   1_554 S
C90    H188    1.108   .     S
C91    H114    1.111   .     S
C91    H115    1.110   .     S
C91    H116    1.111   .     S
C91    C774    1.528   .     S
C92    H117    1.112   .     S
C92    H119    1.118   .     S
C92    O143    1.415   .     S
C92    C93     1.530   .     S
C93    H120    1.109   .     S
C93    H121    1.111   .     S
C93    C94     1.527   .     S
C94    H124    1.111   .     S
C94    H806    1.111   .     S
C94    H807    1.110   .     S
C95    C96     1.535   .     S
C95    H126    1.105   .     S
C95    O144    1.421   .     S
C96    H128    1.110   .     S
C96    H127    1.111   .     S
C96    C97     1.525   .     S
C97    H132    1.109   .     S
C97    H131    1.111   .     S
C97    H358    1.111   .     S
C98    O151    1.289   .     A
C98    O148    1.287   .     A
C98    C100    1.405   .     S
C99    O149    1.287   .     A
C99    C101    1.405   .     S
C99    O150    1.289   .     A
C100   C1469   1.188   1_554 S
C101   C784    1.188   .     S
C102   O152    1.383   .     S
C103   O142    1.388   .     S
C103   C154    1.395   .     S
C104   O143    1.384   .     S
C104   C178    1.386   .     S
Cu105  N139    2.016   .     S
Cu105  O148    1.928   .     S
Cu105  Cu106   2.683   .     S
Cu105  O141    1.974   .     S
Cu105  O146    1.975   .     S
Cu105  O150    1.930   .     S
Cu106  N140    2.016   .     S
Cu106  O147    1.975   .     S
Cu106  O151    1.930   .     S
Cu106  O145    1.974   .     S
Cu106  O149    1.928   .     S
H108   C391    1.108   .     S
H109   C315    1.111   .     S
H122   C1462   1.111   1_554 S
H123   C1462   1.110   1_554 S
H125   C171    1.116   .     S
H130   C553    1.111   1_545 S
H136   C162    1.110   .     S
H137   C162    1.110   .     S
C153   O223    1.296   .     A
C153   C156    1.464   .     S
C153   O217    1.295   .     A
C154   C156    1.413   .     A
C154   O220    1.386   .     S
C155   C164    1.452   .     S
C155   C179    1.411   .     A
C155   C180    1.408   .     A
C156   C178    1.413   .     A
C157   N216    1.367   .     A
C157   H183    1.081   .     S
C157   C616    1.416   1_545 S
C158   N215    1.368   .     A
C158   H194    1.081   .     S
C158   C387    1.416   .     S
C159   N216    1.366   .     A
C159   H205    1.079   .     S
C159   C614    1.416   1_545 S
C160   H209    1.081   .     S
C160   N215    1.368   .     A
C160   C385    1.416   .     S
C161   O228    1.419   .     S
C161   C162    1.536   .     S
C161   H210    1.108   .     S
C161   H211    1.116   .     S
C162   C163    1.524   .     S
C163   H214    1.111   .     S
C163   H564    1.108   1_545 S
C163   H641    1.111   1_545 S
C164   O221    1.291   .     A
C164   O222    1.293   .     A
C165   H187    1.111   .     S
C165   C166    1.540   .     S
C165   O218    1.423   .     S
C165   H186    1.111   .     S
C166   H189    1.111   .     S
C166   C1535   1.528   1_554 S
C166   H36     1.108   1_655 S
C167   H190    1.111   .     S
C167   H191    1.110   .     S
C167   H192    1.111   .     S
C167   C850    1.528   .     S
C168   H193    1.112   .     S
C168   H195    1.118   .     S
C168   O219    1.415   .     S
C168   C169    1.530   .     S
C169   H196    1.109   .     S
C169   H197    1.111   .     S
C169   C170    1.527   .     S
C170   H200    1.111   .     S
C170   H882    1.111   .     S
C170   H883    1.110   .     S
C171   C172    1.535   .     S
C171   H202    1.105   .     S
C171   O220    1.421   .     S
C172   H204    1.110   .     S
C172   H203    1.111   .     S
C172   C173    1.525   .     S
C173   H208    1.109   .     S
C173   H207    1.111   .     S
C173   H434    1.111   .     S
C174   O227    1.289   .     A
C174   O224    1.287   .     A
C174   C176    1.405   .     S
C175   O225    1.287   .     A
C175   C177    1.405   .     S
C175   O226    1.289   .     A
C176   C1545   1.188   1_554 S
C177   C860    1.188   .     S
C178   O228    1.383   .     S
C179   O218    1.388   .     S
C179   C2      1.395   1_655 S
C180   O219    1.384   .     S
C180   C26     1.386   1_655 S
Cu181  N215    2.016   .     S
Cu181  O224    1.928   .     S
Cu181  Cu182   2.683   .     S
Cu181  O217    1.974   .     S
Cu181  O222    1.975   .     S
Cu181  O226    1.930   .     S
Cu182  N216    2.016   .     S
Cu182  O223    1.975   .     S
Cu182  O227    1.930   .     S
Cu182  O221    1.974   .     S
Cu182  O225    1.928   .     S
H184   C239    1.108   1_655 S
H185   C391    1.111   .     S
H198   C1538   1.111   1_554 S
H199   C1538   1.110   1_554 S
H201   C19     1.116   1_655 S
H206   C629    1.111   1_545 S
H212   C10     1.110   1_655 S
H213   C10     1.110   1_655 S
C229   O299    1.296   .     A
C229   C232    1.464   .     S
C229   O293    1.295   .     A
C230   C232    1.413   .     A
C230   O296    1.386   .     S
C230   C407    1.395   1_455 S
C231   C240    1.452   .     S
C231   C255    1.411   .     A
C231   C256    1.408   .     A
C232   C254    1.413   .     A
C233   N292    1.367   .     A
C233   H259    1.081   .     S
C234   N291    1.368   .     A
C234   H270    1.081   .     S
C234   C463    1.416   .     S
C235   N292    1.366   .     A
C235   H281    1.079   .     S
C236   H285    1.081   .     S
C236   N291    1.368   .     A
C236   C461    1.416   .     S
C237   O304    1.419   .     S
C237   C238    1.536   .     S
C237   H286    1.108   .     S
C237   H287    1.116   .     S
C238   C239    1.524   .     S
C238   H440    1.110   1_455 S
C238   H441    1.110   1_455 S
C239   H290    1.111   .     S
C239   H184    1.108   1_455 S
C240   O297    1.291   .     A
C240   O298    1.293   .     A
C241   H263    1.111   .     S
C241   C242    1.540   .     S
C241   O294    1.423   .     S
C241   H262    1.111   .     S
C242   H265    1.111   .     S
C242   C1611   1.528   1_554 S
C242   H340    1.108   .     S
C243   H266    1.111   .     S
C243   H267    1.110   .     S
C243   H268    1.111   .     S
C243   C926    1.528   .     S
C244   H269    1.112   .     S
C244   H271    1.118   .     S
C244   O295    1.415   .     S
C244   C245    1.530   .     S
C245   H272    1.109   .     S
C245   H273    1.111   .     S
C245   C246    1.527   .     S
C246   H276    1.111   .     S
C246   H958    1.111   .     S
C246   H959    1.110   .     S
C247   C248    1.535   .     S
C247   H278    1.105   .     S
C247   O296    1.421   .     S
C247   H429    1.116   1_455 S
C248   H280    1.110   .     S
C248   H279    1.111   .     S
C248   C249    1.525   .     S
C249   H284    1.109   .     S
C249   H283    1.111   .     S
C249   H510    1.111   .     S
C250   O303    1.289   .     A
C250   O300    1.287   .     A
C250   C252    1.405   .     S
C251   O301    1.287   .     A
C251   C253    1.405   .     S
C251   O302    1.289   .     A
C252   C1621   1.188   1_554 S
C253   C936    1.188   .     S
C254   O304    1.383   .     S
C254   C408    1.386   1_455 S
C255   O294    1.388   .     S
C255   C306    1.395   .     S
C256   O295    1.384   .     S
C256   C330    1.386   .     S
Cu257  N291    2.016   .     S
Cu257  O300    1.928   .     S
Cu257  Cu258   2.683   .     S
Cu257  O293    1.974   .     S
Cu257  O298    1.975   .     S
Cu257  O302    1.930   .     S
Cu258  N292    2.016   .     S
Cu258  O299    1.975   .     S
Cu258  O303    1.930   .     S
Cu258  O297    1.974   .     S
Cu258  O301    1.928   .     S
H260   C543    1.108   .     S
H261   C467    1.111   .     S
H264   C394    1.108   1_455 S
H274   C1614   1.111   1_554 S
H275   C1614   1.110   1_554 S
H277   C323    1.116   .     S
H288   C314    1.110   .     S
H289   C314    1.110   .     S
C305   O375    1.296   .     A
C305   C308    1.464   .     S
C305   O369    1.295   .     A
C306   C308    1.413   .     A
C306   O372    1.386   .     S
C307   C316    1.452   .     S
C307   C331    1.411   .     A
C307   C332    1.408   .     A
C308   C330    1.413   .     A
C309   N368    1.367   .     A
C309   H335    1.081   .     S
C310   N367    1.368   .     A
C310   H346    1.081   .     S
C310   C539    1.416   .     S
C311   N368    1.366   .     A
C311   H357    1.079   .     S
C312   H361    1.081   .     S
C312   N367    1.368   .     A
C312   C537    1.416   .     S
C313   O380    1.419   .     S
C313   C314    1.536   .     S
C313   H362    1.108   .     S
C313   H363    1.116   .     S
C314   C315    1.524   .     S
C315   H366    1.111   .     S
C316   O373    1.291   .     A
C316   O374    1.293   .     A
C317   H339    1.111   .     S
C317   C318    1.540   .     S
C317   O370    1.423   .     S
C317   H338    1.111   .     S
C318   H341    1.111   .     S
C318   C1687   1.528   1_554 S
C318   H416    1.108   .     S
C319   H342    1.111   .     S
C319   H343    1.110   .     S
C319   H344    1.111   .     S
C319   C1002   1.528   .     S
C320   H345    1.112   .     S
C320   H347    1.118   .     S
C320   O371    1.415   .     S
C320   C321    1.530   .     S
C321   H348    1.109   .     S
C321   H349    1.111   .     S
C321   C322    1.527   .     S
C322   H352    1.111   .     S
C322   H1034   1.111   .     S
C322   H1035   1.110   .     S
C323   C324    1.535   .     S
C323   H354    1.105   .     S
C323   O372    1.421   .     S
C324   H356    1.110   .     S
C324   H355    1.111   .     S
C324   C325    1.525   .     S
C325   H360    1.109   .     S
C325   H359    1.111   .     S
C325   H586    1.111   .     S
C326   O379    1.289   .     A
C326   O376    1.287   .     A
C326   C328    1.405   .     S
C327   O377    1.287   .     A
C327   C329    1.405   .     S
C327   O378    1.289   .     A
C328   C1697   1.188   1_554 S
C329   C1012   1.188   .     S
C330   O380    1.383   .     S
C331   O370    1.388   .     S
C331   C382    1.395   .     S
C332   O371    1.384   .     S
C332   C406    1.386   .     S
Cu333  N367    2.016   .     S
Cu333  O376    1.928   .     S
Cu333  Cu334   2.683   .     S
Cu333  O369    1.974   .     S
Cu333  O374    1.975   .     S
Cu333  O378    1.930   .     S
Cu334  N368    2.016   .     S
Cu334  O375    1.975   .     S
Cu334  O379    1.930   .     S
Cu334  O373    1.974   .     S
Cu334  O377    1.928   .     S
H336   C619    1.108   .     S
H337   C543    1.111   .     S
H350   C1690   1.111   1_554 S
H351   C1690   1.110   1_554 S
H353   C399    1.116   .     S
H364   C390    1.110   .     S
H365   C390    1.110   .     S
C381   O451    1.296   .     A
C381   C384    1.464   .     S
C381   O445    1.295   .     A
C382   C384    1.413   .     A
C382   O448    1.386   .     S
C383   C392    1.452   .     S
C383   C407    1.411   .     A
C383   C408    1.408   .     A
C384   C406    1.413   .     A
C385   N444    1.367   .     A
C385   H411    1.081   .     S
C386   N443    1.368   .     A
C386   H422    1.081   .     S
C386   C615    1.416   .     S
C387   N444    1.366   .     A
C387   H433    1.079   .     S
C388   H437    1.081   .     S
C388   N443    1.368   .     A
C388   C613    1.416   .     S
C389   O456    1.419   .     S
C389   C390    1.536   .     S
C389   H438    1.108   .     S
C389   H439    1.116   .     S
C390   C391    1.524   .     S
C391   H442    1.111   .     S
C392   O449    1.291   .     A
C392   O450    1.293   .     A
C393   H415    1.111   .     S
C393   C394    1.540   .     S
C393   O446    1.423   .     S
C393   H414    1.111   .     S
C394   H417    1.111   .     S
C394   C1763   1.528   1_554 S
C394   H264    1.108   1_655 S
C395   H418    1.111   .     S
C395   H419    1.110   .     S
C395   H420    1.111   .     S
C395   C1078   1.528   .     S
C396   H421    1.112   .     S
C396   H423    1.118   .     S
C396   O447    1.415   .     S
C396   C397    1.530   .     S
C397   H424    1.109   .     S
C397   H425    1.111   .     S
C397   C398    1.527   .     S
C398   H428    1.111   .     S
C398   H1110   1.111   .     S
C398   H1111   1.110   .     S
C399   C400    1.535   .     S
C399   H430    1.105   .     S
C399   O448    1.421   .     S
C400   H432    1.110   .     S
C400   H431    1.111   .     S
C400   C401    1.525   .     S
C401   H436    1.109   .     S
C401   H435    1.111   .     S
C401   H662    1.111   .     S
C402   O455    1.289   .     A
C402   O452    1.287   .     A
C402   C404    1.405   .     S
C403   O453    1.287   .     A
C403   C405    1.405   .     S
C403   O454    1.289   .     A
C404   C1773   1.188   1_554 S
C405   C1088   1.188   .     S
C406   O456    1.383   .     S
C407   O446    1.388   .     S
C407   C230    1.395   1_655 S
C408   O447    1.384   .     S
C408   C254    1.386   1_655 S
Cu409  N443    2.016   .     S
Cu409  O452    1.928   .     S
Cu409  Cu410   2.683   .     S
Cu409  O445    1.974   .     S
Cu409  O450    1.975   .     S
Cu409  O454    1.930   .     S
Cu410  N444    2.016   .     S
Cu410  O451    1.975   .     S
Cu410  O455    1.930   .     S
Cu410  O449    1.974   .     S
Cu410  O453    1.928   .     S
H412   C467    1.108   1_655 S
H413   C619    1.111   .     S
H426   C1766   1.111   1_554 S
H427   C1766   1.110   1_554 S
H429   C247    1.116   1_655 S
H440   C238    1.110   1_655 S
H441   C238    1.110   1_655 S
C457   O527    1.296   .     A
C457   C460    1.464   .     S
C457   O521    1.295   .     A
C458   C460    1.413   .     A
C458   O524    1.386   .     S
C458   C635    1.395   1_455 S
C459   C468    1.452   .     S
C459   C483    1.411   .     A
C459   C484    1.408   .     A
C460   C482    1.413   .     A
C461   N520    1.367   .     A
C461   H487    1.081   .     S
C462   N519    1.368   .     A
C462   H498    1.081   .     S
C462   C7      1.416   1_565 S
C463   N520    1.366   .     A
C463   H509    1.079   .     S
C464   H513    1.081   .     S
C464   N519    1.368   .     A
C464   C5      1.416   1_565 S
C465   O532    1.419   .     S
C465   C466    1.536   .     S
C465   H514    1.108   .     S
C465   H515    1.116   .     S
C466   C467    1.524   .     S
C466   H668    1.110   1_455 S
C466   H669    1.110   1_455 S
C467   H518    1.111   .     S
C467   H412    1.108   1_455 S
C468   O525    1.291   .     A
C468   O526    1.293   .     A
C469   H491    1.111   .     S
C469   C470    1.540   .     S
C469   O522    1.423   .     S
C469   H490    1.111   .     S
C470   H493    1.111   .     S
C470   C1839   1.528   1_554 S
C470   H568    1.108   .     S
C471   H494    1.111   .     S
C471   H495    1.110   .     S
C471   H496    1.111   .     S
C471   C1154   1.528   .     S
C472   H497    1.112   .     S
C472   H499    1.118   .     S
C472   O523    1.415   .     S
C472   C473    1.530   .     S
C473   H500    1.109   .     S
C473   H501    1.111   .     S
C473   C474    1.527   .     S
C474   H504    1.111   .     S
C474   H1186   1.111   .     S
C474   H1187   1.110   .     S
C475   C476    1.535   .     S
C475   H506    1.105   .     S
C475   O524    1.421   .     S
C475   H657    1.116   1_455 S
C476   H508    1.110   .     S
C476   H507    1.111   .     S
C476   C477    1.525   .     S
C477   H512    1.109   .     S
C477   H511    1.111   .     S
C477   H54     1.111   1_565 S
C478   O531    1.289   .     A
C478   O528    1.287   .     A
C478   C480    1.405   .     S
C479   O529    1.287   .     A
C479   C481    1.405   .     S
C479   O530    1.289   .     A
C480   C1849   1.188   1_554 S
C481   C1164   1.188   .     S
C482   O532    1.383   .     S
C482   C636    1.386   1_455 S
C483   O522    1.388   .     S
C483   C534    1.395   .     S
C484   O523    1.384   .     S
C484   C558    1.386   .     S
Cu485  N519    2.016   .     S
Cu485  O528    1.928   .     S
Cu485  Cu486   2.683   .     S
Cu485  O521    1.974   .     S
Cu485  O526    1.975   .     S
Cu485  O530    1.930   .     S
Cu486  N520    2.016   .     S
Cu486  O527    1.975   .     S
Cu486  O531    1.930   .     S
Cu486  O525    1.974   .     S
Cu486  O529    1.928   .     S
H488   C87     1.108   1_565 S
H489   C11     1.111   1_565 S
H492   C622    1.108   1_455 S
H502   C1842   1.111   1_554 S
H503   C1842   1.110   1_554 S
H505   C551    1.116   .     S
H516   C542    1.110   .     S
H517   C542    1.110   .     S
C533   O603    1.296   .     A
C533   C536    1.464   .     S
C533   O597    1.295   .     A
C534   C536    1.413   .     A
C534   O600    1.386   .     S
C535   C544    1.452   .     S
C535   C559    1.411   .     A
C535   C560    1.408   .     A
C536   C558    1.413   .     A
C537   N596    1.367   .     A
C537   H563    1.081   .     S
C538   N595    1.368   .     A
C538   H574    1.081   .     S
C538   C83     1.416   1_565 S
C539   N596    1.366   .     A
C539   H585    1.079   .     S
C540   H589    1.081   .     S
C540   N595    1.368   .     A
C540   C81     1.416   1_565 S
C541   O608    1.419   .     S
C541   C542    1.536   .     S
C541   H590    1.108   .     S
C541   H591    1.116   .     S
C542   C543    1.524   .     S
C543   H594    1.111   .     S
C544   O601    1.291   .     A
C544   O602    1.293   .     A
C545   H567    1.111   .     S
C545   C546    1.540   .     S
C545   O598    1.423   .     S
C545   H566    1.111   .     S
C546   H569    1.111   .     S
C546   C1915   1.528   1_554 S
C546   H644    1.108   .     S
C547   H570    1.111   .     S
C547   H571    1.110   .     S
C547   H572    1.111   .     S
C547   C1230   1.528   .     S
C548   H573    1.112   .     S
C548   H575    1.118   .     S
C548   O599    1.415   .     S
C548   C549    1.530   .     S
C549   H576    1.109   .     S
C549   H577    1.111   .     S
C549   C550    1.527   .     S
C550   H580    1.111   .     S
C550   H1262   1.111   .     S
C550   H1263   1.110   .     S
C551   C552    1.535   .     S
C551   H582    1.105   .     S
C551   O600    1.421   .     S
C552   H584    1.110   .     S
C552   H583    1.111   .     S
C552   C553    1.525   .     S
C553   H588    1.109   .     S
C553   H587    1.111   .     S
C553   H130    1.111   1_565 S
C554   O607    1.289   .     A
C554   O604    1.287   .     A
C554   C556    1.405   .     S
C555   O605    1.287   .     A
C555   C557    1.405   .     S
C555   O606    1.289   .     A
C556   C1925   1.188   1_554 S
C557   C1240   1.188   .     S
C558   O608    1.383   .     S
C559   O598    1.388   .     S
C559   C610    1.395   .     S
C560   O599    1.384   .     S
C560   C634    1.386   .     S
Cu561  N595    2.016   .     S
Cu561  O604    1.928   .     S
Cu561  Cu562   2.683   .     S
Cu561  O597    1.974   .     S
Cu561  O602    1.975   .     S
Cu561  O606    1.930   .     S
Cu562  N596    2.016   .     S
Cu562  O603    1.975   .     S
Cu562  O607    1.930   .     S
Cu562  O601    1.974   .     S
Cu562  O605    1.928   .     S
H564   C163    1.108   1_565 S
H565   C87     1.111   1_565 S
H578   C1918   1.111   1_554 S
H579   C1918   1.110   1_554 S
H581   C627    1.116   .     S
H592   C618    1.110   .     S
H593   C618    1.110   .     S
C609   O679    1.296   .     A
C609   C612    1.464   .     S
C609   O673    1.295   .     A
C610   C612    1.413   .     A
C610   O676    1.386   .     S
C611   C620    1.452   .     S
C611   C635    1.411   .     A
C611   C636    1.408   .     A
C612   C634    1.413   .     A
C613   N672    1.367   .     A
C613   H639    1.081   .     S
C614   N671    1.368   .     A
C614   H650    1.081   .     S
C614   C159    1.416   1_565 S
C615   N672    1.366   .     A
C615   H661    1.079   .     S
C616   H665    1.081   .     S
C616   N671    1.368   .     A
C616   C157    1.416   1_565 S
C617   O684    1.419   .     S
C617   C618    1.536   .     S
C617   H666    1.108   .     S
C617   H667    1.116   .     S
C618   C619    1.524   .     S
C619   H670    1.111   .     S
C620   O677    1.291   .     A
C620   O678    1.293   .     A
C621   H643    1.111   .     S
C621   C622    1.540   .     S
C621   O674    1.423   .     S
C621   H642    1.111   .     S
C622   H645    1.111   .     S
C622   C1991   1.528   1_554 S
C622   H492    1.108   1_655 S
C623   H646    1.111   .     S
C623   H647    1.110   .     S
C623   H648    1.111   .     S
C623   C1306   1.528   .     S
C624   H649    1.112   .     S
C624   H651    1.118   .     S
C624   O675    1.415   .     S
C624   C625    1.530   .     S
C625   H652    1.109   .     S
C625   H653    1.111   .     S
C625   C626    1.527   .     S
C626   H656    1.111   .     S
C626   H1338   1.111   .     S
C626   H1339   1.110   .     S
C627   C628    1.535   .     S
C627   H658    1.105   .     S
C627   O676    1.421   .     S
C628   H660    1.110   .     S
C628   H659    1.111   .     S
C628   C629    1.525   .     S
C629   H664    1.109   .     S
C629   H663    1.111   .     S
C629   H206    1.111   1_565 S
C630   O683    1.289   .     A
C630   O680    1.287   .     A
C630   C632    1.405   .     S
C631   O681    1.287   .     A
C631   C633    1.405   .     S
C631   O682    1.289   .     A
C632   C2001   1.188   1_554 S
C633   C1316   1.188   .     S
C634   O684    1.383   .     S
C635   O674    1.388   .     S
C635   C458    1.395   1_655 S
C636   O675    1.384   .     S
C636   C482    1.386   1_655 S
Cu637  N671    2.016   .     S
Cu637  O680    1.928   .     S
Cu637  Cu638   2.683   .     S
Cu637  O673    1.974   .     S
Cu637  O678    1.975   .     S
Cu637  O682    1.930   .     S
Cu638  N672    2.016   .     S
Cu638  O679    1.975   .     S
Cu638  O683    1.930   .     S
Cu638  O677    1.974   .     S
Cu638  O681    1.928   .     S
H640   C11     1.108   1_665 S
H641   C163    1.111   1_565 S
H654   C1994   1.111   1_554 S
H655   C1994   1.110   1_554 S
H657   C475    1.116   1_655 S
H668   C466    1.110   1_655 S
H669   C466    1.110   1_655 S
C685   O755    1.296   .     A
C685   C688    1.464   .     S
C685   O749    1.295   .     A
C686   C688    1.413   .     A
C686   O752    1.386   .     S
C686   C863    1.395   1_455 S
C687   C696    1.452   .     S
C687   C711    1.411   .     A
C687   C712    1.408   .     A
C688   C710    1.413   .     A
C689   N748    1.367   .     A
C689   H715    1.081   .     S
C689   C1148   1.416   1_545 S
C690   N747    1.368   .     A
C690   H726    1.081   .     S
C690   C919    1.416   .     S
C691   N748    1.366   .     A
C691   H737    1.079   .     S
C691   C1146   1.416   1_545 S
C692   H741    1.081   .     S
C692   N747    1.368   .     A
C692   C917    1.416   .     S
C693   O760    1.419   .     S
C693   C694    1.536   .     S
C693   H742    1.108   .     S
C693   H743    1.116   .     S
C694   C695    1.524   .     S
C694   H896    1.110   1_455 S
C694   H897    1.110   1_455 S
C695   H746    1.111   .     S
C695   H1324   1.108   1_445 S
C695   H1173   1.111   1_545 S
C696   O753    1.291   .     A
C696   O754    1.293   .     A
C697   H719    1.111   .     S
C697   C698    1.540   .     S
C697   O750    1.423   .     S
C697   H718    1.111   .     S
C698   H721    1.111   .     S
C698   H796    1.108   .     S
C699   H722    1.111   .     S
C699   H723    1.110   .     S
C699   H724    1.111   .     S
C699   C1382   1.528   .     S
C700   H725    1.112   .     S
C700   H727    1.118   .     S
C700   O751    1.415   .     S
C700   C701    1.530   .     S
C701   H728    1.109   .     S
C701   H729    1.111   .     S
C701   C702    1.527   .     S
C702   H732    1.111   .     S
C702   H1414   1.111   .     S
C702   H1415   1.110   .     S
C703   C704    1.535   .     S
C703   H734    1.105   .     S
C703   O752    1.421   .     S
C703   H885    1.116   1_455 S
C704   H736    1.110   .     S
C704   H735    1.111   .     S
C704   C705    1.525   .     S
C705   H740    1.109   .     S
C705   H739    1.111   .     S
C705   H966    1.111   .     S
C706   O759    1.289   .     A
C706   O756    1.287   .     A
C706   C708    1.405   .     S
C707   O757    1.287   .     A
C707   C709    1.405   .     S
C707   O758    1.289   .     A
C709   C1392   1.188   .     S
C710   O760    1.383   .     S
C710   C864    1.386   1_455 S
C711   O750    1.388   .     S
C711   C762    1.395   .     S
C712   O751    1.384   .     S
C712   C786    1.386   .     S
Cu713  N747    2.016   .     S
Cu713  O756    1.928   .     S
Cu713  Cu714   2.683   .     S
Cu713  O749    1.974   .     S
Cu713  O754    1.975   .     S
Cu713  O758    1.930   .     S
Cu714  N748    2.016   .     S
Cu714  O755    1.975   .     S
Cu714  O759    1.930   .     S
Cu714  O753    1.974   .     S
Cu714  O757    1.928   .     S
H716   C999    1.108   .     S
H717   C923    1.111   .     S
H720   C850    1.108   1_455 S
H733   C779    1.116   .     S
H738   C1161   1.111   1_545 S
H744   C770    1.110   .     S
H745   C770    1.110   .     S
C761   O831    1.296   .     A
C761   C764    1.464   .     S
C761   O825    1.295   .     A
C762   C764    1.413   .     A
C762   O828    1.386   .     S
C763   C772    1.452   .     S
C763   C787    1.411   .     A
C763   C788    1.408   .     A
C764   C786    1.413   .     A
C765   N824    1.367   .     A
C765   H791    1.081   .     S
C765   C1224   1.416   1_545 S
C766   N823    1.368   .     A
C766   H802    1.081   .     S
C766   C995    1.416   .     S
C767   N824    1.366   .     A
C767   H813    1.079   .     S
C767   C1222   1.416   1_545 S
C768   H817    1.081   .     S
C768   N823    1.368   .     A
C768   C993    1.416   .     S
C769   O836    1.419   .     S
C769   C770    1.536   .     S
C769   H818    1.108   .     S
C769   H819    1.116   .     S
C770   C771    1.524   .     S
C771   H822    1.111   .     S
C771   H1172   1.108   1_545 S
C771   H1249   1.111   1_545 S
C772   O829    1.291   .     A
C772   O830    1.293   .     A
C773   H795    1.111   .     S
C773   C774    1.540   .     S
C773   O826    1.423   .     S
C773   H794    1.111   .     S
C774   H797    1.111   .     S
C774   H872    1.108   .     S
C775   H798    1.111   .     S
C775   H799    1.110   .     S
C775   H800    1.111   .     S
C775   C1458   1.528   .     S
C776   H801    1.112   .     S
C776   H803    1.118   .     S
C776   O827    1.415   .     S
C776   C777    1.530   .     S
C777   H804    1.109   .     S
C777   H805    1.111   .     S
C777   C778    1.527   .     S
C778   H808    1.111   .     S
C778   H1490   1.111   .     S
C778   H1491   1.110   .     S
C779   C780    1.535   .     S
C779   H810    1.105   .     S
C779   O828    1.421   .     S
C780   H812    1.110   .     S
C780   H811    1.111   .     S
C780   C781    1.525   .     S
C781   H816    1.109   .     S
C781   H815    1.111   .     S
C781   H1042   1.111   .     S
C782   O835    1.289   .     A
C782   O832    1.287   .     A
C782   C784    1.405   .     S
C783   O833    1.287   .     A
C783   C785    1.405   .     S
C783   O834    1.289   .     A
C785   C1468   1.188   .     S
C786   O836    1.383   .     S
C787   O826    1.388   .     S
C787   C838    1.395   .     S
C788   O827    1.384   .     S
C788   C862    1.386   .     S
Cu789  N823    2.016   .     S
Cu789  O832    1.928   .     S
Cu789  Cu790   2.683   .     S
Cu789  O825    1.974   .     S
Cu789  O830    1.975   .     S
Cu789  O834    1.930   .     S
Cu790  N824    2.016   .     S
Cu790  O831    1.975   .     S
Cu790  O835    1.930   .     S
Cu790  O829    1.974   .     S
Cu790  O833    1.928   .     S
H792   C1075   1.108   .     S
H793   C999    1.111   .     S
H809   C855    1.116   .     S
H814   C1237   1.111   1_545 S
H820   C846    1.110   .     S
H821   C846    1.110   .     S
C837   O907    1.296   .     A
C837   C840    1.464   .     S
C837   O901    1.295   .     A
C838   C840    1.413   .     A
C838   O904    1.386   .     S
C839   C848    1.452   .     S
C839   C863    1.411   .     A
C839   C864    1.408   .     A
C840   C862    1.413   .     A
C841   N900    1.367   .     A
C841   H867    1.081   .     S
C841   C1300   1.416   1_545 S
C842   N899    1.368   .     A
C842   H878    1.081   .     S
C842   C1071   1.416   .     S
C843   N900    1.366   .     A
C843   H889    1.079   .     S
C843   C1298   1.416   1_545 S
C844   H893    1.081   .     S
C844   N899    1.368   .     A
C844   C1069   1.416   .     S
C845   O912    1.419   .     S
C845   C846    1.536   .     S
C845   H894    1.108   .     S
C845   H895    1.116   .     S
C846   C847    1.524   .     S
C847   H898    1.111   .     S
C847   H1248   1.108   1_545 S
C847   H1325   1.111   1_545 S
C848   O905    1.291   .     A
C848   O906    1.293   .     A
C849   H871    1.111   .     S
C849   C850    1.540   .     S
C849   O902    1.423   .     S
C849   H870    1.111   .     S
C850   H873    1.111   .     S
C850   H720    1.108   1_655 S
C851   H874    1.111   .     S
C851   H875    1.110   .     S
C851   H876    1.111   .     S
C851   C1534   1.528   .     S
C852   H877    1.112   .     S
C852   H879    1.118   .     S
C852   O903    1.415   .     S
C852   C853    1.530   .     S
C853   H880    1.109   .     S
C853   H881    1.111   .     S
C853   C854    1.527   .     S
C854   H884    1.111   .     S
C854   H1566   1.111   .     S
C854   H1567   1.110   .     S
C855   C856    1.535   .     S
C855   H886    1.105   .     S
C855   O904    1.421   .     S
C856   H888    1.110   .     S
C856   H887    1.111   .     S
C856   C857    1.525   .     S
C857   H892    1.109   .     S
C857   H891    1.111   .     S
C857   H1118   1.111   .     S
C858   O911    1.289   .     A
C858   O908    1.287   .     A
C858   C860    1.405   .     S
C859   O909    1.287   .     A
C859   C861    1.405   .     S
C859   O910    1.289   .     A
C861   C1544   1.188   .     S
C862   O912    1.383   .     S
C863   O902    1.388   .     S
C863   C686    1.395   1_655 S
C864   O903    1.384   .     S
C864   C710    1.386   1_655 S
Cu865  N899    2.016   .     S
Cu865  O908    1.928   .     S
Cu865  Cu866   2.683   .     S
Cu865  O901    1.974   .     S
Cu865  O906    1.975   .     S
Cu865  O910    1.930   .     S
Cu866  N900    2.016   .     S
Cu866  O907    1.975   .     S
Cu866  O911    1.930   .     S
Cu866  O905    1.974   .     S
Cu866  O909    1.928   .     S
H868   C923    1.108   1_655 S
H869   C1075   1.111   .     S
H885   C703    1.116   1_655 S
H890   C1313   1.111   1_545 S
H896   C694    1.110   1_655 S
H897   C694    1.110   1_655 S
C913   O983    1.296   .     A
C913   C916    1.464   .     S
C913   O977    1.295   .     A
C914   C916    1.413   .     A
C914   O980    1.386   .     S
C914   C1091   1.395   1_455 S
C915   C924    1.452   .     S
C915   C939    1.411   .     A
C915   C940    1.408   .     A
C916   C938    1.413   .     A
C917   N976    1.367   .     A
C917   H943    1.081   .     S
C918   N975    1.368   .     A
C918   H954    1.081   .     S
C918   C1147   1.416   .     S
C919   N976    1.366   .     A
C919   H965    1.079   .     S
C920   H969    1.081   .     S
C920   N975    1.368   .     A
C920   C1145   1.416   .     S
C921   O988    1.419   .     S
C921   C922    1.536   .     S
C921   H970    1.108   .     S
C921   H971    1.116   .     S
C922   C923    1.524   .     S
C922   H1124   1.110   1_455 S
C922   H1125   1.110   1_455 S
C923   H974    1.111   .     S
C923   H868    1.108   1_455 S
C924   O981    1.291   .     A
C924   O982    1.293   .     A
C925   H947    1.111   .     S
C925   C926    1.540   .     S
C925   O978    1.423   .     S
C925   H946    1.111   .     S
C926   H949    1.111   .     S
C926   H1024   1.108   .     S
C927   H950    1.111   .     S
C927   H951    1.110   .     S
C927   H952    1.111   .     S
C927   C1610   1.528   .     S
C928   H953    1.112   .     S
C928   H955    1.118   .     S
C928   O979    1.415   .     S
C928   C929    1.530   .     S
C929   H956    1.109   .     S
C929   H957    1.111   .     S
C929   C930    1.527   .     S
C930   H960    1.111   .     S
C930   H1642   1.111   .     S
C930   H1643   1.110   .     S
C931   C932    1.535   .     S
C931   H962    1.105   .     S
C931   O980    1.421   .     S
C931   H1113   1.116   1_455 S
C932   H964    1.110   .     S
C932   H963    1.111   .     S
C932   C933    1.525   .     S
C933   H968    1.109   .     S
C933   H967    1.111   .     S
C933   H1194   1.111   .     S
C934   O987    1.289   .     A
C934   O984    1.287   .     A
C934   C936    1.405   .     S
C935   O985    1.287   .     A
C935   C937    1.405   .     S
C935   O986    1.289   .     A
C937   C1620   1.188   .     S
C938   O988    1.383   .     S
C938   C1092   1.386   1_455 S
C939   O978    1.388   .     S
C939   C990    1.395   .     S
C940   O979    1.384   .     S
C940   C1014   1.386   .     S
Cu941  N975    2.016   .     S
Cu941  O984    1.928   .     S
Cu941  Cu942   2.683   .     S
Cu941  O977    1.974   .     S
Cu941  O982    1.975   .     S
Cu941  O986    1.930   .     S
Cu942  N976    2.016   .     S
Cu942  O983    1.975   .     S
Cu942  O987    1.930   .     S
Cu942  O981    1.974   .     S
Cu942  O985    1.928   .     S
H944   C1227   1.108   .     S
H945   C1151   1.111   .     S
H948   C1078   1.108   1_455 S
H961   C1007   1.116   .     S
H972   C998    1.110   .     S
H973   C998    1.110   .     S
C989   O1059   1.296   .     A
C989   C992    1.464   .     S
C989   O1053   1.295   .     A
C990   C992    1.413   .     A
C990   O1056   1.386   .     S
C991   C1000   1.452   .     S
C991   C1015   1.411   .     A
C991   C1016   1.408   .     A
C992   C1014   1.413   .     A
C993   N1052   1.367   .     A
C993   H1019   1.081   .     S
C994   N1051   1.368   .     A
C994   H1030   1.081   .     S
C994   C1223   1.416   .     S
C995   N1052   1.366   .     A
C995   H1041   1.079   .     S
C996   H1045   1.081   .     S
C996   N1051   1.368   .     A
C996   C1221   1.416   .     S
C997   O1064   1.419   .     S
C997   C998    1.536   .     S
C997   H1046   1.108   .     S
C997   H1047   1.116   .     S
C998   C999    1.524   .     S
C999   H1050   1.111   .     S
C1000  O1057   1.291   .     A
C1000  O1058   1.293   .     A
C1001  H1023   1.111   .     S
C1001  C1002   1.540   .     S
C1001  O1054   1.423   .     S
C1001  H1022   1.111   .     S
C1002  H1025   1.111   .     S
C1002  H1100   1.108   .     S
C1003  H1026   1.111   .     S
C1003  H1027   1.110   .     S
C1003  H1028   1.111   .     S
C1003  C1686   1.528   .     S
C1004  H1029   1.112   .     S
C1004  H1031   1.118   .     S
C1004  O1055   1.415   .     S
C1004  C1005   1.530   .     S
C1005  H1032   1.109   .     S
C1005  H1033   1.111   .     S
C1005  C1006   1.527   .     S
C1006  H1036   1.111   .     S
C1006  H1718   1.111   .     S
C1006  H1719   1.110   .     S
C1007  C1008   1.535   .     S
C1007  H1038   1.105   .     S
C1007  O1056   1.421   .     S
C1008  H1040   1.110   .     S
C1008  H1039   1.111   .     S
C1008  C1009   1.525   .     S
C1009  H1044   1.109   .     S
C1009  H1043   1.111   .     S
C1009  H1270   1.111   .     S
C1010  O1063   1.289   .     A
C1010  O1060   1.287   .     A
C1010  C1012   1.405   .     S
C1011  O1061   1.287   .     A
C1011  C1013   1.405   .     S
C1011  O1062   1.289   .     A
C1013  C1696   1.188   .     S
C1014  O1064   1.383   .     S
C1015  O1054   1.388   .     S
C1015  C1066   1.395   .     S
C1016  O1055   1.384   .     S
C1016  C1090   1.386   .     S
Cu1017 N1051   2.016   .     S
Cu1017 O1060   1.928   .     S
Cu1017 Cu1018  2.683   .     S
Cu1017 O1053   1.974   .     S
Cu1017 O1058   1.975   .     S
Cu1017 O1062   1.930   .     S
Cu1018 N1052   2.016   .     S
Cu1018 O1059   1.975   .     S
Cu1018 O1063   1.930   .     S
Cu1018 O1057   1.974   .     S
Cu1018 O1061   1.928   .     S
H1020  C1303   1.108   .     S
H1021  C1227   1.111   .     S
H1037  C1083   1.116   .     S
H1048  C1074   1.110   .     S
H1049  C1074   1.110   .     S
C1065  O1135   1.296   .     A
C1065  C1068   1.464   .     S
C1065  O1129   1.295   .     A
C1066  C1068   1.413   .     A
C1066  O1132   1.386   .     S
C1067  C1076   1.452   .     S
C1067  C1091   1.411   .     A
C1067  C1092   1.408   .     A
C1068  C1090   1.413   .     A
C1069  N1128   1.367   .     A
C1069  H1095   1.081   .     S
C1070  N1127   1.368   .     A
C1070  H1106   1.081   .     S
C1070  C1299   1.416   .     S
C1071  N1128   1.366   .     A
C1071  H1117   1.079   .     S
C1072  H1121   1.081   .     S
C1072  N1127   1.368   .     A
C1072  C1297   1.416   .     S
C1073  O1140   1.419   .     S
C1073  C1074   1.536   .     S
C1073  H1122   1.108   .     S
C1073  H1123   1.116   .     S
C1074  C1075   1.524   .     S
C1075  H1126   1.111   .     S
C1076  O1133   1.291   .     A
C1076  O1134   1.293   .     A
C1077  H1099   1.111   .     S
C1077  C1078   1.540   .     S
C1077  O1130   1.423   .     S
C1077  H1098   1.111   .     S
C1078  H1101   1.111   .     S
C1078  H948    1.108   1_655 S
C1079  H1102   1.111   .     S
C1079  H1103   1.110   .     S
C1079  H1104   1.111   .     S
C1079  C1762   1.528   .     S
C1080  H1105   1.112   .     S
C1080  H1107   1.118   .     S
C1080  O1131   1.415   .     S
C1080  C1081   1.530   .     S
C1081  H1108   1.109   .     S
C1081  H1109   1.111   .     S
C1081  C1082   1.527   .     S
C1082  H1112   1.111   .     S
C1082  H1794   1.111   .     S
C1082  H1795   1.110   .     S
C1083  C1084   1.535   .     S
C1083  H1114   1.105   .     S
C1083  O1132   1.421   .     S
C1084  H1116   1.110   .     S
C1084  H1115   1.111   .     S
C1084  C1085   1.525   .     S
C1085  H1120   1.109   .     S
C1085  H1119   1.111   .     S
C1085  H1346   1.111   .     S
C1086  O1139   1.289   .     A
C1086  O1136   1.287   .     A
C1086  C1088   1.405   .     S
C1087  O1137   1.287   .     A
C1087  C1089   1.405   .     S
C1087  O1138   1.289   .     A
C1089  C1772   1.188   .     S
C1090  O1140   1.383   .     S
C1091  O1130   1.388   .     S
C1091  C914    1.395   1_655 S
C1092  O1131   1.384   .     S
C1092  C938    1.386   1_655 S
Cu1093 N1127   2.016   .     S
Cu1093 O1136   1.928   .     S
Cu1093 Cu1094  2.683   .     S
Cu1093 O1129   1.974   .     S
Cu1093 O1134   1.975   .     S
Cu1093 O1138   1.930   .     S
Cu1094 N1128   2.016   .     S
Cu1094 O1135   1.975   .     S
Cu1094 O1139   1.930   .     S
Cu1094 O1133   1.974   .     S
Cu1094 O1137   1.928   .     S
H1096  C1151   1.108   1_655 S
H1097  C1303   1.111   .     S
H1113  C931    1.116   1_655 S
H1124  C922    1.110   1_655 S
H1125  C922    1.110   1_655 S
C1141  O1211   1.296   .     A
C1141  C1144   1.464   .     S
C1141  O1205   1.295   .     A
C1142  C1144   1.413   .     A
C1142  O1208   1.386   .     S
C1142  C1319   1.395   1_455 S
C1143  C1152   1.452   .     S
C1143  C1167   1.411   .     A
C1143  C1168   1.408   .     A
C1144  C1166   1.413   .     A
C1145  N1204   1.367   .     A
C1145  H1171   1.081   .     S
C1146  N1203   1.368   .     A
C1146  H1182   1.081   .     S
C1146  C691    1.416   1_565 S
C1147  N1204   1.366   .     A
C1147  H1193   1.079   .     S
C1148  H1197   1.081   .     S
C1148  N1203   1.368   .     A
C1148  C689    1.416   1_565 S
C1149  O1216   1.419   .     S
C1149  C1150   1.536   .     S
C1149  H1198   1.108   .     S
C1149  H1199   1.116   .     S
C1150  C1151   1.524   .     S
C1150  H1352   1.110   1_455 S
C1150  H1353   1.110   1_455 S
C1151  H1202   1.111   .     S
C1151  H1096   1.108   1_455 S
C1152  O1209   1.291   .     A
C1152  O1210   1.293   .     A
C1153  H1175   1.111   .     S
C1153  C1154   1.540   .     S
C1153  O1206   1.423   .     S
C1153  H1174   1.111   .     S
C1154  H1177   1.111   .     S
C1154  H1252   1.108   .     S
C1155  H1178   1.111   .     S
C1155  H1179   1.110   .     S
C1155  H1180   1.111   .     S
C1155  C1838   1.528   .     S
C1156  H1181   1.112   .     S
C1156  H1183   1.118   .     S
C1156  O1207   1.415   .     S
C1156  C1157   1.530   .     S
C1157  H1184   1.109   .     S
C1157  H1185   1.111   .     S
C1157  C1158   1.527   .     S
C1158  H1188   1.111   .     S
C1158  H1870   1.111   .     S
C1158  H1871   1.110   .     S
C1159  C1160   1.535   .     S
C1159  H1190   1.105   .     S
C1159  O1208   1.421   .     S
C1159  H1341   1.116   1_455 S
C1160  H1192   1.110   .     S
C1160  H1191   1.111   .     S
C1160  C1161   1.525   .     S
C1161  H1196   1.109   .     S
C1161  H1195   1.111   .     S
C1161  H738    1.111   1_565 S
C1162  O1215   1.289   .     A
C1162  O1212   1.287   .     A
C1162  C1164   1.405   .     S
C1163  O1213   1.287   .     A
C1163  C1165   1.405   .     S
C1163  O1214   1.289   .     A
C1165  C1848   1.188   .     S
C1166  O1216   1.383   .     S
C1166  C1320   1.386   1_455 S
C1167  O1206   1.388   .     S
C1167  C1218   1.395   .     S
C1168  O1207   1.384   .     S
C1168  C1242   1.386   .     S
Cu1169 N1203   2.016   .     S
Cu1169 O1212   1.928   .     S
Cu1169 Cu1170  2.683   .     S
Cu1169 O1205   1.974   .     S
Cu1169 O1210   1.975   .     S
Cu1169 O1214   1.930   .     S
Cu1170 N1204   2.016   .     S
Cu1170 O1211   1.975   .     S
Cu1170 O1215   1.930   .     S
Cu1170 O1209   1.974   .     S
Cu1170 O1213   1.928   .     S
H1172  C771    1.108   1_565 S
H1173  C695    1.111   1_565 S
H1176  C1306   1.108   1_455 S
H1189  C1235   1.116   .     S
H1200  C1226   1.110   .     S
H1201  C1226   1.110   .     S
C1217  O1287   1.296   .     A
C1217  C1220   1.464   .     S
C1217  O1281   1.295   .     A
C1218  C1220   1.413   .     A
C1218  O1284   1.386   .     S
C1219  C1228   1.452   .     S
C1219  C1243   1.411   .     A
C1219  C1244   1.408   .     A
C1220  C1242   1.413   .     A
C1221  N1280   1.367   .     A
C1221  H1247   1.081   .     S
C1222  N1279   1.368   .     A
C1222  H1258   1.081   .     S
C1222  C767    1.416   1_565 S
C1223  N1280   1.366   .     A
C1223  H1269   1.079   .     S
C1224  H1273   1.081   .     S
C1224  N1279   1.368   .     A
C1224  C765    1.416   1_565 S
C1225  O1292   1.419   .     S
C1225  C1226   1.536   .     S
C1225  H1274   1.108   .     S
C1225  H1275   1.116   .     S
C1226  C1227   1.524   .     S
C1227  H1278   1.111   .     S
C1228  O1285   1.291   .     A
C1228  O1286   1.293   .     A
C1229  H1251   1.111   .     S
C1229  C1230   1.540   .     S
C1229  O1282   1.423   .     S
C1229  H1250   1.111   .     S
C1230  H1253   1.111   .     S
C1230  H1328   1.108   .     S
C1231  H1254   1.111   .     S
C1231  H1255   1.110   .     S
C1231  H1256   1.111   .     S
C1231  C1914   1.528   .     S
C1232  H1257   1.112   .     S
C1232  H1259   1.118   .     S
C1232  O1283   1.415   .     S
C1232  C1233   1.530   .     S
C1233  H1260   1.109   .     S
C1233  H1261   1.111   .     S
C1233  C1234   1.527   .     S
C1234  H1264   1.111   .     S
C1234  H1946   1.111   .     S
C1234  H1947   1.110   .     S
C1235  C1236   1.535   .     S
C1235  H1266   1.105   .     S
C1235  O1284   1.421   .     S
C1236  H1268   1.110   .     S
C1236  H1267   1.111   .     S
C1236  C1237   1.525   .     S
C1237  H1272   1.109   .     S
C1237  H1271   1.111   .     S
C1237  H814    1.111   1_565 S
C1238  O1291   1.289   .     A
C1238  O1288   1.287   .     A
C1238  C1240   1.405   .     S
C1239  O1289   1.287   .     A
C1239  C1241   1.405   .     S
C1239  O1290   1.289   .     A
C1241  C1924   1.188   .     S
C1242  O1292   1.383   .     S
C1243  O1282   1.388   .     S
C1243  C1294   1.395   .     S
C1244  O1283   1.384   .     S
C1244  C1318   1.386   .     S
Cu1245 N1279   2.016   .     S
Cu1245 O1288   1.928   .     S
Cu1245 Cu1246  2.683   .     S
Cu1245 O1281   1.974   .     S
Cu1245 O1286   1.975   .     S
Cu1245 O1290   1.930   .     S
Cu1246 N1280   2.016   .     S
Cu1246 O1287   1.975   .     S
Cu1246 O1291   1.930   .     S
Cu1246 O1285   1.974   .     S
Cu1246 O1289   1.928   .     S
H1248  C847    1.108   1_565 S
H1249  C771    1.111   1_565 S
H1265  C1311   1.116   .     S
H1276  C1302   1.110   .     S
H1277  C1302   1.110   .     S
C1293  O1363   1.296   .     A
C1293  C1296   1.464   .     S
C1293  O1357   1.295   .     A
C1294  C1296   1.413   .     A
C1294  O1360   1.386   .     S
C1295  C1304   1.452   .     S
C1295  C1319   1.411   .     A
C1295  C1320   1.408   .     A
C1296  C1318   1.413   .     A
C1297  N1356   1.367   .     A
C1297  H1323   1.081   .     S
C1298  N1355   1.368   .     A
C1298  H1334   1.081   .     S
C1298  C843    1.416   1_565 S
C1299  N1356   1.366   .     A
C1299  H1345   1.079   .     S
C1300  H1349   1.081   .     S
C1300  N1355   1.368   .     A
C1300  C841    1.416   1_565 S
C1301  O1368   1.419   .     S
C1301  C1302   1.536   .     S
C1301  H1350   1.108   .     S
C1301  H1351   1.116   .     S
C1302  C1303   1.524   .     S
C1303  H1354   1.111   .     S
C1304  O1361   1.291   .     A
C1304  O1362   1.293   .     A
C1305  H1327   1.111   .     S
C1305  C1306   1.540   .     S
C1305  O1358   1.423   .     S
C1305  H1326   1.111   .     S
C1306  H1329   1.111   .     S
C1306  H1176   1.108   1_655 S
C1307  H1330   1.111   .     S
C1307  H1331   1.110   .     S
C1307  H1332   1.111   .     S
C1307  C1990   1.528   .     S
C1308  H1333   1.112   .     S
C1308  H1335   1.118   .     S
C1308  O1359   1.415   .     S
C1308  C1309   1.530   .     S
C1309  H1336   1.109   .     S
C1309  H1337   1.111   .     S
C1309  C1310   1.527   .     S
C1310  H1340   1.111   .     S
C1310  H2022   1.111   .     S
C1310  H2023   1.110   .     S
C1311  C1312   1.535   .     S
C1311  H1342   1.105   .     S
C1311  O1360   1.421   .     S
C1312  H1344   1.110   .     S
C1312  H1343   1.111   .     S
C1312  C1313   1.525   .     S
C1313  H1348   1.109   .     S
C1313  H1347   1.111   .     S
C1313  H890    1.111   1_565 S
C1314  O1367   1.289   .     A
C1314  O1364   1.287   .     A
C1314  C1316   1.405   .     S
C1315  O1365   1.287   .     A
C1315  C1317   1.405   .     S
C1315  O1366   1.289   .     A
C1317  C2000   1.188   .     S
C1318  O1368   1.383   .     S
C1319  O1358   1.388   .     S
C1319  C1142   1.395   1_655 S
C1320  O1359   1.384   .     S
C1320  C1166   1.386   1_655 S
Cu1321 N1355   2.016   .     S
Cu1321 O1364   1.928   .     S
Cu1321 Cu1322  2.683   .     S
Cu1321 O1357   1.974   .     S
Cu1321 O1362   1.975   .     S
Cu1321 O1366   1.930   .     S
Cu1322 N1356   2.016   .     S
Cu1322 O1363   1.975   .     S
Cu1322 O1367   1.930   .     S
Cu1322 O1361   1.974   .     S
Cu1322 O1365   1.928   .     S
H1324  C695    1.108   1_665 S
H1325  C847    1.111   1_565 S
H1341  C1159   1.116   1_655 S
H1352  C1150   1.110   1_655 S
H1353  C1150   1.110   1_655 S
C1369  O1439   1.296   .     A
C1369  C1372   1.464   .     S
C1369  O1433   1.295   .     A
C1370  C1372   1.413   .     A
C1370  O1436   1.386   .     S
C1370  C1547   1.395   1_455 S
C1371  C1380   1.452   .     S
C1371  C1395   1.411   .     A
C1371  C1396   1.408   .     A
C1372  C1394   1.413   .     A
C1373  N1432   1.367   .     A
C1373  H1399   1.081   .     S
C1373  C1832   1.416   1_545 S
C1374  N1431   1.368   .     A
C1374  H1410   1.081   .     S
C1374  C1603   1.416   .     S
C1375  N1432   1.366   .     A
C1375  H1421   1.079   .     S
C1375  C1830   1.416   1_545 S
C1376  H1425   1.081   .     S
C1376  N1431   1.368   .     A
C1376  C1601   1.416   .     S
C1377  O1444   1.419   .     S
C1377  C1378   1.536   .     S
C1377  H1426   1.108   .     S
C1377  H1427   1.116   .     S
C1378  C1379   1.524   .     S
C1378  H1580   1.110   1_455 S
C1378  H1581   1.110   1_455 S
C1379  H1430   1.111   .     S
C1379  H2008   1.108   1_445 S
C1379  H1857   1.111   1_545 S
C1380  O1437   1.291   .     A
C1380  O1438   1.293   .     A
C1381  H1403   1.111   .     S
C1381  C1382   1.540   .     S
C1381  O1434   1.423   .     S
C1381  H1402   1.111   .     S
C1382  H1405   1.111   .     S
C1382  H1480   1.108   .     S
C1383  H1406   1.111   .     S
C1383  H1407   1.110   .     S
C1383  H1408   1.111   .     S
C1383  C14     1.528   1_556 S
C1384  H1409   1.112   .     S
C1384  H1411   1.118   .     S
C1384  O1435   1.415   .     S
C1384  C1385   1.530   .     S
C1385  H1412   1.109   .     S
C1385  H1413   1.111   .     S
C1385  C1386   1.527   .     S
C1386  H1416   1.111   .     S
C1386  H46     1.111   1_556 S
C1386  H47     1.110   1_556 S
C1387  C1388   1.535   .     S
C1387  H1418   1.105   .     S
C1387  O1436   1.421   .     S
C1387  H1569   1.116   1_455 S
C1388  H1420   1.110   .     S
C1388  H1419   1.111   .     S
C1388  C1389   1.525   .     S
C1389  H1424   1.109   .     S
C1389  H1423   1.111   .     S
C1389  H1650   1.111   .     S
C1390  O1443   1.289   .     A
C1390  O1440   1.287   .     A
C1390  C1392   1.405   .     S
C1391  O1441   1.287   .     A
C1391  C1393   1.405   .     S
C1391  O1442   1.289   .     A
C1393  C24     1.188   1_556 S
C1394  O1444   1.383   .     S
C1394  C1548   1.386   1_455 S
C1395  O1434   1.388   .     S
C1395  C1446   1.395   .     S
C1396  O1435   1.384   .     S
C1396  C1470   1.386   .     S
Cu1397 N1431   2.016   .     S
Cu1397 O1440   1.928   .     S
Cu1397 Cu1398  2.683   .     S
Cu1397 O1433   1.974   .     S
Cu1397 O1438   1.975   .     S
Cu1397 O1442   1.930   .     S
Cu1398 N1432   2.016   .     S
Cu1398 O1439   1.975   .     S
Cu1398 O1443   1.930   .     S
Cu1398 O1437   1.974   .     S
Cu1398 O1441   1.928   .     S
H1400  C1683   1.108   .     S
H1401  C1607   1.111   .     S
H1404  C1534   1.108   1_455 S
H1417  C1463   1.116   .     S
H1422  C1845   1.111   1_545 S
H1428  C1454   1.110   .     S
H1429  C1454   1.110   .     S
C1445  O1515   1.296   .     A
C1445  C1448   1.464   .     S
C1445  O1509   1.295   .     A
C1446  C1448   1.413   .     A
C1446  O1512   1.386   .     S
C1447  C1456   1.452   .     S
C1447  C1471   1.411   .     A
C1447  C1472   1.408   .     A
C1448  C1470   1.413   .     A
C1449  N1508   1.367   .     A
C1449  H1475   1.081   .     S
C1449  C1908   1.416   1_545 S
C1450  N1507   1.368   .     A
C1450  H1486   1.081   .     S
C1450  C1679   1.416   .     S
C1451  N1508   1.366   .     A
C1451  H1497   1.079   .     S
C1451  C1906   1.416   1_545 S
C1452  H1501   1.081   .     S
C1452  N1507   1.368   .     A
C1452  C1677   1.416   .     S
C1453  O1520   1.419   .     S
C1453  C1454   1.536   .     S
C1453  H1502   1.108   .     S
C1453  H1503   1.116   .     S
C1454  C1455   1.524   .     S
C1455  H1506   1.111   .     S
C1455  H1856   1.108   1_545 S
C1455  H1933   1.111   1_545 S
C1456  O1513   1.291   .     A
C1456  O1514   1.293   .     A
C1457  H1479   1.111   .     S
C1457  C1458   1.540   .     S
C1457  O1510   1.423   .     S
C1457  H1478   1.111   .     S
C1458  H1481   1.111   .     S
C1458  H1556   1.108   .     S
C1459  H1482   1.111   .     S
C1459  H1483   1.110   .     S
C1459  H1484   1.111   .     S
C1459  C90     1.528   1_556 S
C1460  H1485   1.112   .     S
C1460  H1487   1.118   .     S
C1460  O1511   1.415   .     S
C1460  C1461   1.530   .     S
C1461  H1488   1.109   .     S
C1461  H1489   1.111   .     S
C1461  C1462   1.527   .     S
C1462  H1492   1.111   .     S
C1462  H122    1.111   1_556 S
C1462  H123    1.110   1_556 S
C1463  C1464   1.535   .     S
C1463  H1494   1.105   .     S
C1463  O1512   1.421   .     S
C1464  H1496   1.110   .     S
C1464  H1495   1.111   .     S
C1464  C1465   1.525   .     S
C1465  H1500   1.109   .     S
C1465  H1499   1.111   .     S
C1465  H1726   1.111   .     S
C1466  O1519   1.289   .     A
C1466  O1516   1.287   .     A
C1466  C1468   1.405   .     S
C1467  O1517   1.287   .     A
C1467  C1469   1.405   .     S
C1467  O1518   1.289   .     A
C1469  C100    1.188   1_556 S
C1470  O1520   1.383   .     S
C1471  O1510   1.388   .     S
C1471  C1522   1.395   .     S
C1472  O1511   1.384   .     S
C1472  C1546   1.386   .     S
Cu1473 N1507   2.016   .     S
Cu1473 O1516   1.928   .     S
Cu1473 Cu1474  2.683   .     S
Cu1473 O1509   1.974   .     S
Cu1473 O1514   1.975   .     S
Cu1473 O1518   1.930   .     S
Cu1474 N1508   2.016   .     S
Cu1474 O1515   1.975   .     S
Cu1474 O1519   1.930   .     S
Cu1474 O1513   1.974   .     S
Cu1474 O1517   1.928   .     S
H1476  C1759   1.108   .     S
H1477  C1683   1.111   .     S
H1493  C1539   1.116   .     S
H1498  C1921   1.111   1_545 S
H1504  C1530   1.110   .     S
H1505  C1530   1.110   .     S
C1521  O1591   1.296   .     A
C1521  C1524   1.464   .     S
C1521  O1585   1.295   .     A
C1522  C1524   1.413   .     A
C1522  O1588   1.386   .     S
C1523  C1532   1.452   .     S
C1523  C1547   1.411   .     A
C1523  C1548   1.408   .     A
C1524  C1546   1.413   .     A
C1525  N1584   1.367   .     A
C1525  H1551   1.081   .     S
C1525  C1984   1.416   1_545 S
C1526  N1583   1.368   .     A
C1526  H1562   1.081   .     S
C1526  C1755   1.416   .     S
C1527  N1584   1.366   .     A
C1527  H1573   1.079   .     S
C1527  C1982   1.416   1_545 S
C1528  H1577   1.081   .     S
C1528  N1583   1.368   .     A
C1528  C1753   1.416   .     S
C1529  O1596   1.419   .     S
C1529  C1530   1.536   .     S
C1529  H1578   1.108   .     S
C1529  H1579   1.116   .     S
C1530  C1531   1.524   .     S
C1531  H1582   1.111   .     S
C1531  H1932   1.108   1_545 S
C1531  H2009   1.111   1_545 S
C1532  O1589   1.291   .     A
C1532  O1590   1.293   .     A
C1533  H1555   1.111   .     S
C1533  C1534   1.540   .     S
C1533  O1586   1.423   .     S
C1533  H1554   1.111   .     S
C1534  H1557   1.111   .     S
C1534  H1404   1.108   1_655 S
C1535  H1558   1.111   .     S
C1535  H1559   1.110   .     S
C1535  H1560   1.111   .     S
C1535  C166    1.528   1_556 S
C1536  H1561   1.112   .     S
C1536  H1563   1.118   .     S
C1536  O1587   1.415   .     S
C1536  C1537   1.530   .     S
C1537  H1564   1.109   .     S
C1537  H1565   1.111   .     S
C1537  C1538   1.527   .     S
C1538  H1568   1.111   .     S
C1538  H198    1.111   1_556 S
C1538  H199    1.110   1_556 S
C1539  C1540   1.535   .     S
C1539  H1570   1.105   .     S
C1539  O1588   1.421   .     S
C1540  H1572   1.110   .     S
C1540  H1571   1.111   .     S
C1540  C1541   1.525   .     S
C1541  H1576   1.109   .     S
C1541  H1575   1.111   .     S
C1541  H1802   1.111   .     S
C1542  O1595   1.289   .     A
C1542  O1592   1.287   .     A
C1542  C1544   1.405   .     S
C1543  O1593   1.287   .     A
C1543  C1545   1.405   .     S
C1543  O1594   1.289   .     A
C1545  C176    1.188   1_556 S
C1546  O1596   1.383   .     S
C1547  O1586   1.388   .     S
C1547  C1370   1.395   1_655 S
C1548  O1587   1.384   .     S
C1548  C1394   1.386   1_655 S
Cu1549 N1583   2.016   .     S
Cu1549 O1592   1.928   .     S
Cu1549 Cu1550  2.683   .     S
Cu1549 O1585   1.974   .     S
Cu1549 O1590   1.975   .     S
Cu1549 O1594   1.930   .     S
Cu1550 N1584   2.016   .     S
Cu1550 O1591   1.975   .     S
Cu1550 O1595   1.930   .     S
Cu1550 O1589   1.974   .     S
Cu1550 O1593   1.928   .     S
H1552  C1607   1.108   1_655 S
H1553  C1759   1.111   .     S
H1569  C1387   1.116   1_655 S
H1574  C1997   1.111   1_545 S
H1580  C1378   1.110   1_655 S
H1581  C1378   1.110   1_655 S
C1597  O1667   1.296   .     A
C1597  C1600   1.464   .     S
C1597  O1661   1.295   .     A
C1598  C1600   1.413   .     A
C1598  O1664   1.386   .     S
C1598  C1775   1.395   1_455 S
C1599  C1608   1.452   .     S
C1599  C1623   1.411   .     A
C1599  C1624   1.408   .     A
C1600  C1622   1.413   .     A
C1601  N1660   1.367   .     A
C1601  H1627   1.081   .     S
C1602  N1659   1.368   .     A
C1602  H1638   1.081   .     S
C1602  C1831   1.416   .     S
C1603  N1660   1.366   .     A
C1603  H1649   1.079   .     S
C1604  H1653   1.081   .     S
C1604  N1659   1.368   .     A
C1604  C1829   1.416   .     S
C1605  O1672   1.419   .     S
C1605  C1606   1.536   .     S
C1605  H1654   1.108   .     S
C1605  H1655   1.116   .     S
C1606  C1607   1.524   .     S
C1606  H1808   1.110   1_455 S
C1606  H1809   1.110   1_455 S
C1607  H1658   1.111   .     S
C1607  H1552   1.108   1_455 S
C1608  O1665   1.291   .     A
C1608  O1666   1.293   .     A
C1609  H1631   1.111   .     S
C1609  C1610   1.540   .     S
C1609  O1662   1.423   .     S
C1609  H1630   1.111   .     S
C1610  H1633   1.111   .     S
C1610  H1708   1.108   .     S
C1611  H1634   1.111   .     S
C1611  H1635   1.110   .     S
C1611  H1636   1.111   .     S
C1611  C242    1.528   1_556 S
C1612  H1637   1.112   .     S
C1612  H1639   1.118   .     S
C1612  O1663   1.415   .     S
C1612  C1613   1.530   .     S
C1613  H1640   1.109   .     S
C1613  H1641   1.111   .     S
C1613  C1614   1.527   .     S
C1614  H1644   1.111   .     S
C1614  H274    1.111   1_556 S
C1614  H275    1.110   1_556 S
C1615  C1616   1.535   .     S
C1615  H1646   1.105   .     S
C1615  O1664   1.421   .     S
C1615  H1797   1.116   1_455 S
C1616  H1648   1.110   .     S
C1616  H1647   1.111   .     S
C1616  C1617   1.525   .     S
C1617  H1652   1.109   .     S
C1617  H1651   1.111   .     S
C1617  H1878   1.111   .     S
C1618  O1671   1.289   .     A
C1618  O1668   1.287   .     A
C1618  C1620   1.405   .     S
C1619  O1669   1.287   .     A
C1619  C1621   1.405   .     S
C1619  O1670   1.289   .     A
C1621  C252    1.188   1_556 S
C1622  O1672   1.383   .     S
C1622  C1776   1.386   1_455 S
C1623  O1662   1.388   .     S
C1623  C1674   1.395   .     S
C1624  O1663   1.384   .     S
C1624  C1698   1.386   .     S
Cu1625 N1659   2.016   .     S
Cu1625 O1668   1.928   .     S
Cu1625 Cu1626  2.683   .     S
Cu1625 O1661   1.974   .     S
Cu1625 O1666   1.975   .     S
Cu1625 O1670   1.930   .     S
Cu1626 N1660   2.016   .     S
Cu1626 O1667   1.975   .     S
Cu1626 O1671   1.930   .     S
Cu1626 O1665   1.974   .     S
Cu1626 O1669   1.928   .     S
H1628  C1911   1.108   .     S
H1629  C1835   1.111   .     S
H1632  C1762   1.108   1_455 S
H1645  C1691   1.116   .     S
H1656  C1682   1.110   .     S
H1657  C1682   1.110   .     S
C1673  O1743   1.296   .     A
C1673  C1676   1.464   .     S
C1673  O1737   1.295   .     A
C1674  C1676   1.413   .     A
C1674  O1740   1.386   .     S
C1675  C1684   1.452   .     S
C1675  C1699   1.411   .     A
C1675  C1700   1.408   .     A
C1676  C1698   1.413   .     A
C1677  N1736   1.367   .     A
C1677  H1703   1.081   .     S
C1678  N1735   1.368   .     A
C1678  H1714   1.081   .     S
C1678  C1907   1.416   .     S
C1679  N1736   1.366   .     A
C1679  H1725   1.079   .     S
C1680  H1729   1.081   .     S
C1680  N1735   1.368   .     A
C1680  C1905   1.416   .     S
C1681  O1748   1.419   .     S
C1681  C1682   1.536   .     S
C1681  H1730   1.108   .     S
C1681  H1731   1.116   .     S
C1682  C1683   1.524   .     S
C1683  H1734   1.111   .     S
C1684  O1741   1.291   .     A
C1684  O1742   1.293   .     A
C1685  H1707   1.111   .     S
C1685  C1686   1.540   .     S
C1685  O1738   1.423   .     S
C1685  H1706   1.111   .     S
C1686  H1709   1.111   .     S
C1686  H1784   1.108   .     S
C1687  H1710   1.111   .     S
C1687  H1711   1.110   .     S
C1687  H1712   1.111   .     S
C1687  C318    1.528   1_556 S
C1688  H1713   1.112   .     S
C1688  H1715   1.118   .     S
C1688  O1739   1.415   .     S
C1688  C1689   1.530   .     S
C1689  H1716   1.109   .     S
C1689  H1717   1.111   .     S
C1689  C1690   1.527   .     S
C1690  H1720   1.111   .     S
C1690  H350    1.111   1_556 S
C1690  H351    1.110   1_556 S
C1691  C1692   1.535   .     S
C1691  H1722   1.105   .     S
C1691  O1740   1.421   .     S
C1692  H1724   1.110   .     S
C1692  H1723   1.111   .     S
C1692  C1693   1.525   .     S
C1693  H1728   1.109   .     S
C1693  H1727   1.111   .     S
C1693  H1954   1.111   .     S
C1694  O1747   1.289   .     A
C1694  O1744   1.287   .     A
C1694  C1696   1.405   .     S
C1695  O1745   1.287   .     A
C1695  C1697   1.405   .     S
C1695  O1746   1.289   .     A
C1697  C328    1.188   1_556 S
C1698  O1748   1.383   .     S
C1699  O1738   1.388   .     S
C1699  C1750   1.395   .     S
C1700  O1739   1.384   .     S
C1700  C1774   1.386   .     S
Cu1701 N1735   2.016   .     S
Cu1701 O1744   1.928   .     S
Cu1701 Cu1702  2.683   .     S
Cu1701 O1737   1.974   .     S
Cu1701 O1742   1.975   .     S
Cu1701 O1746   1.930   .     S
Cu1702 N1736   2.016   .     S
Cu1702 O1743   1.975   .     S
Cu1702 O1747   1.930   .     S
Cu1702 O1741   1.974   .     S
Cu1702 O1745   1.928   .     S
H1704  C1987   1.108   .     S
H1705  C1911   1.111   .     S
H1721  C1767   1.116   .     S
H1732  C1758   1.110   .     S
H1733  C1758   1.110   .     S
C1749  O1819   1.296   .     A
C1749  C1752   1.464   .     S
C1749  O1813   1.295   .     A
C1750  C1752   1.413   .     A
C1750  O1816   1.386   .     S
C1751  C1760   1.452   .     S
C1751  C1775   1.411   .     A
C1751  C1776   1.408   .     A
C1752  C1774   1.413   .     A
C1753  N1812   1.367   .     A
C1753  H1779   1.081   .     S
C1754  N1811   1.368   .     A
C1754  H1790   1.081   .     S
C1754  C1983   1.416   .     S
C1755  N1812   1.366   .     A
C1755  H1801   1.079   .     S
C1756  H1805   1.081   .     S
C1756  N1811   1.368   .     A
C1756  C1981   1.416   .     S
C1757  O1824   1.419   .     S
C1757  C1758   1.536   .     S
C1757  H1806   1.108   .     S
C1757  H1807   1.116   .     S
C1758  C1759   1.524   .     S
C1759  H1810   1.111   .     S
C1760  O1817   1.291   .     A
C1760  O1818   1.293   .     A
C1761  H1783   1.111   .     S
C1761  C1762   1.540   .     S
C1761  O1814   1.423   .     S
C1761  H1782   1.111   .     S
C1762  H1785   1.111   .     S
C1762  H1632   1.108   1_655 S
C1763  H1786   1.111   .     S
C1763  H1787   1.110   .     S
C1763  H1788   1.111   .     S
C1763  C394    1.528   1_556 S
C1764  H1789   1.112   .     S
C1764  H1791   1.118   .     S
C1764  O1815   1.415   .     S
C1764  C1765   1.530   .     S
C1765  H1792   1.109   .     S
C1765  H1793   1.111   .     S
C1765  C1766   1.527   .     S
C1766  H1796   1.111   .     S
C1766  H426    1.111   1_556 S
C1766  H427    1.110   1_556 S
C1767  C1768   1.535   .     S
C1767  H1798   1.105   .     S
C1767  O1816   1.421   .     S
C1768  H1800   1.110   .     S
C1768  H1799   1.111   .     S
C1768  C1769   1.525   .     S
C1769  H1804   1.109   .     S
C1769  H1803   1.111   .     S
C1769  H2030   1.111   .     S
C1770  O1823   1.289   .     A
C1770  O1820   1.287   .     A
C1770  C1772   1.405   .     S
C1771  O1821   1.287   .     A
C1771  C1773   1.405   .     S
C1771  O1822   1.289   .     A
C1773  C404    1.188   1_556 S
C1774  O1824   1.383   .     S
C1775  O1814   1.388   .     S
C1775  C1598   1.395   1_655 S
C1776  O1815   1.384   .     S
C1776  C1622   1.386   1_655 S
Cu1777 N1811   2.016   .     S
Cu1777 O1820   1.928   .     S
Cu1777 Cu1778  2.683   .     S
Cu1777 O1813   1.974   .     S
Cu1777 O1818   1.975   .     S
Cu1777 O1822   1.930   .     S
Cu1778 N1812   2.016   .     S
Cu1778 O1819   1.975   .     S
Cu1778 O1823   1.930   .     S
Cu1778 O1817   1.974   .     S
Cu1778 O1821   1.928   .     S
H1780  C1835   1.108   1_655 S
H1781  C1987   1.111   .     S
H1797  C1615   1.116   1_655 S
H1808  C1606   1.110   1_655 S
H1809  C1606   1.110   1_655 S
C1825  O1895   1.296   .     A
C1825  C1828   1.464   .     S
C1825  O1889   1.295   .     A
C1826  C1828   1.413   .     A
C1826  O1892   1.386   .     S
C1826  C2003   1.395   1_455 S
C1827  C1836   1.452   .     S
C1827  C1851   1.411   .     A
C1827  C1852   1.408   .     A
C1828  C1850   1.413   .     A
C1829  N1888   1.367   .     A
C1829  H1855   1.081   .     S
C1830  N1887   1.368   .     A
C1830  H1866   1.081   .     S
C1830  C1375   1.416   1_565 S
C1831  N1888   1.366   .     A
C1831  H1877   1.079   .     S
C1832  H1881   1.081   .     S
C1832  N1887   1.368   .     A
C1832  C1373   1.416   1_565 S
C1833  O1900   1.419   .     S
C1833  C1834   1.536   .     S
C1833  H1882   1.108   .     S
C1833  H1883   1.116   .     S
C1834  C1835   1.524   .     S
C1834  H2036   1.110   1_455 S
C1834  H2037   1.110   1_455 S
C1835  H1886   1.111   .     S
C1835  H1780   1.108   1_455 S
C1836  O1893   1.291   .     A
C1836  O1894   1.293   .     A
C1837  H1859   1.111   .     S
C1837  C1838   1.540   .     S
C1837  O1890   1.423   .     S
C1837  H1858   1.111   .     S
C1838  H1861   1.111   .     S
C1838  H1936   1.108   .     S
C1839  H1862   1.111   .     S
C1839  H1863   1.110   .     S
C1839  H1864   1.111   .     S
C1839  C470    1.528   1_556 S
C1840  H1865   1.112   .     S
C1840  H1867   1.118   .     S
C1840  O1891   1.415   .     S
C1840  C1841   1.530   .     S
C1841  H1868   1.109   .     S
C1841  H1869   1.111   .     S
C1841  C1842   1.527   .     S
C1842  H1872   1.111   .     S
C1842  H502    1.111   1_556 S
C1842  H503    1.110   1_556 S
C1843  C1844   1.535   .     S
C1843  H1874   1.105   .     S
C1843  O1892   1.421   .     S
C1843  H2025   1.116   1_455 S
C1844  H1876   1.110   .     S
C1844  H1875   1.111   .     S
C1844  C1845   1.525   .     S
C1845  H1880   1.109   .     S
C1845  H1879   1.111   .     S
C1845  H1422   1.111   1_565 S
C1846  O1899   1.289   .     A
C1846  O1896   1.287   .     A
C1846  C1848   1.405   .     S
C1847  O1897   1.287   .     A
C1847  C1849   1.405   .     S
C1847  O1898   1.289   .     A
C1849  C480    1.188   1_556 S
C1850  O1900   1.383   .     S
C1850  C2004   1.386   1_455 S
C1851  O1890   1.388   .     S
C1851  C1902   1.395   .     S
C1852  O1891   1.384   .     S
C1852  C1926   1.386   .     S
Cu1853 N1887   2.016   .     S
Cu1853 O1896   1.928   .     S
Cu1853 Cu1854  2.683   .     S
Cu1853 O1889   1.974   .     S
Cu1853 O1894   1.975   .     S
Cu1853 O1898   1.930   .     S
Cu1854 N1888   2.016   .     S
Cu1854 O1895   1.975   .     S
Cu1854 O1899   1.930   .     S
Cu1854 O1893   1.974   .     S
Cu1854 O1897   1.928   .     S
H1856  C1455   1.108   1_565 S
H1857  C1379   1.111   1_565 S
H1860  C1990   1.108   1_455 S
H1873  C1919   1.116   .     S
H1884  C1910   1.110   .     S
H1885  C1910   1.110   .     S
C1901  O1971   1.296   .     A
C1901  C1904   1.464   .     S
C1901  O1965   1.295   .     A
C1902  C1904   1.413   .     A
C1902  O1968   1.386   .     S
C1903  C1912   1.452   .     S
C1903  C1927   1.411   .     A
C1903  C1928   1.408   .     A
C1904  C1926   1.413   .     A
C1905  N1964   1.367   .     A
C1905  H1931   1.081   .     S
C1906  N1963   1.368   .     A
C1906  H1942   1.081   .     S
C1906  C1451   1.416   1_565 S
C1907  N1964   1.366   .     A
C1907  H1953   1.079   .     S
C1908  H1957   1.081   .     S
C1908  N1963   1.368   .     A
C1908  C1449   1.416   1_565 S
C1909  O1976   1.419   .     S
C1909  C1910   1.536   .     S
C1909  H1958   1.108   .     S
C1909  H1959   1.116   .     S
C1910  C1911   1.524   .     S
C1911  H1962   1.111   .     S
C1912  O1969   1.291   .     A
C1912  O1970   1.293   .     A
C1913  H1935   1.111   .     S
C1913  C1914   1.540   .     S
C1913  O1966   1.423   .     S
C1913  H1934   1.111   .     S
C1914  H1937   1.111   .     S
C1914  H2012   1.108   .     S
C1915  H1938   1.111   .     S
C1915  H1939   1.110   .     S
C1915  H1940   1.111   .     S
C1915  C546    1.528   1_556 S
C1916  H1941   1.112   .     S
C1916  H1943   1.118   .     S
C1916  O1967   1.415   .     S
C1916  C1917   1.530   .     S
C1917  H1944   1.109   .     S
C1917  H1945   1.111   .     S
C1917  C1918   1.527   .     S
C1918  H1948   1.111   .     S
C1918  H578    1.111   1_556 S
C1918  H579    1.110   1_556 S
C1919  C1920   1.535   .     S
C1919  H1950   1.105   .     S
C1919  O1968   1.421   .     S
C1920  H1952   1.110   .     S
C1920  H1951   1.111   .     S
C1920  C1921   1.525   .     S
C1921  H1956   1.109   .     S
C1921  H1955   1.111   .     S
C1921  H1498   1.111   1_565 S
C1922  O1975   1.289   .     A
C1922  O1972   1.287   .     A
C1922  C1924   1.405   .     S
C1923  O1973   1.287   .     A
C1923  C1925   1.405   .     S
C1923  O1974   1.289   .     A
C1925  C556    1.188   1_556 S
C1926  O1976   1.383   .     S
C1927  O1966   1.388   .     S
C1927  C1978   1.395   .     S
C1928  O1967   1.384   .     S
C1928  C2002   1.386   .     S
Cu1929 N1963   2.016   .     S
Cu1929 O1972   1.928   .     S
Cu1929 Cu1930  2.683   .     S
Cu1929 O1965   1.974   .     S
Cu1929 O1970   1.975   .     S
Cu1929 O1974   1.930   .     S
Cu1930 N1964   2.016   .     S
Cu1930 O1971   1.975   .     S
Cu1930 O1975   1.930   .     S
Cu1930 O1969   1.974   .     S
Cu1930 O1973   1.928   .     S
H1932  C1531   1.108   1_565 S
H1933  C1455   1.111   1_565 S
H1949  C1995   1.116   .     S
H1960  C1986   1.110   .     S
H1961  C1986   1.110   .     S
C1977  O2047   1.296   .     A
C1977  C1980   1.464   .     S
C1977  O2041   1.295   .     A
C1978  C1980   1.413   .     A
C1978  O2044   1.386   .     S
C1979  C1988   1.452   .     S
C1979  C2003   1.411   .     A
C1979  C2004   1.408   .     A
C1980  C2002   1.413   .     A
C1981  N2040   1.367   .     A
C1981  H2007   1.081   .     S
C1982  N2039   1.368   .     A
C1982  H2018   1.081   .     S
C1982  C1527   1.416   1_565 S
C1983  N2040   1.366   .     A
C1983  H2029   1.079   .     S
C1984  H2033   1.081   .     S
C1984  N2039   1.368   .     A
C1984  C1525   1.416   1_565 S
C1985  O2052   1.419   .     S
C1985  C1986   1.536   .     S
C1985  H2034   1.108   .     S
C1985  H2035   1.116   .     S
C1986  C1987   1.524   .     S
C1987  H2038   1.111   .     S
C1988  O2045   1.291   .     A
C1988  O2046   1.293   .     A
C1989  H2011   1.111   .     S
C1989  C1990   1.540   .     S
C1989  O2042   1.423   .     S
C1989  H2010   1.111   .     S
C1990  H2013   1.111   .     S
C1990  H1860   1.108   1_655 S
C1991  H2014   1.111   .     S
C1991  H2015   1.110   .     S
C1991  H2016   1.111   .     S
C1991  C622    1.528   1_556 S
C1992  H2017   1.112   .     S
C1992  H2019   1.118   .     S
C1992  O2043   1.415   .     S
C1992  C1993   1.530   .     S
C1993  H2020   1.109   .     S
C1993  H2021   1.111   .     S
C1993  C1994   1.527   .     S
C1994  H2024   1.111   .     S
C1994  H654    1.111   1_556 S
C1994  H655    1.110   1_556 S
C1995  C1996   1.535   .     S
C1995  H2026   1.105   .     S
C1995  O2044   1.421   .     S
C1996  H2028   1.110   .     S
C1996  H2027   1.111   .     S
C1996  C1997   1.525   .     S
C1997  H2032   1.109   .     S
C1997  H2031   1.111   .     S
C1997  H1574   1.111   1_565 S
C1998  O2051   1.289   .     A
C1998  O2048   1.287   .     A
C1998  C2000   1.405   .     S
C1999  O2049   1.287   .     A
C1999  C2001   1.405   .     S
C1999  O2050   1.289   .     A
C2001  C632    1.188   1_556 S
C2002  O2052   1.383   .     S
C2003  O2042   1.388   .     S
C2003  C1826   1.395   1_655 S
C2004  O2043   1.384   .     S
C2004  C1850   1.386   1_655 S
Cu2005 N2039   2.016   .     S
Cu2005 O2048   1.928   .     S
Cu2005 Cu2006  2.683   .     S
Cu2005 O2041   1.974   .     S
Cu2005 O2046   1.975   .     S
Cu2005 O2050   1.930   .     S
Cu2006 N2040   2.016   .     S
Cu2006 O2047   1.975   .     S
Cu2006 O2051   1.930   .     S
Cu2006 O2045   1.974   .     S
Cu2006 O2049   1.928   .     S
H2008  C1379   1.108   1_665 S
H2009  C1531   1.111   1_565 S
H2025  C1843   1.116   1_655 S
H2036  C1834   1.110   1_655 S
H2037  C1834   1.110   1_655 S
