data_str_m2_o1_o10_pcu_sym.18
_audit_creation_date              2020-01-03
_audit_creation_method            'Materials Studio'
_symmetry_space_group_name_H-M    'P1'
_symmetry_Int_Tables_number       1
_symmetry_cell_setting            triclinic
loop_
_symmetry_equiv_pos_as_xyz
  x,y,z
_cell_length_a                    26.6186
_cell_length_b                    32.8031
_cell_length_c                    29.0086
_cell_angle_alpha                 89.6646
_cell_angle_beta                  98.6156
_cell_angle_gamma                 99.1080
loop_
_atom_site_label
_atom_site_type_symbol
_atom_site_fract_x
_atom_site_fract_y
_atom_site_fract_z
_atom_site_U_iso_or_equiv
_atom_site_adp_type
_atom_site_occupancy
C1     C     0.16914   0.08779   0.16727   0.00000  Uiso   1.00
C2     C     0.16151   0.01977   0.20779   0.00000  Uiso   1.00
C3     C     0.16153   0.29003   0.16494   0.00000  Uiso   1.00
C4     C     0.17181   0.04330   0.16839   0.00000  Uiso   1.00
C5     C     0.13750   0.13487   0.02059   0.00000  Uiso   1.00
C6     C     0.19583   0.19847   0.31274   0.00000  Uiso   1.00
C7     C     0.13887   0.13444   0.30460   0.00000  Uiso   1.00
C8     C     0.19446   0.19890   0.02874   0.00000  Uiso   1.00
C9     C     0.32741   0.15147   0.06776   0.00000  Uiso   1.00
C10    C     0.00592   0.18186   0.26557   0.00000  Uiso   1.00
C11    C     0.25437   0.04452   0.09712   0.00000  Uiso   1.00
C12    C     0.16419   0.24554   0.16606   0.00000  Uiso   1.00
C13    C     0.07897   0.28881   0.23621   0.00000  Uiso   1.00
C14    C     0.12471   0.29330   0.05559   0.00000  Uiso   1.00
C15    C     0.20866   0.04007   0.27772   0.00000  Uiso   1.00
C16    C     0.10772   0.09795   0.04252   0.00000  Uiso   1.00
C17    C     0.05732   0.07498   0.01601   0.00000  Uiso   1.00
C18    C     0.22562   0.23538   0.29081   0.00000  Uiso   1.00
C19    C     0.27601   0.25835   0.31732   0.00000  Uiso   1.00
C20    C     0.07458   0.09654   0.25052   0.00000  Uiso   1.00
C21    C     0.25875   0.23680   0.08281   0.00000  Uiso   1.00
C22    C     0.06782   0.16583   0.15448   0.00000  Uiso   1.00
C23    C     0.26551   0.16750   0.17886   0.00000  Uiso   1.00
C24    C     0.01137   0.16128   0.14854   0.00000  Uiso   1.00
C25    C     0.32197   0.17205   0.18479   0.00000  Uiso   1.00
C26    C     0.18203   0.02322   0.12901   0.00000  Uiso   1.00
C27    C     0.15131   0.31011   0.20432   0.00000  Uiso   1.00
C28    C     0.17183   0.31357   0.12555   0.00000  Uiso   1.00
Cu29   Cu    0.16667   0.16667   0.21355   0.00000  Uiso   1.00
Cu30   Cu    0.16667   0.16666   0.11978   0.00000  Uiso   1.00
H31    H     0.01959   0.13200   0.05599   0.00000  Uiso   1.00
H32    H     0.06363   0.27018   0.26451   0.00000  Uiso   1.00
H33    H     0.05828   0.27504   0.20229   0.00000  Uiso   1.00
H34    H     0.07087   0.32070   0.24049   0.00000  Uiso   1.00
H35    H     0.12567   0.27794   0.02182   0.00000  Uiso   1.00
H36    H     0.11522   0.32471   0.04779   0.00000  Uiso   1.00
H37    H     0.09394   0.27461   0.07238   0.00000  Uiso   1.00
H38    H     0.21820   0.00868   0.28551   0.00000  Uiso   1.00
H39    H     0.20770   0.05541   0.31150   0.00000  Uiso   1.00
H40    H     0.23939   0.05879   0.26091   0.00000  Uiso   1.00
H41    H     0.03496   0.09622   0.32841   0.00000  Uiso   1.00
H42    H     0.01286   0.18432   0.06762   0.00000  Uiso   1.00
H43    H     0.06507   0.04940   0.32802   0.00000  Uiso   1.00
H44    H     0.03301   0.05985   0.04124   0.00000  Uiso   1.00
H45    H     0.13337   0.07483   0.05060   0.00000  Uiso   1.00
H46    H     0.09623   0.10845   0.07453   0.00000  Uiso   1.00
H47    H     0.26826   0.28393   0.00531   0.00000  Uiso   1.00
H48    H     0.29838   0.23711   0.00492   0.00000  Uiso   1.00
H49    H     0.30032   0.27348   0.29209   0.00000  Uiso   1.00
H50    H     0.23710   0.22488   0.25881   0.00000  Uiso   1.00
H51    H     0.19996   0.25851   0.28273   0.00000  Uiso   1.00
H52    H     0.07928   0.09433   0.21354   0.00000  Uiso   1.00
H53    H     0.29169   0.14755   0.04191   0.00000  Uiso   1.00
H54    H     0.05502   0.12259   0.25630   0.00000  Uiso   1.00
H55    H     0.04828   0.06769   0.25540   0.00000  Uiso   1.00
H56    H     0.27831   0.21074   0.07704   0.00000  Uiso   1.00
H57    H     0.25405   0.23900   0.11979   0.00000  Uiso   1.00
H58    H     0.28506   0.26564   0.07794   0.00000  Uiso   1.00
H59    H     0.32047   0.14901   0.26571   0.00000  Uiso   1.00
H60    H     0.31374   0.20133   0.27734   0.00000  Uiso   1.00
H61    H     0.04164   0.18578   0.29143   0.00000  Uiso   1.00
H62    H     0.27506   0.05828   0.13106   0.00000  Uiso   1.00
H63    H     0.26971   0.06315   0.06883   0.00000  Uiso   1.00
H64    H     0.26246   0.01262   0.09283   0.00000  Uiso   1.00
N65    N     0.16668   0.16668   0.28403   0.00000  Uiso   1.00
N66    N     0.16665   0.16666   0.04931   0.00000  Uiso   1.00
O67    O     0.16666   0.10655   0.20625   0.00000  Uiso   1.00
O68    O     0.01850   0.19560   0.22191   0.00000  Uiso   1.00
O69    O     0.20109   0.04541   0.09299   0.00000  Uiso   1.00
O70    O     0.13225   0.28793   0.24035   0.00000  Uiso   1.00
O71    O     0.17337   0.29519   0.08334   0.00000  Uiso   1.00
O72    O     0.15997   0.03814   0.25000   0.00000  Uiso   1.00
O73    O     0.12201   0.09730   0.28026   0.00000  Uiso   1.00
O74    O     0.21133   0.23603   0.05308   0.00000  Uiso   1.00
O75    O     0.16667   0.22678   0.12709   0.00000  Uiso   1.00
O76    O     0.16666   0.10654   0.12706   0.00000  Uiso   1.00
O77    O     0.16667   0.22679   0.20628   0.00000  Uiso   1.00
O78    O     0.09161   0.16667   0.19712   0.00000  Uiso   1.00
O79    O     0.24172   0.16666   0.13621   0.00000  Uiso   1.00
O80    O     0.09161   0.16666   0.11793   0.00000  Uiso   1.00
O81    O     0.24172   0.16667   0.21540   0.00000  Uiso   1.00
O82    O     0.31484   0.13773   0.11143   0.00000  Uiso   1.00
C83    C     0.50248   0.08779   0.16727   0.00000  Uiso   1.00
C84    C     0.49484   0.01977   0.20779   0.00000  Uiso   1.00
C85    C     0.49486   0.29003   0.16494   0.00000  Uiso   1.00
C86    C     0.50514   0.04330   0.16839   0.00000  Uiso   1.00
C87    C     0.47083   0.13487   0.02059   0.00000  Uiso   1.00
C88    C     0.52917   0.19847   0.31274   0.00000  Uiso   1.00
C89    C     0.47221   0.13444   0.30460   0.00000  Uiso   1.00
C90    C     0.52779   0.19890   0.02874   0.00000  Uiso   1.00
C91    C     0.66075   0.15147   0.06776   0.00000  Uiso   1.00
C92    C     0.33925   0.18186   0.26557   0.00000  Uiso   1.00
C93    C     0.58770   0.04452   0.09712   0.00000  Uiso   1.00
C94    C     0.49752   0.24554   0.16606   0.00000  Uiso   1.00
C95    C     0.41230   0.28881   0.23621   0.00000  Uiso   1.00
C96    C     0.45804   0.29330   0.05559   0.00000  Uiso   1.00
C97    C     0.54199   0.04007   0.27772   0.00000  Uiso   1.00
C98    C     0.44105   0.09795   0.04252   0.00000  Uiso   1.00
C99    C     0.39065   0.07498   0.01601   0.00000  Uiso   1.00
C100   C     0.55895   0.23538   0.29081   0.00000  Uiso   1.00
C101   C     0.60935   0.25835   0.31732   0.00000  Uiso   1.00
C102   C     0.40791   0.09654   0.25052   0.00000  Uiso   1.00
C103   C     0.59209   0.23680   0.08281   0.00000  Uiso   1.00
C104   C     0.40116   0.16583   0.15448   0.00000  Uiso   1.00
C105   C     0.59884   0.16750   0.17886   0.00000  Uiso   1.00
C106   C     0.34470   0.16128   0.14854   0.00000  Uiso   1.00
C107   C     0.65530   0.17205   0.18479   0.00000  Uiso   1.00
C108   C     0.51536   0.02322   0.12901   0.00000  Uiso   1.00
C109   C     0.48464   0.31011   0.20432   0.00000  Uiso   1.00
C110   C     0.50516   0.31357   0.12555   0.00000  Uiso   1.00
Cu111  Cu    0.50000   0.16667   0.21355   0.00000  Uiso   1.00
Cu112  Cu    0.50000   0.16666   0.11978   0.00000  Uiso   1.00
H113   H     0.35292   0.13200   0.05599   0.00000  Uiso   1.00
H114   H     0.39697   0.27018   0.26451   0.00000  Uiso   1.00
H115   H     0.39161   0.27504   0.20229   0.00000  Uiso   1.00
H116   H     0.40420   0.32070   0.24049   0.00000  Uiso   1.00
H117   H     0.45901   0.27794   0.02182   0.00000  Uiso   1.00
H118   H     0.44855   0.32471   0.04779   0.00000  Uiso   1.00
H119   H     0.42727   0.27461   0.07238   0.00000  Uiso   1.00
H120   H     0.55153   0.00868   0.28551   0.00000  Uiso   1.00
H121   H     0.54103   0.05541   0.31150   0.00000  Uiso   1.00
H122   H     0.57272   0.05879   0.26091   0.00000  Uiso   1.00
H123   H     0.36829   0.09622   0.32841   0.00000  Uiso   1.00
H124   H     0.34619   0.18432   0.06762   0.00000  Uiso   1.00
H125   H     0.39841   0.04940   0.32802   0.00000  Uiso   1.00
H126   H     0.36635   0.05985   0.04124   0.00000  Uiso   1.00
H127   H     0.46671   0.07483   0.05060   0.00000  Uiso   1.00
H128   H     0.42957   0.10845   0.07453   0.00000  Uiso   1.00
H129   H     0.60160   0.28393   0.00531   0.00000  Uiso   1.00
H130   H     0.63171   0.23711   0.00492   0.00000  Uiso   1.00
H131   H     0.63366   0.27348   0.29209   0.00000  Uiso   1.00
H132   H     0.57043   0.22488   0.25881   0.00000  Uiso   1.00
H133   H     0.53330   0.25851   0.28273   0.00000  Uiso   1.00
H134   H     0.41261   0.09433   0.21354   0.00000  Uiso   1.00
H135   H     0.62503   0.14755   0.04191   0.00000  Uiso   1.00
H136   H     0.38836   0.12259   0.25630   0.00000  Uiso   1.00
H137   H     0.38161   0.06769   0.25540   0.00000  Uiso   1.00
H138   H     0.61164   0.21074   0.07704   0.00000  Uiso   1.00
H139   H     0.58739   0.23900   0.11979   0.00000  Uiso   1.00
H140   H     0.61839   0.26564   0.07794   0.00000  Uiso   1.00
H141   H     0.65381   0.14901   0.26571   0.00000  Uiso   1.00
H142   H     0.64708   0.20133   0.27734   0.00000  Uiso   1.00
H143   H     0.37497   0.18578   0.29143   0.00000  Uiso   1.00
H144   H     0.60839   0.05828   0.13106   0.00000  Uiso   1.00
H145   H     0.60304   0.06315   0.06883   0.00000  Uiso   1.00
H146   H     0.59579   0.01262   0.09283   0.00000  Uiso   1.00
N147   N     0.50001   0.16668   0.28403   0.00000  Uiso   1.00
N148   N     0.49999   0.16666   0.04931   0.00000  Uiso   1.00
O149   O     0.50000   0.10655   0.20625   0.00000  Uiso   1.00
O150   O     0.35183   0.19560   0.22191   0.00000  Uiso   1.00
O151   O     0.53442   0.04541   0.09299   0.00000  Uiso   1.00
O152   O     0.46559   0.28793   0.24035   0.00000  Uiso   1.00
O153   O     0.50671   0.29519   0.08334   0.00000  Uiso   1.00
O154   O     0.49331   0.03814   0.25000   0.00000  Uiso   1.00
O155   O     0.45534   0.09730   0.28026   0.00000  Uiso   1.00
O156   O     0.54466   0.23603   0.05308   0.00000  Uiso   1.00
O157   O     0.50000   0.22678   0.12709   0.00000  Uiso   1.00
O158   O     0.50000   0.10654   0.12706   0.00000  Uiso   1.00
O159   O     0.50000   0.22679   0.20628   0.00000  Uiso   1.00
O160   O     0.42495   0.16667   0.19712   0.00000  Uiso   1.00
O161   O     0.57505   0.16666   0.13621   0.00000  Uiso   1.00
O162   O     0.42494   0.16666   0.11793   0.00000  Uiso   1.00
O163   O     0.57506   0.16667   0.21540   0.00000  Uiso   1.00
O164   O     0.64817   0.13773   0.11143   0.00000  Uiso   1.00
C165   C     0.83581   0.08779   0.16727   0.00000  Uiso   1.00
C166   C     0.82818   0.01977   0.20779   0.00000  Uiso   1.00
C167   C     0.82819   0.29003   0.16494   0.00000  Uiso   1.00
C168   C     0.83848   0.04330   0.16839   0.00000  Uiso   1.00
C169   C     0.80417   0.13487   0.02059   0.00000  Uiso   1.00
C170   C     0.86250   0.19847   0.31274   0.00000  Uiso   1.00
C171   C     0.80554   0.13444   0.30460   0.00000  Uiso   1.00
C172   C     0.86113   0.19890   0.02874   0.00000  Uiso   1.00
C173   C     0.99408   0.15147   0.06776   0.00000  Uiso   1.00
C174   C     0.67259   0.18186   0.26557   0.00000  Uiso   1.00
C175   C     0.92103   0.04452   0.09712   0.00000  Uiso   1.00
C176   C     0.83086   0.24554   0.16606   0.00000  Uiso   1.00
C177   C     0.74564   0.28881   0.23621   0.00000  Uiso   1.00
C178   C     0.79137   0.29330   0.05559   0.00000  Uiso   1.00
C179   C     0.87533   0.04007   0.27772   0.00000  Uiso   1.00
C180   C     0.77439   0.09795   0.04252   0.00000  Uiso   1.00
C181   C     0.72399   0.07498   0.01601   0.00000  Uiso   1.00
C182   C     0.89228   0.23538   0.29081   0.00000  Uiso   1.00
C183   C     0.94268   0.25835   0.31732   0.00000  Uiso   1.00
C184   C     0.74125   0.09654   0.25052   0.00000  Uiso   1.00
C185   C     0.92542   0.23680   0.08281   0.00000  Uiso   1.00
C186   C     0.73449   0.16583   0.15448   0.00000  Uiso   1.00
C187   C     0.93218   0.16750   0.17886   0.00000  Uiso   1.00
C188   C     0.67803   0.16128   0.14854   0.00000  Uiso   1.00
C189   C     0.98863   0.17205   0.18479   0.00000  Uiso   1.00
C190   C     0.84869   0.02322   0.12901   0.00000  Uiso   1.00
C191   C     0.81798   0.31011   0.20432   0.00000  Uiso   1.00
C192   C     0.83849   0.31357   0.12555   0.00000  Uiso   1.00
Cu193  Cu    0.83333   0.16667   0.21355   0.00000  Uiso   1.00
Cu194  Cu    0.83333   0.16666   0.11978   0.00000  Uiso   1.00
H195   H     0.68625   0.13200   0.05599   0.00000  Uiso   1.00
H196   H     0.73030   0.27018   0.26451   0.00000  Uiso   1.00
H197   H     0.72495   0.27504   0.20229   0.00000  Uiso   1.00
H198   H     0.73753   0.32070   0.24049   0.00000  Uiso   1.00
H199   H     0.79234   0.27794   0.02182   0.00000  Uiso   1.00
H200   H     0.78189   0.32471   0.04779   0.00000  Uiso   1.00
H201   H     0.76060   0.27461   0.07238   0.00000  Uiso   1.00
H202   H     0.88486   0.00868   0.28551   0.00000  Uiso   1.00
H203   H     0.87436   0.05541   0.31150   0.00000  Uiso   1.00
H204   H     0.90605   0.05879   0.26091   0.00000  Uiso   1.00
H205   H     0.70162   0.09622   0.32841   0.00000  Uiso   1.00
H206   H     0.67952   0.18432   0.06762   0.00000  Uiso   1.00
H207   H     0.73174   0.04940   0.32802   0.00000  Uiso   1.00
H208   H     0.69968   0.05985   0.04124   0.00000  Uiso   1.00
H209   H     0.80004   0.07483   0.05060   0.00000  Uiso   1.00
H210   H     0.76290   0.10845   0.07453   0.00000  Uiso   1.00
H211   H     0.93493   0.28393   0.00531   0.00000  Uiso   1.00
H212   H     0.96505   0.23711   0.00492   0.00000  Uiso   1.00
H213   H     0.96699   0.27348   0.29209   0.00000  Uiso   1.00
H214   H     0.90377   0.22488   0.25881   0.00000  Uiso   1.00
H215   H     0.86663   0.25851   0.28273   0.00000  Uiso   1.00
H216   H     0.74595   0.09433   0.21354   0.00000  Uiso   1.00
H217   H     0.95836   0.14755   0.04191   0.00000  Uiso   1.00
H218   H     0.72169   0.12259   0.25630   0.00000  Uiso   1.00
H219   H     0.71495   0.06769   0.25540   0.00000  Uiso   1.00
H220   H     0.94498   0.21074   0.07704   0.00000  Uiso   1.00
H221   H     0.92072   0.23900   0.11979   0.00000  Uiso   1.00
H222   H     0.95172   0.26564   0.07794   0.00000  Uiso   1.00
H223   H     0.98714   0.14901   0.26571   0.00000  Uiso   1.00
H224   H     0.98041   0.20133   0.27734   0.00000  Uiso   1.00
H225   H     0.70831   0.18578   0.29143   0.00000  Uiso   1.00
H226   H     0.94173   0.05828   0.13106   0.00000  Uiso   1.00
H227   H     0.93637   0.06315   0.06883   0.00000  Uiso   1.00
H228   H     0.92913   0.01262   0.09283   0.00000  Uiso   1.00
N229   N     0.83335   0.16668   0.28403   0.00000  Uiso   1.00
N230   N     0.83332   0.16666   0.04931   0.00000  Uiso   1.00
O231   O     0.83333   0.10655   0.20625   0.00000  Uiso   1.00
O232   O     0.68516   0.19560   0.22191   0.00000  Uiso   1.00
O233   O     0.86775   0.04541   0.09299   0.00000  Uiso   1.00
O234   O     0.79892   0.28793   0.24035   0.00000  Uiso   1.00
O235   O     0.84004   0.29519   0.08334   0.00000  Uiso   1.00
O236   O     0.82664   0.03814   0.25000   0.00000  Uiso   1.00
O237   O     0.78868   0.09730   0.28026   0.00000  Uiso   1.00
O238   O     0.87799   0.23603   0.05308   0.00000  Uiso   1.00
O239   O     0.83334   0.22678   0.12709   0.00000  Uiso   1.00
O240   O     0.83333   0.10654   0.12706   0.00000  Uiso   1.00
O241   O     0.83334   0.22679   0.20628   0.00000  Uiso   1.00
O242   O     0.75828   0.16667   0.19712   0.00000  Uiso   1.00
O243   O     0.90839   0.16666   0.13621   0.00000  Uiso   1.00
O244   O     0.75828   0.16666   0.11793   0.00000  Uiso   1.00
O245   O     0.90839   0.16667   0.21540   0.00000  Uiso   1.00
O246   O     0.98150   0.13773   0.11143   0.00000  Uiso   1.00
C247   C     0.16914   0.42113   0.16727   0.00000  Uiso   1.00
C248   C     0.16151   0.35310   0.20779   0.00000  Uiso   1.00
C249   C     0.16153   0.62336   0.16494   0.00000  Uiso   1.00
C250   C     0.17181   0.37664   0.16839   0.00000  Uiso   1.00
C251   C     0.13750   0.46820   0.02059   0.00000  Uiso   1.00
C252   C     0.19583   0.53180   0.31274   0.00000  Uiso   1.00
C253   C     0.13887   0.46777   0.30460   0.00000  Uiso   1.00
C254   C     0.19446   0.53223   0.02874   0.00000  Uiso   1.00
C255   C     0.32741   0.48480   0.06776   0.00000  Uiso   1.00
C256   C     0.00592   0.51519   0.26557   0.00000  Uiso   1.00
C257   C     0.25437   0.37785   0.09712   0.00000  Uiso   1.00
C258   C     0.16419   0.57887   0.16606   0.00000  Uiso   1.00
C259   C     0.07897   0.62214   0.23621   0.00000  Uiso   1.00
C260   C     0.12471   0.62663   0.05559   0.00000  Uiso   1.00
C261   C     0.20866   0.37341   0.27772   0.00000  Uiso   1.00
C262   C     0.10772   0.43129   0.04252   0.00000  Uiso   1.00
C263   C     0.05732   0.40832   0.01601   0.00000  Uiso   1.00
C264   C     0.22562   0.56871   0.29081   0.00000  Uiso   1.00
C265   C     0.27601   0.59168   0.31732   0.00000  Uiso   1.00
C266   C     0.07458   0.42987   0.25052   0.00000  Uiso   1.00
C267   C     0.25875   0.57013   0.08281   0.00000  Uiso   1.00
C268   C     0.06782   0.49916   0.15448   0.00000  Uiso   1.00
C269   C     0.26551   0.50084   0.17886   0.00000  Uiso   1.00
C270   C     0.01137   0.49461   0.14854   0.00000  Uiso   1.00
C271   C     0.32197   0.50538   0.18479   0.00000  Uiso   1.00
C272   C     0.18203   0.35656   0.12901   0.00000  Uiso   1.00
C273   C     0.15131   0.64344   0.20432   0.00000  Uiso   1.00
C274   C     0.17183   0.64690   0.12555   0.00000  Uiso   1.00
Cu275  Cu    0.16667   0.50001   0.21355   0.00000  Uiso   1.00
Cu276  Cu    0.16667   0.49999   0.11978   0.00000  Uiso   1.00
H277   H     0.01959   0.46533   0.05599   0.00000  Uiso   1.00
H278   H     0.06363   0.60351   0.26451   0.00000  Uiso   1.00
H279   H     0.05828   0.60837   0.20229   0.00000  Uiso   1.00
H280   H     0.07087   0.65404   0.24049   0.00000  Uiso   1.00
H281   H     0.12567   0.61128   0.02182   0.00000  Uiso   1.00
H282   H     0.11522   0.65804   0.04779   0.00000  Uiso   1.00
H283   H     0.09394   0.60795   0.07238   0.00000  Uiso   1.00
H284   H     0.21820   0.34201   0.28551   0.00000  Uiso   1.00
H285   H     0.20770   0.38875   0.31150   0.00000  Uiso   1.00
H286   H     0.23939   0.39212   0.26091   0.00000  Uiso   1.00
H287   H     0.03496   0.42955   0.32841   0.00000  Uiso   1.00
H288   H     0.01286   0.51765   0.06762   0.00000  Uiso   1.00
H289   H     0.06507   0.38273   0.32802   0.00000  Uiso   1.00
H290   H     0.03301   0.39318   0.04124   0.00000  Uiso   1.00
H291   H     0.13337   0.40816   0.05060   0.00000  Uiso   1.00
H292   H     0.09623   0.44178   0.07453   0.00000  Uiso   1.00
H293   H     0.26826   0.61727   0.00531   0.00000  Uiso   1.00
H294   H     0.29838   0.57045   0.00492   0.00000  Uiso   1.00
H295   H     0.30032   0.60681   0.29209   0.00000  Uiso   1.00
H296   H     0.23710   0.55822   0.25881   0.00000  Uiso   1.00
H297   H     0.19996   0.59184   0.28273   0.00000  Uiso   1.00
H298   H     0.07928   0.42767   0.21354   0.00000  Uiso   1.00
H299   H     0.29169   0.48088   0.04191   0.00000  Uiso   1.00
H300   H     0.05502   0.45592   0.25630   0.00000  Uiso   1.00
H301   H     0.04828   0.40102   0.25540   0.00000  Uiso   1.00
H302   H     0.27831   0.54408   0.07704   0.00000  Uiso   1.00
H303   H     0.25405   0.57233   0.11979   0.00000  Uiso   1.00
H304   H     0.28506   0.59898   0.07794   0.00000  Uiso   1.00
H305   H     0.32047   0.48234   0.26571   0.00000  Uiso   1.00
H306   H     0.31374   0.53466   0.27734   0.00000  Uiso   1.00
H307   H     0.04164   0.51911   0.29143   0.00000  Uiso   1.00
H308   H     0.27506   0.39162   0.13106   0.00000  Uiso   1.00
H309   H     0.26971   0.39648   0.06883   0.00000  Uiso   1.00
H310   H     0.26246   0.34596   0.09283   0.00000  Uiso   1.00
N311   N     0.16668   0.50001   0.28403   0.00000  Uiso   1.00
N312   N     0.16665   0.49999   0.04931   0.00000  Uiso   1.00
O313   O     0.16666   0.43989   0.20625   0.00000  Uiso   1.00
O314   O     0.01850   0.52893   0.22191   0.00000  Uiso   1.00
O315   O     0.20109   0.37874   0.09299   0.00000  Uiso   1.00
O316   O     0.13225   0.62126   0.24035   0.00000  Uiso   1.00
O317   O     0.17337   0.62852   0.08334   0.00000  Uiso   1.00
O318   O     0.15997   0.37148   0.25000   0.00000  Uiso   1.00
O319   O     0.12201   0.43064   0.28026   0.00000  Uiso   1.00
O320   O     0.21133   0.56936   0.05308   0.00000  Uiso   1.00
O321   O     0.16667   0.56011   0.12709   0.00000  Uiso   1.00
O322   O     0.16666   0.43988   0.12706   0.00000  Uiso   1.00
O323   O     0.16667   0.56012   0.20628   0.00000  Uiso   1.00
O324   O     0.09161   0.50000   0.19712   0.00000  Uiso   1.00
O325   O     0.24172   0.50000   0.13621   0.00000  Uiso   1.00
O326   O     0.09161   0.49999   0.11793   0.00000  Uiso   1.00
O327   O     0.24172   0.50001   0.21540   0.00000  Uiso   1.00
O328   O     0.31484   0.47106   0.11143   0.00000  Uiso   1.00
C329   C     0.50248   0.42113   0.16727   0.00000  Uiso   1.00
C330   C     0.49484   0.35310   0.20779   0.00000  Uiso   1.00
C331   C     0.49486   0.62336   0.16494   0.00000  Uiso   1.00
C332   C     0.50514   0.37664   0.16839   0.00000  Uiso   1.00
C333   C     0.47083   0.46820   0.02059   0.00000  Uiso   1.00
C334   C     0.52917   0.53180   0.31274   0.00000  Uiso   1.00
C335   C     0.47221   0.46777   0.30460   0.00000  Uiso   1.00
C336   C     0.52779   0.53223   0.02874   0.00000  Uiso   1.00
C337   C     0.66075   0.48480   0.06776   0.00000  Uiso   1.00
C338   C     0.33925   0.51519   0.26557   0.00000  Uiso   1.00
C339   C     0.58770   0.37785   0.09712   0.00000  Uiso   1.00
C340   C     0.49752   0.57887   0.16606   0.00000  Uiso   1.00
C341   C     0.41230   0.62214   0.23621   0.00000  Uiso   1.00
C342   C     0.45804   0.62663   0.05559   0.00000  Uiso   1.00
C343   C     0.54199   0.37341   0.27772   0.00000  Uiso   1.00
C344   C     0.44105   0.43129   0.04252   0.00000  Uiso   1.00
C345   C     0.39065   0.40832   0.01601   0.00000  Uiso   1.00
C346   C     0.55895   0.56871   0.29081   0.00000  Uiso   1.00
C347   C     0.60935   0.59168   0.31732   0.00000  Uiso   1.00
C348   C     0.40791   0.42987   0.25052   0.00000  Uiso   1.00
C349   C     0.59209   0.57013   0.08281   0.00000  Uiso   1.00
C350   C     0.40116   0.49916   0.15448   0.00000  Uiso   1.00
C351   C     0.59884   0.50084   0.17886   0.00000  Uiso   1.00
C352   C     0.34470   0.49461   0.14854   0.00000  Uiso   1.00
C353   C     0.65530   0.50538   0.18479   0.00000  Uiso   1.00
C354   C     0.51536   0.35656   0.12901   0.00000  Uiso   1.00
C355   C     0.48464   0.64344   0.20432   0.00000  Uiso   1.00
C356   C     0.50516   0.64690   0.12555   0.00000  Uiso   1.00
Cu357  Cu    0.50000   0.50001   0.21355   0.00000  Uiso   1.00
Cu358  Cu    0.50000   0.49999   0.11978   0.00000  Uiso   1.00
H359   H     0.35292   0.46533   0.05599   0.00000  Uiso   1.00
H360   H     0.39697   0.60351   0.26451   0.00000  Uiso   1.00
H361   H     0.39161   0.60837   0.20229   0.00000  Uiso   1.00
H362   H     0.40420   0.65404   0.24049   0.00000  Uiso   1.00
H363   H     0.45901   0.61128   0.02182   0.00000  Uiso   1.00
H364   H     0.44855   0.65804   0.04779   0.00000  Uiso   1.00
H365   H     0.42727   0.60795   0.07238   0.00000  Uiso   1.00
H366   H     0.55153   0.34201   0.28551   0.00000  Uiso   1.00
H367   H     0.54103   0.38875   0.31150   0.00000  Uiso   1.00
H368   H     0.57272   0.39212   0.26091   0.00000  Uiso   1.00
H369   H     0.36829   0.42955   0.32841   0.00000  Uiso   1.00
H370   H     0.34619   0.51765   0.06762   0.00000  Uiso   1.00
H371   H     0.39841   0.38273   0.32802   0.00000  Uiso   1.00
H372   H     0.36635   0.39318   0.04124   0.00000  Uiso   1.00
H373   H     0.46671   0.40816   0.05060   0.00000  Uiso   1.00
H374   H     0.42957   0.44178   0.07453   0.00000  Uiso   1.00
H375   H     0.60160   0.61727   0.00531   0.00000  Uiso   1.00
H376   H     0.63171   0.57045   0.00492   0.00000  Uiso   1.00
H377   H     0.63366   0.60681   0.29209   0.00000  Uiso   1.00
H378   H     0.57043   0.55822   0.25881   0.00000  Uiso   1.00
H379   H     0.53330   0.59184   0.28273   0.00000  Uiso   1.00
H380   H     0.41261   0.42767   0.21354   0.00000  Uiso   1.00
H381   H     0.62503   0.48088   0.04191   0.00000  Uiso   1.00
H382   H     0.38836   0.45592   0.25630   0.00000  Uiso   1.00
H383   H     0.38161   0.40102   0.25540   0.00000  Uiso   1.00
H384   H     0.61164   0.54408   0.07704   0.00000  Uiso   1.00
H385   H     0.58739   0.57233   0.11979   0.00000  Uiso   1.00
H386   H     0.61839   0.59898   0.07794   0.00000  Uiso   1.00
H387   H     0.65381   0.48234   0.26571   0.00000  Uiso   1.00
H388   H     0.64708   0.53466   0.27734   0.00000  Uiso   1.00
H389   H     0.37497   0.51911   0.29143   0.00000  Uiso   1.00
H390   H     0.60839   0.39162   0.13106   0.00000  Uiso   1.00
H391   H     0.60304   0.39648   0.06883   0.00000  Uiso   1.00
H392   H     0.59579   0.34596   0.09283   0.00000  Uiso   1.00
N393   N     0.50001   0.50001   0.28403   0.00000  Uiso   1.00
N394   N     0.49999   0.49999   0.04931   0.00000  Uiso   1.00
O395   O     0.50000   0.43989   0.20625   0.00000  Uiso   1.00
O396   O     0.35183   0.52893   0.22191   0.00000  Uiso   1.00
O397   O     0.53442   0.37874   0.09299   0.00000  Uiso   1.00
O398   O     0.46559   0.62126   0.24035   0.00000  Uiso   1.00
O399   O     0.50671   0.62852   0.08334   0.00000  Uiso   1.00
O400   O     0.49331   0.37148   0.25000   0.00000  Uiso   1.00
O401   O     0.45534   0.43064   0.28026   0.00000  Uiso   1.00
O402   O     0.54466   0.56936   0.05308   0.00000  Uiso   1.00
O403   O     0.50000   0.56011   0.12709   0.00000  Uiso   1.00
O404   O     0.50000   0.43988   0.12706   0.00000  Uiso   1.00
O405   O     0.50000   0.56012   0.20628   0.00000  Uiso   1.00
O406   O     0.42495   0.50000   0.19712   0.00000  Uiso   1.00
O407   O     0.57505   0.50000   0.13621   0.00000  Uiso   1.00
O408   O     0.42494   0.49999   0.11793   0.00000  Uiso   1.00
O409   O     0.57506   0.50001   0.21540   0.00000  Uiso   1.00
O410   O     0.64817   0.47106   0.11143   0.00000  Uiso   1.00
C411   C     0.83581   0.42113   0.16727   0.00000  Uiso   1.00
C412   C     0.82818   0.35310   0.20779   0.00000  Uiso   1.00
C413   C     0.82819   0.62336   0.16494   0.00000  Uiso   1.00
C414   C     0.83848   0.37664   0.16839   0.00000  Uiso   1.00
C415   C     0.80417   0.46820   0.02059   0.00000  Uiso   1.00
C416   C     0.86250   0.53180   0.31274   0.00000  Uiso   1.00
C417   C     0.80554   0.46777   0.30460   0.00000  Uiso   1.00
C418   C     0.86113   0.53223   0.02874   0.00000  Uiso   1.00
C419   C     0.99408   0.48480   0.06776   0.00000  Uiso   1.00
C420   C     0.67259   0.51519   0.26557   0.00000  Uiso   1.00
C421   C     0.92103   0.37785   0.09712   0.00000  Uiso   1.00
C422   C     0.83086   0.57887   0.16606   0.00000  Uiso   1.00
C423   C     0.74564   0.62214   0.23621   0.00000  Uiso   1.00
C424   C     0.79137   0.62663   0.05559   0.00000  Uiso   1.00
C425   C     0.87533   0.37341   0.27772   0.00000  Uiso   1.00
C426   C     0.77439   0.43129   0.04252   0.00000  Uiso   1.00
C427   C     0.72399   0.40832   0.01601   0.00000  Uiso   1.00
C428   C     0.89228   0.56871   0.29081   0.00000  Uiso   1.00
C429   C     0.94268   0.59168   0.31732   0.00000  Uiso   1.00
C430   C     0.74125   0.42987   0.25052   0.00000  Uiso   1.00
C431   C     0.92542   0.57013   0.08281   0.00000  Uiso   1.00
C432   C     0.73449   0.49916   0.15448   0.00000  Uiso   1.00
C433   C     0.93218   0.50084   0.17886   0.00000  Uiso   1.00
C434   C     0.67803   0.49461   0.14854   0.00000  Uiso   1.00
C435   C     0.98863   0.50538   0.18479   0.00000  Uiso   1.00
C436   C     0.84869   0.35656   0.12901   0.00000  Uiso   1.00
C437   C     0.81798   0.64344   0.20432   0.00000  Uiso   1.00
C438   C     0.83849   0.64690   0.12555   0.00000  Uiso   1.00
Cu439  Cu    0.83333   0.50001   0.21355   0.00000  Uiso   1.00
Cu440  Cu    0.83333   0.49999   0.11978   0.00000  Uiso   1.00
H441   H     0.68625   0.46533   0.05599   0.00000  Uiso   1.00
H442   H     0.73030   0.60351   0.26451   0.00000  Uiso   1.00
H443   H     0.72495   0.60837   0.20229   0.00000  Uiso   1.00
H444   H     0.73753   0.65404   0.24049   0.00000  Uiso   1.00
H445   H     0.79234   0.61128   0.02182   0.00000  Uiso   1.00
H446   H     0.78189   0.65804   0.04779   0.00000  Uiso   1.00
H447   H     0.76060   0.60795   0.07238   0.00000  Uiso   1.00
H448   H     0.88486   0.34201   0.28551   0.00000  Uiso   1.00
H449   H     0.87436   0.38875   0.31150   0.00000  Uiso   1.00
H450   H     0.90605   0.39212   0.26091   0.00000  Uiso   1.00
H451   H     0.70162   0.42955   0.32841   0.00000  Uiso   1.00
H452   H     0.67952   0.51765   0.06762   0.00000  Uiso   1.00
H453   H     0.73174   0.38273   0.32802   0.00000  Uiso   1.00
H454   H     0.69968   0.39318   0.04124   0.00000  Uiso   1.00
H455   H     0.80004   0.40816   0.05060   0.00000  Uiso   1.00
H456   H     0.76290   0.44178   0.07453   0.00000  Uiso   1.00
H457   H     0.93493   0.61727   0.00531   0.00000  Uiso   1.00
H458   H     0.96505   0.57045   0.00492   0.00000  Uiso   1.00
H459   H     0.96699   0.60681   0.29209   0.00000  Uiso   1.00
H460   H     0.90377   0.55822   0.25881   0.00000  Uiso   1.00
H461   H     0.86663   0.59184   0.28273   0.00000  Uiso   1.00
H462   H     0.74595   0.42767   0.21354   0.00000  Uiso   1.00
H463   H     0.95836   0.48088   0.04191   0.00000  Uiso   1.00
H464   H     0.72169   0.45592   0.25630   0.00000  Uiso   1.00
H465   H     0.71495   0.40102   0.25540   0.00000  Uiso   1.00
H466   H     0.94498   0.54408   0.07704   0.00000  Uiso   1.00
H467   H     0.92072   0.57233   0.11979   0.00000  Uiso   1.00
H468   H     0.95172   0.59898   0.07794   0.00000  Uiso   1.00
H469   H     0.98714   0.48234   0.26571   0.00000  Uiso   1.00
H470   H     0.98041   0.53466   0.27734   0.00000  Uiso   1.00
H471   H     0.70831   0.51911   0.29143   0.00000  Uiso   1.00
H472   H     0.94173   0.39162   0.13106   0.00000  Uiso   1.00
H473   H     0.93637   0.39648   0.06883   0.00000  Uiso   1.00
H474   H     0.92913   0.34596   0.09283   0.00000  Uiso   1.00
N475   N     0.83335   0.50001   0.28403   0.00000  Uiso   1.00
N476   N     0.83332   0.49999   0.04931   0.00000  Uiso   1.00
O477   O     0.83333   0.43989   0.20625   0.00000  Uiso   1.00
O478   O     0.68516   0.52893   0.22191   0.00000  Uiso   1.00
O479   O     0.86775   0.37874   0.09299   0.00000  Uiso   1.00
O480   O     0.79892   0.62126   0.24035   0.00000  Uiso   1.00
O481   O     0.84004   0.62852   0.08334   0.00000  Uiso   1.00
O482   O     0.82664   0.37148   0.25000   0.00000  Uiso   1.00
O483   O     0.78868   0.43064   0.28026   0.00000  Uiso   1.00
O484   O     0.87799   0.56936   0.05308   0.00000  Uiso   1.00
O485   O     0.83334   0.56011   0.12709   0.00000  Uiso   1.00
O486   O     0.83333   0.43988   0.12706   0.00000  Uiso   1.00
O487   O     0.83334   0.56012   0.20628   0.00000  Uiso   1.00
O488   O     0.75828   0.50000   0.19712   0.00000  Uiso   1.00
O489   O     0.90839   0.50000   0.13621   0.00000  Uiso   1.00
O490   O     0.75828   0.49999   0.11793   0.00000  Uiso   1.00
O491   O     0.90839   0.50001   0.21540   0.00000  Uiso   1.00
O492   O     0.98150   0.47106   0.11143   0.00000  Uiso   1.00
C493   C     0.16914   0.75446   0.16727   0.00000  Uiso   1.00
C494   C     0.16151   0.68643   0.20779   0.00000  Uiso   1.00
C495   C     0.16153   0.95670   0.16494   0.00000  Uiso   1.00
C496   C     0.17181   0.70997   0.16839   0.00000  Uiso   1.00
C497   C     0.13750   0.80153   0.02059   0.00000  Uiso   1.00
C498   C     0.19583   0.86513   0.31274   0.00000  Uiso   1.00
C499   C     0.13887   0.80110   0.30460   0.00000  Uiso   1.00
C500   C     0.19446   0.86556   0.02874   0.00000  Uiso   1.00
C501   C     0.32741   0.81814   0.06776   0.00000  Uiso   1.00
C502   C     0.00592   0.84853   0.26557   0.00000  Uiso   1.00
C503   C     0.25437   0.71119   0.09712   0.00000  Uiso   1.00
C504   C     0.16419   0.91221   0.16606   0.00000  Uiso   1.00
C505   C     0.07897   0.95548   0.23621   0.00000  Uiso   1.00
C506   C     0.12471   0.95996   0.05559   0.00000  Uiso   1.00
C507   C     0.20866   0.70674   0.27772   0.00000  Uiso   1.00
C508   C     0.10772   0.76462   0.04252   0.00000  Uiso   1.00
C509   C     0.05732   0.74165   0.01601   0.00000  Uiso   1.00
C510   C     0.22562   0.90205   0.29081   0.00000  Uiso   1.00
C511   C     0.27601   0.92501   0.31732   0.00000  Uiso   1.00
C512   C     0.07458   0.76320   0.25052   0.00000  Uiso   1.00
C513   C     0.25875   0.90346   0.08281   0.00000  Uiso   1.00
C514   C     0.06782   0.83250   0.15448   0.00000  Uiso   1.00
C515   C     0.26551   0.83417   0.17886   0.00000  Uiso   1.00
C516   C     0.01137   0.82795   0.14854   0.00000  Uiso   1.00
C517   C     0.32197   0.83872   0.18479   0.00000  Uiso   1.00
C518   C     0.18203   0.68989   0.12901   0.00000  Uiso   1.00
C519   C     0.15131   0.97678   0.20432   0.00000  Uiso   1.00
C520   C     0.17183   0.98023   0.12555   0.00000  Uiso   1.00
Cu521  Cu    0.16667   0.83334   0.21355   0.00000  Uiso   1.00
Cu522  Cu    0.16667   0.83333   0.11978   0.00000  Uiso   1.00
H523   H     0.01959   0.79866   0.05599   0.00000  Uiso   1.00
H524   H     0.06363   0.93685   0.26451   0.00000  Uiso   1.00
H525   H     0.05828   0.94170   0.20229   0.00000  Uiso   1.00
H526   H     0.07087   0.98737   0.24049   0.00000  Uiso   1.00
H527   H     0.12567   0.94461   0.02182   0.00000  Uiso   1.00
H528   H     0.11522   0.99137   0.04779   0.00000  Uiso   1.00
H529   H     0.09394   0.94128   0.07238   0.00000  Uiso   1.00
H530   H     0.21820   0.67535   0.28551   0.00000  Uiso   1.00
H531   H     0.20770   0.72208   0.31150   0.00000  Uiso   1.00
H532   H     0.23939   0.72546   0.26091   0.00000  Uiso   1.00
H533   H     0.03496   0.76288   0.32841   0.00000  Uiso   1.00
H534   H     0.01286   0.85098   0.06762   0.00000  Uiso   1.00
H535   H     0.06507   0.71606   0.32802   0.00000  Uiso   1.00
H536   H     0.03301   0.72652   0.04124   0.00000  Uiso   1.00
H537   H     0.13337   0.74149   0.05060   0.00000  Uiso   1.00
H538   H     0.09623   0.77512   0.07453   0.00000  Uiso   1.00
H539   H     0.26826   0.95060   0.00531   0.00000  Uiso   1.00
H540   H     0.29838   0.90378   0.00492   0.00000  Uiso   1.00
H541   H     0.30032   0.94015   0.29209   0.00000  Uiso   1.00
H542   H     0.23710   0.89155   0.25881   0.00000  Uiso   1.00
H543   H     0.19996   0.92517   0.28273   0.00000  Uiso   1.00
H544   H     0.07928   0.76100   0.21354   0.00000  Uiso   1.00
H545   H     0.29169   0.81421   0.04191   0.00000  Uiso   1.00
H546   H     0.05502   0.78925   0.25630   0.00000  Uiso   1.00
H547   H     0.04828   0.73435   0.25540   0.00000  Uiso   1.00
H548   H     0.27831   0.87741   0.07704   0.00000  Uiso   1.00
H549   H     0.25405   0.90567   0.11979   0.00000  Uiso   1.00
H550   H     0.28506   0.93231   0.07794   0.00000  Uiso   1.00
H551   H     0.32047   0.81568   0.26571   0.00000  Uiso   1.00
H552   H     0.31374   0.86800   0.27734   0.00000  Uiso   1.00
H553   H     0.04164   0.85245   0.29143   0.00000  Uiso   1.00
H554   H     0.27506   0.72495   0.13106   0.00000  Uiso   1.00
H555   H     0.26971   0.72982   0.06883   0.00000  Uiso   1.00
H556   H     0.26246   0.67929   0.09283   0.00000  Uiso   1.00
N557   N     0.16668   0.83334   0.28403   0.00000  Uiso   1.00
N558   N     0.16665   0.83332   0.04931   0.00000  Uiso   1.00
O559   O     0.16666   0.77322   0.20625   0.00000  Uiso   1.00
O560   O     0.01850   0.86227   0.22191   0.00000  Uiso   1.00
O561   O     0.20109   0.71207   0.09299   0.00000  Uiso   1.00
O562   O     0.13225   0.95460   0.24035   0.00000  Uiso   1.00
O563   O     0.17337   0.96186   0.08334   0.00000  Uiso   1.00
O564   O     0.15997   0.70481   0.25000   0.00000  Uiso   1.00
O565   O     0.12201   0.76397   0.28026   0.00000  Uiso   1.00
O566   O     0.21133   0.90270   0.05308   0.00000  Uiso   1.00
O567   O     0.16667   0.89345   0.12709   0.00000  Uiso   1.00
O568   O     0.16666   0.77321   0.12706   0.00000  Uiso   1.00
O569   O     0.16667   0.89346   0.20628   0.00000  Uiso   1.00
O570   O     0.09161   0.83334   0.19712   0.00000  Uiso   1.00
O571   O     0.24172   0.83333   0.13621   0.00000  Uiso   1.00
O572   O     0.09161   0.83333   0.11793   0.00000  Uiso   1.00
O573   O     0.24172   0.83334   0.21540   0.00000  Uiso   1.00
O574   O     0.31484   0.80440   0.11143   0.00000  Uiso   1.00
C575   C     0.50248   0.75446   0.16727   0.00000  Uiso   1.00
C576   C     0.49484   0.68643   0.20779   0.00000  Uiso   1.00
C577   C     0.49486   0.95670   0.16494   0.00000  Uiso   1.00
C578   C     0.50514   0.70997   0.16839   0.00000  Uiso   1.00
C579   C     0.47083   0.80153   0.02059   0.00000  Uiso   1.00
C580   C     0.52917   0.86513   0.31274   0.00000  Uiso   1.00
C581   C     0.47221   0.80110   0.30460   0.00000  Uiso   1.00
C582   C     0.52779   0.86556   0.02874   0.00000  Uiso   1.00
C583   C     0.66075   0.81814   0.06776   0.00000  Uiso   1.00
C584   C     0.33925   0.84853   0.26557   0.00000  Uiso   1.00
C585   C     0.58770   0.71119   0.09712   0.00000  Uiso   1.00
C586   C     0.49752   0.91221   0.16606   0.00000  Uiso   1.00
C587   C     0.41230   0.95548   0.23621   0.00000  Uiso   1.00
C588   C     0.45804   0.95996   0.05559   0.00000  Uiso   1.00
C589   C     0.54199   0.70674   0.27772   0.00000  Uiso   1.00
C590   C     0.44105   0.76462   0.04252   0.00000  Uiso   1.00
C591   C     0.39065   0.74165   0.01601   0.00000  Uiso   1.00
C592   C     0.55895   0.90205   0.29081   0.00000  Uiso   1.00
C593   C     0.60935   0.92501   0.31732   0.00000  Uiso   1.00
C594   C     0.40791   0.76320   0.25052   0.00000  Uiso   1.00
C595   C     0.59209   0.90346   0.08281   0.00000  Uiso   1.00
C596   C     0.40116   0.83250   0.15448   0.00000  Uiso   1.00
C597   C     0.59884   0.83417   0.17886   0.00000  Uiso   1.00
C598   C     0.34470   0.82795   0.14854   0.00000  Uiso   1.00
C599   C     0.65530   0.83872   0.18479   0.00000  Uiso   1.00
C600   C     0.51536   0.68989   0.12901   0.00000  Uiso   1.00
C601   C     0.48464   0.97678   0.20432   0.00000  Uiso   1.00
C602   C     0.50516   0.98023   0.12555   0.00000  Uiso   1.00
Cu603  Cu    0.50000   0.83334   0.21355   0.00000  Uiso   1.00
Cu604  Cu    0.50000   0.83333   0.11978   0.00000  Uiso   1.00
H605   H     0.35292   0.79866   0.05599   0.00000  Uiso   1.00
H606   H     0.39697   0.93685   0.26451   0.00000  Uiso   1.00
H607   H     0.39161   0.94170   0.20229   0.00000  Uiso   1.00
H608   H     0.40420   0.98737   0.24049   0.00000  Uiso   1.00
H609   H     0.45901   0.94461   0.02182   0.00000  Uiso   1.00
H610   H     0.44855   0.99137   0.04779   0.00000  Uiso   1.00
H611   H     0.42727   0.94128   0.07238   0.00000  Uiso   1.00
H612   H     0.55153   0.67535   0.28551   0.00000  Uiso   1.00
H613   H     0.54103   0.72208   0.31150   0.00000  Uiso   1.00
H614   H     0.57272   0.72546   0.26091   0.00000  Uiso   1.00
H615   H     0.36829   0.76288   0.32841   0.00000  Uiso   1.00
H616   H     0.34619   0.85098   0.06762   0.00000  Uiso   1.00
H617   H     0.39841   0.71606   0.32802   0.00000  Uiso   1.00
H618   H     0.36635   0.72652   0.04124   0.00000  Uiso   1.00
H619   H     0.46671   0.74149   0.05060   0.00000  Uiso   1.00
H620   H     0.42957   0.77512   0.07453   0.00000  Uiso   1.00
H621   H     0.60160   0.95060   0.00531   0.00000  Uiso   1.00
H622   H     0.63171   0.90378   0.00492   0.00000  Uiso   1.00
H623   H     0.63366   0.94015   0.29209   0.00000  Uiso   1.00
H624   H     0.57043   0.89155   0.25881   0.00000  Uiso   1.00
H625   H     0.53330   0.92517   0.28273   0.00000  Uiso   1.00
H626   H     0.41261   0.76100   0.21354   0.00000  Uiso   1.00
H627   H     0.62503   0.81421   0.04191   0.00000  Uiso   1.00
H628   H     0.38836   0.78925   0.25630   0.00000  Uiso   1.00
H629   H     0.38161   0.73435   0.25540   0.00000  Uiso   1.00
H630   H     0.61164   0.87741   0.07704   0.00000  Uiso   1.00
H631   H     0.58739   0.90567   0.11979   0.00000  Uiso   1.00
H632   H     0.61839   0.93231   0.07794   0.00000  Uiso   1.00
H633   H     0.65381   0.81568   0.26571   0.00000  Uiso   1.00
H634   H     0.64708   0.86800   0.27734   0.00000  Uiso   1.00
H635   H     0.37497   0.85245   0.29143   0.00000  Uiso   1.00
H636   H     0.60839   0.72495   0.13106   0.00000  Uiso   1.00
H637   H     0.60304   0.72982   0.06883   0.00000  Uiso   1.00
H638   H     0.59579   0.67929   0.09283   0.00000  Uiso   1.00
N639   N     0.50001   0.83334   0.28403   0.00000  Uiso   1.00
N640   N     0.49999   0.83332   0.04931   0.00000  Uiso   1.00
O641   O     0.50000   0.77322   0.20625   0.00000  Uiso   1.00
O642   O     0.35183   0.86227   0.22191   0.00000  Uiso   1.00
O643   O     0.53442   0.71207   0.09299   0.00000  Uiso   1.00
O644   O     0.46559   0.95460   0.24035   0.00000  Uiso   1.00
O645   O     0.50671   0.96186   0.08334   0.00000  Uiso   1.00
O646   O     0.49331   0.70481   0.25000   0.00000  Uiso   1.00
O647   O     0.45534   0.76397   0.28026   0.00000  Uiso   1.00
O648   O     0.54466   0.90270   0.05308   0.00000  Uiso   1.00
O649   O     0.50000   0.89345   0.12709   0.00000  Uiso   1.00
O650   O     0.50000   0.77321   0.12706   0.00000  Uiso   1.00
O651   O     0.50000   0.89346   0.20628   0.00000  Uiso   1.00
O652   O     0.42495   0.83334   0.19712   0.00000  Uiso   1.00
O653   O     0.57505   0.83333   0.13621   0.00000  Uiso   1.00
O654   O     0.42494   0.83333   0.11793   0.00000  Uiso   1.00
O655   O     0.57506   0.83334   0.21540   0.00000  Uiso   1.00
O656   O     0.64817   0.80440   0.11143   0.00000  Uiso   1.00
C657   C     0.83581   0.75446   0.16727   0.00000  Uiso   1.00
C658   C     0.82818   0.68643   0.20779   0.00000  Uiso   1.00
C659   C     0.82819   0.95670   0.16494   0.00000  Uiso   1.00
C660   C     0.83848   0.70997   0.16839   0.00000  Uiso   1.00
C661   C     0.80417   0.80153   0.02059   0.00000  Uiso   1.00
C662   C     0.86250   0.86513   0.31274   0.00000  Uiso   1.00
C663   C     0.80554   0.80110   0.30460   0.00000  Uiso   1.00
C664   C     0.86113   0.86556   0.02874   0.00000  Uiso   1.00
C665   C     0.99408   0.81814   0.06776   0.00000  Uiso   1.00
C666   C     0.67259   0.84853   0.26557   0.00000  Uiso   1.00
C667   C     0.92103   0.71119   0.09712   0.00000  Uiso   1.00
C668   C     0.83086   0.91221   0.16606   0.00000  Uiso   1.00
C669   C     0.74564   0.95548   0.23621   0.00000  Uiso   1.00
C670   C     0.79137   0.95996   0.05559   0.00000  Uiso   1.00
C671   C     0.87533   0.70674   0.27772   0.00000  Uiso   1.00
C672   C     0.77439   0.76462   0.04252   0.00000  Uiso   1.00
C673   C     0.72399   0.74165   0.01601   0.00000  Uiso   1.00
C674   C     0.89228   0.90205   0.29081   0.00000  Uiso   1.00
C675   C     0.94268   0.92501   0.31732   0.00000  Uiso   1.00
C676   C     0.74125   0.76320   0.25052   0.00000  Uiso   1.00
C677   C     0.92542   0.90346   0.08281   0.00000  Uiso   1.00
C678   C     0.73449   0.83250   0.15448   0.00000  Uiso   1.00
C679   C     0.93218   0.83417   0.17886   0.00000  Uiso   1.00
C680   C     0.67803   0.82795   0.14854   0.00000  Uiso   1.00
C681   C     0.98863   0.83872   0.18479   0.00000  Uiso   1.00
C682   C     0.84869   0.68989   0.12901   0.00000  Uiso   1.00
C683   C     0.81798   0.97678   0.20432   0.00000  Uiso   1.00
C684   C     0.83849   0.98023   0.12555   0.00000  Uiso   1.00
Cu685  Cu    0.83333   0.83334   0.21355   0.00000  Uiso   1.00
Cu686  Cu    0.83333   0.83333   0.11978   0.00000  Uiso   1.00
H687   H     0.68625   0.79866   0.05599   0.00000  Uiso   1.00
H688   H     0.73030   0.93685   0.26451   0.00000  Uiso   1.00
H689   H     0.72495   0.94170   0.20229   0.00000  Uiso   1.00
H690   H     0.73753   0.98737   0.24049   0.00000  Uiso   1.00
H691   H     0.79234   0.94461   0.02182   0.00000  Uiso   1.00
H692   H     0.78189   0.99137   0.04779   0.00000  Uiso   1.00
H693   H     0.76060   0.94128   0.07238   0.00000  Uiso   1.00
H694   H     0.88486   0.67535   0.28551   0.00000  Uiso   1.00
H695   H     0.87436   0.72208   0.31150   0.00000  Uiso   1.00
H696   H     0.90605   0.72546   0.26091   0.00000  Uiso   1.00
H697   H     0.70162   0.76288   0.32841   0.00000  Uiso   1.00
H698   H     0.67952   0.85098   0.06762   0.00000  Uiso   1.00
H699   H     0.73174   0.71606   0.32802   0.00000  Uiso   1.00
H700   H     0.69968   0.72652   0.04124   0.00000  Uiso   1.00
H701   H     0.80004   0.74149   0.05060   0.00000  Uiso   1.00
H702   H     0.76290   0.77512   0.07453   0.00000  Uiso   1.00
H703   H     0.93493   0.95060   0.00531   0.00000  Uiso   1.00
H704   H     0.96505   0.90378   0.00492   0.00000  Uiso   1.00
H705   H     0.96699   0.94015   0.29209   0.00000  Uiso   1.00
H706   H     0.90377   0.89155   0.25881   0.00000  Uiso   1.00
H707   H     0.86663   0.92517   0.28273   0.00000  Uiso   1.00
H708   H     0.74595   0.76100   0.21354   0.00000  Uiso   1.00
H709   H     0.95836   0.81421   0.04191   0.00000  Uiso   1.00
H710   H     0.72169   0.78925   0.25630   0.00000  Uiso   1.00
H711   H     0.71495   0.73435   0.25540   0.00000  Uiso   1.00
H712   H     0.94498   0.87741   0.07704   0.00000  Uiso   1.00
H713   H     0.92072   0.90567   0.11979   0.00000  Uiso   1.00
H714   H     0.95172   0.93231   0.07794   0.00000  Uiso   1.00
H715   H     0.98714   0.81568   0.26571   0.00000  Uiso   1.00
H716   H     0.98041   0.86800   0.27734   0.00000  Uiso   1.00
H717   H     0.70831   0.85245   0.29143   0.00000  Uiso   1.00
H718   H     0.94173   0.72495   0.13106   0.00000  Uiso   1.00
H719   H     0.93637   0.72982   0.06883   0.00000  Uiso   1.00
H720   H     0.92913   0.67929   0.09283   0.00000  Uiso   1.00
N721   N     0.83335   0.83334   0.28403   0.00000  Uiso   1.00
N722   N     0.83332   0.83332   0.04931   0.00000  Uiso   1.00
O723   O     0.83333   0.77322   0.20625   0.00000  Uiso   1.00
O724   O     0.68516   0.86227   0.22191   0.00000  Uiso   1.00
O725   O     0.86775   0.71207   0.09299   0.00000  Uiso   1.00
O726   O     0.79892   0.95460   0.24035   0.00000  Uiso   1.00
O727   O     0.84004   0.96186   0.08334   0.00000  Uiso   1.00
O728   O     0.82664   0.70481   0.25000   0.00000  Uiso   1.00
O729   O     0.78868   0.76397   0.28026   0.00000  Uiso   1.00
O730   O     0.87799   0.90270   0.05308   0.00000  Uiso   1.00
O731   O     0.83334   0.89345   0.12709   0.00000  Uiso   1.00
O732   O     0.83333   0.77321   0.12706   0.00000  Uiso   1.00
O733   O     0.83334   0.89346   0.20628   0.00000  Uiso   1.00
O734   O     0.75828   0.83334   0.19712   0.00000  Uiso   1.00
O735   O     0.90839   0.83333   0.13621   0.00000  Uiso   1.00
O736   O     0.75828   0.83333   0.11793   0.00000  Uiso   1.00
O737   O     0.90839   0.83334   0.21540   0.00000  Uiso   1.00
O738   O     0.98150   0.80440   0.11143   0.00000  Uiso   1.00
C739   C     0.16914   0.08779   0.50060   0.00000  Uiso   1.00
C740   C     0.16151   0.01977   0.54112   0.00000  Uiso   1.00
C741   C     0.16153   0.29003   0.49827   0.00000  Uiso   1.00
C742   C     0.17181   0.04330   0.50173   0.00000  Uiso   1.00
C743   C     0.13750   0.13487   0.35392   0.00000  Uiso   1.00
C744   C     0.19583   0.19847   0.64608   0.00000  Uiso   1.00
C745   C     0.13887   0.13444   0.63793   0.00000  Uiso   1.00
C746   C     0.19446   0.19890   0.36207   0.00000  Uiso   1.00
C747   C     0.32741   0.15147   0.40109   0.00000  Uiso   1.00
C748   C     0.00592   0.18186   0.59891   0.00000  Uiso   1.00
C749   C     0.25437   0.04452   0.43046   0.00000  Uiso   1.00
C750   C     0.16419   0.24554   0.49940   0.00000  Uiso   1.00
C751   C     0.07897   0.28881   0.56955   0.00000  Uiso   1.00
C752   C     0.12471   0.29330   0.38892   0.00000  Uiso   1.00
C753   C     0.20866   0.04007   0.61105   0.00000  Uiso   1.00
C754   C     0.10772   0.09795   0.37585   0.00000  Uiso   1.00
C755   C     0.05732   0.07498   0.34935   0.00000  Uiso   1.00
C756   C     0.22562   0.23538   0.62415   0.00000  Uiso   1.00
C757   C     0.27601   0.25835   0.65065   0.00000  Uiso   1.00
C758   C     0.07458   0.09654   0.58386   0.00000  Uiso   1.00
C759   C     0.25875   0.23680   0.41614   0.00000  Uiso   1.00
C760   C     0.06782   0.16583   0.48781   0.00000  Uiso   1.00
C761   C     0.26551   0.16750   0.51219   0.00000  Uiso   1.00
C762   C     0.01137   0.16128   0.48187   0.00000  Uiso   1.00
C763   C     0.32197   0.17205   0.51813   0.00000  Uiso   1.00
C764   C     0.18203   0.02322   0.46234   0.00000  Uiso   1.00
C765   C     0.15131   0.31011   0.53766   0.00000  Uiso   1.00
C766   C     0.17183   0.31357   0.45888   0.00000  Uiso   1.00
Cu767  Cu    0.16667   0.16667   0.54689   0.00000  Uiso   1.00
Cu768  Cu    0.16667   0.16666   0.45311   0.00000  Uiso   1.00
H769   H     0.01959   0.13200   0.38933   0.00000  Uiso   1.00
H770   H     0.06363   0.27018   0.59785   0.00000  Uiso   1.00
H771   H     0.05828   0.27504   0.53562   0.00000  Uiso   1.00
H772   H     0.07087   0.32070   0.57383   0.00000  Uiso   1.00
H773   H     0.12567   0.27794   0.35516   0.00000  Uiso   1.00
H774   H     0.11522   0.32471   0.38112   0.00000  Uiso   1.00
H775   H     0.09394   0.27461   0.40572   0.00000  Uiso   1.00
H776   H     0.21820   0.00868   0.61884   0.00000  Uiso   1.00
H777   H     0.20770   0.05541   0.64483   0.00000  Uiso   1.00
H778   H     0.23939   0.05879   0.59425   0.00000  Uiso   1.00
H779   H     0.03496   0.09622   0.66174   0.00000  Uiso   1.00
H780   H     0.01286   0.18432   0.40096   0.00000  Uiso   1.00
H781   H     0.06507   0.04940   0.66136   0.00000  Uiso   1.00
H782   H     0.03301   0.05985   0.37458   0.00000  Uiso   1.00
H783   H     0.13337   0.07483   0.38394   0.00000  Uiso   1.00
H784   H     0.09623   0.10845   0.40786   0.00000  Uiso   1.00
H785   H     0.26826   0.28393   0.33864   0.00000  Uiso   1.00
H786   H     0.29838   0.23711   0.33826   0.00000  Uiso   1.00
H787   H     0.30032   0.27348   0.62542   0.00000  Uiso   1.00
H788   H     0.23710   0.22488   0.59214   0.00000  Uiso   1.00
H789   H     0.19996   0.25851   0.61606   0.00000  Uiso   1.00
H790   H     0.07928   0.09433   0.54687   0.00000  Uiso   1.00
H791   H     0.29169   0.14755   0.37524   0.00000  Uiso   1.00
H792   H     0.05502   0.12259   0.58963   0.00000  Uiso   1.00
H793   H     0.04828   0.06769   0.58873   0.00000  Uiso   1.00
H794   H     0.27831   0.21074   0.41037   0.00000  Uiso   1.00
H795   H     0.25405   0.23900   0.45313   0.00000  Uiso   1.00
H796   H     0.28506   0.26564   0.41127   0.00000  Uiso   1.00
H797   H     0.32047   0.14901   0.59904   0.00000  Uiso   1.00
H798   H     0.31374   0.20133   0.61067   0.00000  Uiso   1.00
H799   H     0.04164   0.18578   0.62476   0.00000  Uiso   1.00
H800   H     0.27506   0.05828   0.46439   0.00000  Uiso   1.00
H801   H     0.26971   0.06315   0.40216   0.00000  Uiso   1.00
H802   H     0.26246   0.01262   0.42617   0.00000  Uiso   1.00
N803   N     0.16668   0.16668   0.61736   0.00000  Uiso   1.00
N804   N     0.16665   0.16666   0.38264   0.00000  Uiso   1.00
O805   O     0.16666   0.10655   0.53958   0.00000  Uiso   1.00
O806   O     0.01850   0.19560   0.55524   0.00000  Uiso   1.00
O807   O     0.20109   0.04541   0.42633   0.00000  Uiso   1.00
O808   O     0.13225   0.28793   0.57368   0.00000  Uiso   1.00
O809   O     0.17337   0.29519   0.41667   0.00000  Uiso   1.00
O810   O     0.15997   0.03814   0.58333   0.00000  Uiso   1.00
O811   O     0.12201   0.09730   0.61359   0.00000  Uiso   1.00
O812   O     0.21133   0.23603   0.38641   0.00000  Uiso   1.00
O813   O     0.16667   0.22678   0.46042   0.00000  Uiso   1.00
O814   O     0.16666   0.10654   0.46039   0.00000  Uiso   1.00
O815   O     0.16667   0.22679   0.53961   0.00000  Uiso   1.00
O816   O     0.09161   0.16667   0.53046   0.00000  Uiso   1.00
O817   O     0.24172   0.16666   0.46954   0.00000  Uiso   1.00
O818   O     0.09161   0.16666   0.45127   0.00000  Uiso   1.00
O819   O     0.24172   0.16667   0.54873   0.00000  Uiso   1.00
O820   O     0.31484   0.13773   0.44476   0.00000  Uiso   1.00
C821   C     0.50248   0.08779   0.50060   0.00000  Uiso   1.00
C822   C     0.49484   0.01977   0.54112   0.00000  Uiso   1.00
C823   C     0.49486   0.29003   0.49827   0.00000  Uiso   1.00
C824   C     0.50514   0.04330   0.50173   0.00000  Uiso   1.00
C825   C     0.47083   0.13487   0.35392   0.00000  Uiso   1.00
C826   C     0.52917   0.19847   0.64608   0.00000  Uiso   1.00
C827   C     0.47221   0.13444   0.63793   0.00000  Uiso   1.00
C828   C     0.52779   0.19890   0.36207   0.00000  Uiso   1.00
C829   C     0.66075   0.15147   0.40109   0.00000  Uiso   1.00
C830   C     0.33925   0.18186   0.59891   0.00000  Uiso   1.00
C831   C     0.58770   0.04452   0.43046   0.00000  Uiso   1.00
C832   C     0.49752   0.24554   0.49940   0.00000  Uiso   1.00
C833   C     0.41230   0.28881   0.56955   0.00000  Uiso   1.00
C834   C     0.45804   0.29330   0.38892   0.00000  Uiso   1.00
C835   C     0.54199   0.04007   0.61105   0.00000  Uiso   1.00
C836   C     0.44105   0.09795   0.37585   0.00000  Uiso   1.00
C837   C     0.39065   0.07498   0.34935   0.00000  Uiso   1.00
C838   C     0.55895   0.23538   0.62415   0.00000  Uiso   1.00
C839   C     0.60935   0.25835   0.65065   0.00000  Uiso   1.00
C840   C     0.40791   0.09654   0.58386   0.00000  Uiso   1.00
C841   C     0.59209   0.23680   0.41614   0.00000  Uiso   1.00
C842   C     0.40116   0.16583   0.48781   0.00000  Uiso   1.00
C843   C     0.59884   0.16750   0.51219   0.00000  Uiso   1.00
C844   C     0.34470   0.16128   0.48187   0.00000  Uiso   1.00
C845   C     0.65530   0.17205   0.51813   0.00000  Uiso   1.00
C846   C     0.51536   0.02322   0.46234   0.00000  Uiso   1.00
C847   C     0.48464   0.31011   0.53766   0.00000  Uiso   1.00
C848   C     0.50516   0.31357   0.45888   0.00000  Uiso   1.00
Cu849  Cu    0.50000   0.16667   0.54689   0.00000  Uiso   1.00
Cu850  Cu    0.50000   0.16666   0.45311   0.00000  Uiso   1.00
H851   H     0.35292   0.13200   0.38933   0.00000  Uiso   1.00
H852   H     0.39697   0.27018   0.59785   0.00000  Uiso   1.00
H853   H     0.39161   0.27504   0.53562   0.00000  Uiso   1.00
H854   H     0.40420   0.32070   0.57383   0.00000  Uiso   1.00
H855   H     0.45901   0.27794   0.35516   0.00000  Uiso   1.00
H856   H     0.44855   0.32471   0.38112   0.00000  Uiso   1.00
H857   H     0.42727   0.27461   0.40572   0.00000  Uiso   1.00
H858   H     0.55153   0.00868   0.61884   0.00000  Uiso   1.00
H859   H     0.54103   0.05541   0.64483   0.00000  Uiso   1.00
H860   H     0.57272   0.05879   0.59425   0.00000  Uiso   1.00
H861   H     0.36829   0.09622   0.66174   0.00000  Uiso   1.00
H862   H     0.34619   0.18432   0.40096   0.00000  Uiso   1.00
H863   H     0.39841   0.04940   0.66136   0.00000  Uiso   1.00
H864   H     0.36635   0.05985   0.37458   0.00000  Uiso   1.00
H865   H     0.46671   0.07483   0.38394   0.00000  Uiso   1.00
H866   H     0.42957   0.10845   0.40786   0.00000  Uiso   1.00
H867   H     0.60160   0.28393   0.33864   0.00000  Uiso   1.00
H868   H     0.63171   0.23711   0.33826   0.00000  Uiso   1.00
H869   H     0.63366   0.27348   0.62542   0.00000  Uiso   1.00
H870   H     0.57043   0.22488   0.59214   0.00000  Uiso   1.00
H871   H     0.53330   0.25851   0.61606   0.00000  Uiso   1.00
H872   H     0.41261   0.09433   0.54687   0.00000  Uiso   1.00
H873   H     0.62503   0.14755   0.37524   0.00000  Uiso   1.00
H874   H     0.38836   0.12259   0.58963   0.00000  Uiso   1.00
H875   H     0.38161   0.06769   0.58873   0.00000  Uiso   1.00
H876   H     0.61164   0.21074   0.41037   0.00000  Uiso   1.00
H877   H     0.58739   0.23900   0.45313   0.00000  Uiso   1.00
H878   H     0.61839   0.26564   0.41127   0.00000  Uiso   1.00
H879   H     0.65381   0.14901   0.59904   0.00000  Uiso   1.00
H880   H     0.64708   0.20133   0.61067   0.00000  Uiso   1.00
H881   H     0.37497   0.18578   0.62476   0.00000  Uiso   1.00
H882   H     0.60839   0.05828   0.46439   0.00000  Uiso   1.00
H883   H     0.60304   0.06315   0.40216   0.00000  Uiso   1.00
H884   H     0.59579   0.01262   0.42617   0.00000  Uiso   1.00
N885   N     0.50001   0.16668   0.61736   0.00000  Uiso   1.00
N886   N     0.49999   0.16666   0.38264   0.00000  Uiso   1.00
O887   O     0.50000   0.10655   0.53958   0.00000  Uiso   1.00
O888   O     0.35183   0.19560   0.55524   0.00000  Uiso   1.00
O889   O     0.53442   0.04541   0.42633   0.00000  Uiso   1.00
O890   O     0.46559   0.28793   0.57368   0.00000  Uiso   1.00
O891   O     0.50671   0.29519   0.41667   0.00000  Uiso   1.00
O892   O     0.49331   0.03814   0.58333   0.00000  Uiso   1.00
O893   O     0.45534   0.09730   0.61359   0.00000  Uiso   1.00
O894   O     0.54466   0.23603   0.38641   0.00000  Uiso   1.00
O895   O     0.50000   0.22678   0.46042   0.00000  Uiso   1.00
O896   O     0.50000   0.10654   0.46039   0.00000  Uiso   1.00
O897   O     0.50000   0.22679   0.53961   0.00000  Uiso   1.00
O898   O     0.42495   0.16667   0.53046   0.00000  Uiso   1.00
O899   O     0.57505   0.16666   0.46954   0.00000  Uiso   1.00
O900   O     0.42494   0.16666   0.45127   0.00000  Uiso   1.00
O901   O     0.57506   0.16667   0.54873   0.00000  Uiso   1.00
O902   O     0.64817   0.13773   0.44476   0.00000  Uiso   1.00
C903   C     0.83581   0.08779   0.50060   0.00000  Uiso   1.00
C904   C     0.82818   0.01977   0.54112   0.00000  Uiso   1.00
C905   C     0.82819   0.29003   0.49827   0.00000  Uiso   1.00
C906   C     0.83848   0.04330   0.50173   0.00000  Uiso   1.00
C907   C     0.80417   0.13487   0.35392   0.00000  Uiso   1.00
C908   C     0.86250   0.19847   0.64608   0.00000  Uiso   1.00
C909   C     0.80554   0.13444   0.63793   0.00000  Uiso   1.00
C910   C     0.86113   0.19890   0.36207   0.00000  Uiso   1.00
C911   C     0.99408   0.15147   0.40109   0.00000  Uiso   1.00
C912   C     0.67259   0.18186   0.59891   0.00000  Uiso   1.00
C913   C     0.92103   0.04452   0.43046   0.00000  Uiso   1.00
C914   C     0.83086   0.24554   0.49940   0.00000  Uiso   1.00
C915   C     0.74564   0.28881   0.56955   0.00000  Uiso   1.00
C916   C     0.79137   0.29330   0.38892   0.00000  Uiso   1.00
C917   C     0.87533   0.04007   0.61105   0.00000  Uiso   1.00
C918   C     0.77439   0.09795   0.37585   0.00000  Uiso   1.00
C919   C     0.72399   0.07498   0.34935   0.00000  Uiso   1.00
C920   C     0.89228   0.23538   0.62415   0.00000  Uiso   1.00
C921   C     0.94268   0.25835   0.65065   0.00000  Uiso   1.00
C922   C     0.74125   0.09654   0.58386   0.00000  Uiso   1.00
C923   C     0.92542   0.23680   0.41614   0.00000  Uiso   1.00
C924   C     0.73449   0.16583   0.48781   0.00000  Uiso   1.00
C925   C     0.93218   0.16750   0.51219   0.00000  Uiso   1.00
C926   C     0.67803   0.16128   0.48187   0.00000  Uiso   1.00
C927   C     0.98863   0.17205   0.51813   0.00000  Uiso   1.00
C928   C     0.84869   0.02322   0.46234   0.00000  Uiso   1.00
C929   C     0.81798   0.31011   0.53766   0.00000  Uiso   1.00
C930   C     0.83849   0.31357   0.45888   0.00000  Uiso   1.00
Cu931  Cu    0.83333   0.16667   0.54689   0.00000  Uiso   1.00
Cu932  Cu    0.83333   0.16666   0.45311   0.00000  Uiso   1.00
H933   H     0.68625   0.13200   0.38933   0.00000  Uiso   1.00
H934   H     0.73030   0.27018   0.59785   0.00000  Uiso   1.00
H935   H     0.72495   0.27504   0.53562   0.00000  Uiso   1.00
H936   H     0.73753   0.32070   0.57383   0.00000  Uiso   1.00
H937   H     0.79234   0.27794   0.35516   0.00000  Uiso   1.00
H938   H     0.78189   0.32471   0.38112   0.00000  Uiso   1.00
H939   H     0.76060   0.27461   0.40572   0.00000  Uiso   1.00
H940   H     0.88486   0.00868   0.61884   0.00000  Uiso   1.00
H941   H     0.87436   0.05541   0.64483   0.00000  Uiso   1.00
H942   H     0.90605   0.05879   0.59425   0.00000  Uiso   1.00
H943   H     0.70162   0.09622   0.66174   0.00000  Uiso   1.00
H944   H     0.67952   0.18432   0.40096   0.00000  Uiso   1.00
H945   H     0.73174   0.04940   0.66136   0.00000  Uiso   1.00
H946   H     0.69968   0.05985   0.37458   0.00000  Uiso   1.00
H947   H     0.80004   0.07483   0.38394   0.00000  Uiso   1.00
H948   H     0.76290   0.10845   0.40786   0.00000  Uiso   1.00
H949   H     0.93493   0.28393   0.33864   0.00000  Uiso   1.00
H950   H     0.96505   0.23711   0.33826   0.00000  Uiso   1.00
H951   H     0.96699   0.27348   0.62542   0.00000  Uiso   1.00
H952   H     0.90377   0.22488   0.59214   0.00000  Uiso   1.00
H953   H     0.86663   0.25851   0.61606   0.00000  Uiso   1.00
H954   H     0.74595   0.09433   0.54687   0.00000  Uiso   1.00
H955   H     0.95836   0.14755   0.37524   0.00000  Uiso   1.00
H956   H     0.72169   0.12259   0.58963   0.00000  Uiso   1.00
H957   H     0.71495   0.06769   0.58873   0.00000  Uiso   1.00
H958   H     0.94498   0.21074   0.41037   0.00000  Uiso   1.00
H959   H     0.92072   0.23900   0.45313   0.00000  Uiso   1.00
H960   H     0.95172   0.26564   0.41127   0.00000  Uiso   1.00
H961   H     0.98714   0.14901   0.59904   0.00000  Uiso   1.00
H962   H     0.98041   0.20133   0.61067   0.00000  Uiso   1.00
H963   H     0.70831   0.18578   0.62476   0.00000  Uiso   1.00
H964   H     0.94173   0.05828   0.46439   0.00000  Uiso   1.00
H965   H     0.93637   0.06315   0.40216   0.00000  Uiso   1.00
H966   H     0.92913   0.01262   0.42617   0.00000  Uiso   1.00
N967   N     0.83335   0.16668   0.61736   0.00000  Uiso   1.00
N968   N     0.83332   0.16666   0.38264   0.00000  Uiso   1.00
O969   O     0.83333   0.10655   0.53958   0.00000  Uiso   1.00
O970   O     0.68516   0.19560   0.55524   0.00000  Uiso   1.00
O971   O     0.86775   0.04541   0.42633   0.00000  Uiso   1.00
O972   O     0.79892   0.28793   0.57368   0.00000  Uiso   1.00
O973   O     0.84004   0.29519   0.41667   0.00000  Uiso   1.00
O974   O     0.82664   0.03814   0.58333   0.00000  Uiso   1.00
O975   O     0.78868   0.09730   0.61359   0.00000  Uiso   1.00
O976   O     0.87799   0.23603   0.38641   0.00000  Uiso   1.00
O977   O     0.83334   0.22678   0.46042   0.00000  Uiso   1.00
O978   O     0.83333   0.10654   0.46039   0.00000  Uiso   1.00
O979   O     0.83334   0.22679   0.53961   0.00000  Uiso   1.00
O980   O     0.75828   0.16667   0.53046   0.00000  Uiso   1.00
O981   O     0.90839   0.16666   0.46954   0.00000  Uiso   1.00
O982   O     0.75828   0.16666   0.45127   0.00000  Uiso   1.00
O983   O     0.90839   0.16667   0.54873   0.00000  Uiso   1.00
O984   O     0.98150   0.13773   0.44476   0.00000  Uiso   1.00
C985   C     0.16914   0.42113   0.50060   0.00000  Uiso   1.00
C986   C     0.16151   0.35310   0.54112   0.00000  Uiso   1.00
C987   C     0.16153   0.62336   0.49827   0.00000  Uiso   1.00
C988   C     0.17181   0.37664   0.50173   0.00000  Uiso   1.00
C989   C     0.13750   0.46820   0.35392   0.00000  Uiso   1.00
C990   C     0.19583   0.53180   0.64608   0.00000  Uiso   1.00
C991   C     0.13887   0.46777   0.63793   0.00000  Uiso   1.00
C992   C     0.19446   0.53223   0.36207   0.00000  Uiso   1.00
C993   C     0.32741   0.48480   0.40109   0.00000  Uiso   1.00
C994   C     0.00592   0.51519   0.59891   0.00000  Uiso   1.00
C995   C     0.25437   0.37785   0.43046   0.00000  Uiso   1.00
C996   C     0.16419   0.57887   0.49940   0.00000  Uiso   1.00
C997   C     0.07897   0.62214   0.56955   0.00000  Uiso   1.00
C998   C     0.12471   0.62663   0.38892   0.00000  Uiso   1.00
C999   C     0.20866   0.37341   0.61105   0.00000  Uiso   1.00
C1000  C     0.10772   0.43129   0.37585   0.00000  Uiso   1.00
C1001  C     0.05732   0.40832   0.34935   0.00000  Uiso   1.00
C1002  C     0.22562   0.56871   0.62415   0.00000  Uiso   1.00
C1003  C     0.27601   0.59168   0.65065   0.00000  Uiso   1.00
C1004  C     0.07458   0.42987   0.58386   0.00000  Uiso   1.00
C1005  C     0.25875   0.57013   0.41614   0.00000  Uiso   1.00
C1006  C     0.06782   0.49916   0.48781   0.00000  Uiso   1.00
C1007  C     0.26551   0.50084   0.51219   0.00000  Uiso   1.00
C1008  C     0.01137   0.49461   0.48187   0.00000  Uiso   1.00
C1009  C     0.32197   0.50538   0.51813   0.00000  Uiso   1.00
C1010  C     0.18203   0.35656   0.46234   0.00000  Uiso   1.00
C1011  C     0.15131   0.64344   0.53766   0.00000  Uiso   1.00
C1012  C     0.17183   0.64690   0.45888   0.00000  Uiso   1.00
Cu1013 Cu    0.16667   0.50001   0.54689   0.00000  Uiso   1.00
Cu1014 Cu    0.16667   0.49999   0.45311   0.00000  Uiso   1.00
H1015  H     0.01959   0.46533   0.38933   0.00000  Uiso   1.00
H1016  H     0.06363   0.60351   0.59785   0.00000  Uiso   1.00
H1017  H     0.05828   0.60837   0.53562   0.00000  Uiso   1.00
H1018  H     0.07087   0.65404   0.57383   0.00000  Uiso   1.00
H1019  H     0.12567   0.61128   0.35516   0.00000  Uiso   1.00
H1020  H     0.11522   0.65804   0.38112   0.00000  Uiso   1.00
H1021  H     0.09394   0.60795   0.40572   0.00000  Uiso   1.00
H1022  H     0.21820   0.34201   0.61884   0.00000  Uiso   1.00
H1023  H     0.20770   0.38875   0.64483   0.00000  Uiso   1.00
H1024  H     0.23939   0.39212   0.59425   0.00000  Uiso   1.00
H1025  H     0.03496   0.42955   0.66174   0.00000  Uiso   1.00
H1026  H     0.01286   0.51765   0.40096   0.00000  Uiso   1.00
H1027  H     0.06507   0.38273   0.66136   0.00000  Uiso   1.00
H1028  H     0.03301   0.39318   0.37458   0.00000  Uiso   1.00
H1029  H     0.13337   0.40816   0.38394   0.00000  Uiso   1.00
H1030  H     0.09623   0.44178   0.40786   0.00000  Uiso   1.00
H1031  H     0.26826   0.61727   0.33864   0.00000  Uiso   1.00
H1032  H     0.29838   0.57045   0.33826   0.00000  Uiso   1.00
H1033  H     0.30032   0.60681   0.62542   0.00000  Uiso   1.00
H1034  H     0.23710   0.55822   0.59214   0.00000  Uiso   1.00
H1035  H     0.19996   0.59184   0.61606   0.00000  Uiso   1.00
H1036  H     0.07928   0.42767   0.54687   0.00000  Uiso   1.00
H1037  H     0.29169   0.48088   0.37524   0.00000  Uiso   1.00
H1038  H     0.05502   0.45592   0.58963   0.00000  Uiso   1.00
H1039  H     0.04828   0.40102   0.58873   0.00000  Uiso   1.00
H1040  H     0.27831   0.54408   0.41037   0.00000  Uiso   1.00
H1041  H     0.25405   0.57233   0.45313   0.00000  Uiso   1.00
H1042  H     0.28506   0.59898   0.41127   0.00000  Uiso   1.00
H1043  H     0.32047   0.48234   0.59904   0.00000  Uiso   1.00
H1044  H     0.31374   0.53466   0.61067   0.00000  Uiso   1.00
H1045  H     0.04164   0.51911   0.62476   0.00000  Uiso   1.00
H1046  H     0.27506   0.39162   0.46439   0.00000  Uiso   1.00
H1047  H     0.26971   0.39648   0.40216   0.00000  Uiso   1.00
H1048  H     0.26246   0.34596   0.42617   0.00000  Uiso   1.00
N1049  N     0.16668   0.50001   0.61736   0.00000  Uiso   1.00
N1050  N     0.16665   0.49999   0.38264   0.00000  Uiso   1.00
O1051  O     0.16666   0.43989   0.53958   0.00000  Uiso   1.00
O1052  O     0.01850   0.52893   0.55524   0.00000  Uiso   1.00
O1053  O     0.20109   0.37874   0.42633   0.00000  Uiso   1.00
O1054  O     0.13225   0.62126   0.57368   0.00000  Uiso   1.00
O1055  O     0.17337   0.62852   0.41667   0.00000  Uiso   1.00
O1056  O     0.15997   0.37148   0.58333   0.00000  Uiso   1.00
O1057  O     0.12201   0.43064   0.61359   0.00000  Uiso   1.00
O1058  O     0.21133   0.56936   0.38641   0.00000  Uiso   1.00
O1059  O     0.16667   0.56011   0.46042   0.00000  Uiso   1.00
O1060  O     0.16666   0.43988   0.46039   0.00000  Uiso   1.00
O1061  O     0.16667   0.56012   0.53961   0.00000  Uiso   1.00
O1062  O     0.09161   0.50000   0.53046   0.00000  Uiso   1.00
O1063  O     0.24172   0.50000   0.46954   0.00000  Uiso   1.00
O1064  O     0.09161   0.49999   0.45127   0.00000  Uiso   1.00
O1065  O     0.24172   0.50001   0.54873   0.00000  Uiso   1.00
O1066  O     0.31484   0.47106   0.44476   0.00000  Uiso   1.00
C1067  C     0.50248   0.42113   0.50060   0.00000  Uiso   1.00
C1068  C     0.49484   0.35310   0.54112   0.00000  Uiso   1.00
C1069  C     0.49486   0.62336   0.49827   0.00000  Uiso   1.00
C1070  C     0.50514   0.37664   0.50173   0.00000  Uiso   1.00
C1071  C     0.47083   0.46820   0.35392   0.00000  Uiso   1.00
C1072  C     0.52917   0.53180   0.64608   0.00000  Uiso   1.00
C1073  C     0.47221   0.46777   0.63793   0.00000  Uiso   1.00
C1074  C     0.52779   0.53223   0.36207   0.00000  Uiso   1.00
C1075  C     0.66075   0.48480   0.40109   0.00000  Uiso   1.00
C1076  C     0.33925   0.51519   0.59891   0.00000  Uiso   1.00
C1077  C     0.58770   0.37785   0.43046   0.00000  Uiso   1.00
C1078  C     0.49752   0.57887   0.49940   0.00000  Uiso   1.00
C1079  C     0.41230   0.62214   0.56955   0.00000  Uiso   1.00
C1080  C     0.45804   0.62663   0.38892   0.00000  Uiso   1.00
C1081  C     0.54199   0.37341   0.61105   0.00000  Uiso   1.00
C1082  C     0.44105   0.43129   0.37585   0.00000  Uiso   1.00
C1083  C     0.39065   0.40832   0.34935   0.00000  Uiso   1.00
C1084  C     0.55895   0.56871   0.62415   0.00000  Uiso   1.00
C1085  C     0.60935   0.59168   0.65065   0.00000  Uiso   1.00
C1086  C     0.40791   0.42987   0.58386   0.00000  Uiso   1.00
C1087  C     0.59209   0.57013   0.41614   0.00000  Uiso   1.00
C1088  C     0.40116   0.49916   0.48781   0.00000  Uiso   1.00
C1089  C     0.59884   0.50084   0.51219   0.00000  Uiso   1.00
C1090  C     0.34470   0.49461   0.48187   0.00000  Uiso   1.00
C1091  C     0.65530   0.50538   0.51813   0.00000  Uiso   1.00
C1092  C     0.51536   0.35656   0.46234   0.00000  Uiso   1.00
C1093  C     0.48464   0.64344   0.53766   0.00000  Uiso   1.00
C1094  C     0.50516   0.64690   0.45888   0.00000  Uiso   1.00
Cu1095 Cu    0.50000   0.50001   0.54689   0.00000  Uiso   1.00
Cu1096 Cu    0.50000   0.49999   0.45311   0.00000  Uiso   1.00
H1097  H     0.35292   0.46533   0.38933   0.00000  Uiso   1.00
H1098  H     0.39697   0.60351   0.59785   0.00000  Uiso   1.00
H1099  H     0.39161   0.60837   0.53562   0.00000  Uiso   1.00
H1100  H     0.40420   0.65404   0.57383   0.00000  Uiso   1.00
H1101  H     0.45901   0.61128   0.35516   0.00000  Uiso   1.00
H1102  H     0.44855   0.65804   0.38112   0.00000  Uiso   1.00
H1103  H     0.42727   0.60795   0.40572   0.00000  Uiso   1.00
H1104  H     0.55153   0.34201   0.61884   0.00000  Uiso   1.00
H1105  H     0.54103   0.38875   0.64483   0.00000  Uiso   1.00
H1106  H     0.57272   0.39212   0.59425   0.00000  Uiso   1.00
H1107  H     0.36829   0.42955   0.66174   0.00000  Uiso   1.00
H1108  H     0.34619   0.51765   0.40096   0.00000  Uiso   1.00
H1109  H     0.39841   0.38273   0.66136   0.00000  Uiso   1.00
H1110  H     0.36635   0.39318   0.37458   0.00000  Uiso   1.00
H1111  H     0.46671   0.40816   0.38394   0.00000  Uiso   1.00
H1112  H     0.42957   0.44178   0.40786   0.00000  Uiso   1.00
H1113  H     0.60160   0.61727   0.33864   0.00000  Uiso   1.00
H1114  H     0.63171   0.57045   0.33826   0.00000  Uiso   1.00
H1115  H     0.63366   0.60681   0.62542   0.00000  Uiso   1.00
H1116  H     0.57043   0.55822   0.59214   0.00000  Uiso   1.00
H1117  H     0.53330   0.59184   0.61606   0.00000  Uiso   1.00
H1118  H     0.41261   0.42767   0.54687   0.00000  Uiso   1.00
H1119  H     0.62503   0.48088   0.37524   0.00000  Uiso   1.00
H1120  H     0.38836   0.45592   0.58963   0.00000  Uiso   1.00
H1121  H     0.38161   0.40102   0.58873   0.00000  Uiso   1.00
H1122  H     0.61164   0.54408   0.41037   0.00000  Uiso   1.00
H1123  H     0.58739   0.57233   0.45313   0.00000  Uiso   1.00
H1124  H     0.61839   0.59898   0.41127   0.00000  Uiso   1.00
H1125  H     0.65381   0.48234   0.59904   0.00000  Uiso   1.00
H1126  H     0.64708   0.53466   0.61067   0.00000  Uiso   1.00
H1127  H     0.37497   0.51911   0.62476   0.00000  Uiso   1.00
H1128  H     0.60839   0.39162   0.46439   0.00000  Uiso   1.00
H1129  H     0.60304   0.39648   0.40216   0.00000  Uiso   1.00
H1130  H     0.59579   0.34596   0.42617   0.00000  Uiso   1.00
N1131  N     0.50001   0.50001   0.61736   0.00000  Uiso   1.00
N1132  N     0.49999   0.49999   0.38264   0.00000  Uiso   1.00
O1133  O     0.50000   0.43989   0.53958   0.00000  Uiso   1.00
O1134  O     0.35183   0.52893   0.55524   0.00000  Uiso   1.00
O1135  O     0.53442   0.37874   0.42633   0.00000  Uiso   1.00
O1136  O     0.46559   0.62126   0.57368   0.00000  Uiso   1.00
O1137  O     0.50671   0.62852   0.41667   0.00000  Uiso   1.00
O1138  O     0.49331   0.37148   0.58333   0.00000  Uiso   1.00
O1139  O     0.45534   0.43064   0.61359   0.00000  Uiso   1.00
O1140  O     0.54466   0.56936   0.38641   0.00000  Uiso   1.00
O1141  O     0.50000   0.56011   0.46042   0.00000  Uiso   1.00
O1142  O     0.50000   0.43988   0.46039   0.00000  Uiso   1.00
O1143  O     0.50000   0.56012   0.53961   0.00000  Uiso   1.00
O1144  O     0.42495   0.50000   0.53046   0.00000  Uiso   1.00
O1145  O     0.57505   0.50000   0.46954   0.00000  Uiso   1.00
O1146  O     0.42494   0.49999   0.45127   0.00000  Uiso   1.00
O1147  O     0.57506   0.50001   0.54873   0.00000  Uiso   1.00
O1148  O     0.64817   0.47106   0.44476   0.00000  Uiso   1.00
C1149  C     0.83581   0.42113   0.50060   0.00000  Uiso   1.00
C1150  C     0.82818   0.35310   0.54112   0.00000  Uiso   1.00
C1151  C     0.82819   0.62336   0.49827   0.00000  Uiso   1.00
C1152  C     0.83848   0.37664   0.50173   0.00000  Uiso   1.00
C1153  C     0.80417   0.46820   0.35392   0.00000  Uiso   1.00
C1154  C     0.86250   0.53180   0.64608   0.00000  Uiso   1.00
C1155  C     0.80554   0.46777   0.63793   0.00000  Uiso   1.00
C1156  C     0.86113   0.53223   0.36207   0.00000  Uiso   1.00
C1157  C     0.99408   0.48480   0.40109   0.00000  Uiso   1.00
C1158  C     0.67259   0.51519   0.59891   0.00000  Uiso   1.00
C1159  C     0.92103   0.37785   0.43046   0.00000  Uiso   1.00
C1160  C     0.83086   0.57887   0.49940   0.00000  Uiso   1.00
C1161  C     0.74564   0.62214   0.56955   0.00000  Uiso   1.00
C1162  C     0.79137   0.62663   0.38892   0.00000  Uiso   1.00
C1163  C     0.87533   0.37341   0.61105   0.00000  Uiso   1.00
C1164  C     0.77439   0.43129   0.37585   0.00000  Uiso   1.00
C1165  C     0.72399   0.40832   0.34935   0.00000  Uiso   1.00
C1166  C     0.89228   0.56871   0.62415   0.00000  Uiso   1.00
C1167  C     0.94268   0.59168   0.65065   0.00000  Uiso   1.00
C1168  C     0.74125   0.42987   0.58386   0.00000  Uiso   1.00
C1169  C     0.92542   0.57013   0.41614   0.00000  Uiso   1.00
C1170  C     0.73449   0.49916   0.48781   0.00000  Uiso   1.00
C1171  C     0.93218   0.50084   0.51219   0.00000  Uiso   1.00
C1172  C     0.67803   0.49461   0.48187   0.00000  Uiso   1.00
C1173  C     0.98863   0.50538   0.51813   0.00000  Uiso   1.00
C1174  C     0.84869   0.35656   0.46234   0.00000  Uiso   1.00
C1175  C     0.81798   0.64344   0.53766   0.00000  Uiso   1.00
C1176  C     0.83849   0.64690   0.45888   0.00000  Uiso   1.00
Cu1177 Cu    0.83333   0.50001   0.54689   0.00000  Uiso   1.00
Cu1178 Cu    0.83333   0.49999   0.45311   0.00000  Uiso   1.00
H1179  H     0.68625   0.46533   0.38933   0.00000  Uiso   1.00
H1180  H     0.73030   0.60351   0.59785   0.00000  Uiso   1.00
H1181  H     0.72495   0.60837   0.53562   0.00000  Uiso   1.00
H1182  H     0.73753   0.65404   0.57383   0.00000  Uiso   1.00
H1183  H     0.79234   0.61128   0.35516   0.00000  Uiso   1.00
H1184  H     0.78189   0.65804   0.38112   0.00000  Uiso   1.00
H1185  H     0.76060   0.60795   0.40572   0.00000  Uiso   1.00
H1186  H     0.88486   0.34201   0.61884   0.00000  Uiso   1.00
H1187  H     0.87436   0.38875   0.64483   0.00000  Uiso   1.00
H1188  H     0.90605   0.39212   0.59425   0.00000  Uiso   1.00
H1189  H     0.70162   0.42955   0.66174   0.00000  Uiso   1.00
H1190  H     0.67952   0.51765   0.40096   0.00000  Uiso   1.00
H1191  H     0.73174   0.38273   0.66136   0.00000  Uiso   1.00
H1192  H     0.69968   0.39318   0.37458   0.00000  Uiso   1.00
H1193  H     0.80004   0.40816   0.38394   0.00000  Uiso   1.00
H1194  H     0.76290   0.44178   0.40786   0.00000  Uiso   1.00
H1195  H     0.93493   0.61727   0.33864   0.00000  Uiso   1.00
H1196  H     0.96505   0.57045   0.33826   0.00000  Uiso   1.00
H1197  H     0.96699   0.60681   0.62542   0.00000  Uiso   1.00
H1198  H     0.90377   0.55822   0.59214   0.00000  Uiso   1.00
H1199  H     0.86663   0.59184   0.61606   0.00000  Uiso   1.00
H1200  H     0.74595   0.42767   0.54687   0.00000  Uiso   1.00
H1201  H     0.95836   0.48088   0.37524   0.00000  Uiso   1.00
H1202  H     0.72169   0.45592   0.58963   0.00000  Uiso   1.00
H1203  H     0.71495   0.40102   0.58873   0.00000  Uiso   1.00
H1204  H     0.94498   0.54408   0.41037   0.00000  Uiso   1.00
H1205  H     0.92072   0.57233   0.45313   0.00000  Uiso   1.00
H1206  H     0.95172   0.59898   0.41127   0.00000  Uiso   1.00
H1207  H     0.98714   0.48234   0.59904   0.00000  Uiso   1.00
H1208  H     0.98041   0.53466   0.61067   0.00000  Uiso   1.00
H1209  H     0.70831   0.51911   0.62476   0.00000  Uiso   1.00
H1210  H     0.94173   0.39162   0.46439   0.00000  Uiso   1.00
H1211  H     0.93637   0.39648   0.40216   0.00000  Uiso   1.00
H1212  H     0.92913   0.34596   0.42617   0.00000  Uiso   1.00
N1213  N     0.83335   0.50001   0.61736   0.00000  Uiso   1.00
N1214  N     0.83332   0.49999   0.38264   0.00000  Uiso   1.00
O1215  O     0.83333   0.43989   0.53958   0.00000  Uiso   1.00
O1216  O     0.68516   0.52893   0.55524   0.00000  Uiso   1.00
O1217  O     0.86775   0.37874   0.42633   0.00000  Uiso   1.00
O1218  O     0.79892   0.62126   0.57368   0.00000  Uiso   1.00
O1219  O     0.84004   0.62852   0.41667   0.00000  Uiso   1.00
O1220  O     0.82664   0.37148   0.58333   0.00000  Uiso   1.00
O1221  O     0.78868   0.43064   0.61359   0.00000  Uiso   1.00
O1222  O     0.87799   0.56936   0.38641   0.00000  Uiso   1.00
O1223  O     0.83334   0.56011   0.46042   0.00000  Uiso   1.00
O1224  O     0.83333   0.43988   0.46039   0.00000  Uiso   1.00
O1225  O     0.83334   0.56012   0.53961   0.00000  Uiso   1.00
O1226  O     0.75828   0.50000   0.53046   0.00000  Uiso   1.00
O1227  O     0.90839   0.50000   0.46954   0.00000  Uiso   1.00
O1228  O     0.75828   0.49999   0.45127   0.00000  Uiso   1.00
O1229  O     0.90839   0.50001   0.54873   0.00000  Uiso   1.00
O1230  O     0.98150   0.47106   0.44476   0.00000  Uiso   1.00
C1231  C     0.16914   0.75446   0.50060   0.00000  Uiso   1.00
C1232  C     0.16151   0.68643   0.54112   0.00000  Uiso   1.00
C1233  C     0.16153   0.95670   0.49827   0.00000  Uiso   1.00
C1234  C     0.17181   0.70997   0.50173   0.00000  Uiso   1.00
C1235  C     0.13750   0.80153   0.35392   0.00000  Uiso   1.00
C1236  C     0.19583   0.86513   0.64608   0.00000  Uiso   1.00
C1237  C     0.13887   0.80110   0.63793   0.00000  Uiso   1.00
C1238  C     0.19446   0.86556   0.36207   0.00000  Uiso   1.00
C1239  C     0.32741   0.81814   0.40109   0.00000  Uiso   1.00
C1240  C     0.00592   0.84853   0.59891   0.00000  Uiso   1.00
C1241  C     0.25437   0.71119   0.43046   0.00000  Uiso   1.00
C1242  C     0.16419   0.91221   0.49940   0.00000  Uiso   1.00
C1243  C     0.07897   0.95548   0.56955   0.00000  Uiso   1.00
C1244  C     0.12471   0.95996   0.38892   0.00000  Uiso   1.00
C1245  C     0.20866   0.70674   0.61105   0.00000  Uiso   1.00
C1246  C     0.10772   0.76462   0.37585   0.00000  Uiso   1.00
C1247  C     0.05732   0.74165   0.34935   0.00000  Uiso   1.00
C1248  C     0.22562   0.90205   0.62415   0.00000  Uiso   1.00
C1249  C     0.27601   0.92501   0.65065   0.00000  Uiso   1.00
C1250  C     0.07458   0.76320   0.58386   0.00000  Uiso   1.00
C1251  C     0.25875   0.90346   0.41614   0.00000  Uiso   1.00
C1252  C     0.06782   0.83250   0.48781   0.00000  Uiso   1.00
C1253  C     0.26551   0.83417   0.51219   0.00000  Uiso   1.00
C1254  C     0.01137   0.82795   0.48187   0.00000  Uiso   1.00
C1255  C     0.32197   0.83872   0.51813   0.00000  Uiso   1.00
C1256  C     0.18203   0.68989   0.46234   0.00000  Uiso   1.00
C1257  C     0.15131   0.97678   0.53766   0.00000  Uiso   1.00
C1258  C     0.17183   0.98023   0.45888   0.00000  Uiso   1.00
Cu1259 Cu    0.16667   0.83334   0.54689   0.00000  Uiso   1.00
Cu1260 Cu    0.16667   0.83333   0.45311   0.00000  Uiso   1.00
H1261  H     0.01959   0.79866   0.38933   0.00000  Uiso   1.00
H1262  H     0.06363   0.93685   0.59785   0.00000  Uiso   1.00
H1263  H     0.05828   0.94170   0.53562   0.00000  Uiso   1.00
H1264  H     0.07087   0.98737   0.57383   0.00000  Uiso   1.00
H1265  H     0.12567   0.94461   0.35516   0.00000  Uiso   1.00
H1266  H     0.11522   0.99137   0.38112   0.00000  Uiso   1.00
H1267  H     0.09394   0.94128   0.40572   0.00000  Uiso   1.00
H1268  H     0.21820   0.67535   0.61884   0.00000  Uiso   1.00
H1269  H     0.20770   0.72208   0.64483   0.00000  Uiso   1.00
H1270  H     0.23939   0.72546   0.59425   0.00000  Uiso   1.00
H1271  H     0.03496   0.76288   0.66174   0.00000  Uiso   1.00
H1272  H     0.01286   0.85098   0.40096   0.00000  Uiso   1.00
H1273  H     0.06507   0.71606   0.66136   0.00000  Uiso   1.00
H1274  H     0.03301   0.72652   0.37458   0.00000  Uiso   1.00
H1275  H     0.13337   0.74149   0.38394   0.00000  Uiso   1.00
H1276  H     0.09623   0.77512   0.40786   0.00000  Uiso   1.00
H1277  H     0.26826   0.95060   0.33864   0.00000  Uiso   1.00
H1278  H     0.29838   0.90378   0.33826   0.00000  Uiso   1.00
H1279  H     0.30032   0.94015   0.62542   0.00000  Uiso   1.00
H1280  H     0.23710   0.89155   0.59214   0.00000  Uiso   1.00
H1281  H     0.19996   0.92517   0.61606   0.00000  Uiso   1.00
H1282  H     0.07928   0.76100   0.54687   0.00000  Uiso   1.00
H1283  H     0.29169   0.81421   0.37524   0.00000  Uiso   1.00
H1284  H     0.05502   0.78925   0.58963   0.00000  Uiso   1.00
H1285  H     0.04828   0.73435   0.58873   0.00000  Uiso   1.00
H1286  H     0.27831   0.87741   0.41037   0.00000  Uiso   1.00
H1287  H     0.25405   0.90567   0.45313   0.00000  Uiso   1.00
H1288  H     0.28506   0.93231   0.41127   0.00000  Uiso   1.00
H1289  H     0.32047   0.81568   0.59904   0.00000  Uiso   1.00
H1290  H     0.31374   0.86800   0.61067   0.00000  Uiso   1.00
H1291  H     0.04164   0.85245   0.62476   0.00000  Uiso   1.00
H1292  H     0.27506   0.72495   0.46439   0.00000  Uiso   1.00
H1293  H     0.26971   0.72982   0.40216   0.00000  Uiso   1.00
H1294  H     0.26246   0.67929   0.42617   0.00000  Uiso   1.00
N1295  N     0.16668   0.83334   0.61736   0.00000  Uiso   1.00
N1296  N     0.16665   0.83332   0.38264   0.00000  Uiso   1.00
O1297  O     0.16666   0.77322   0.53958   0.00000  Uiso   1.00
O1298  O     0.01850   0.86227   0.55524   0.00000  Uiso   1.00
O1299  O     0.20109   0.71207   0.42633   0.00000  Uiso   1.00
O1300  O     0.13225   0.95460   0.57368   0.00000  Uiso   1.00
O1301  O     0.17337   0.96186   0.41667   0.00000  Uiso   1.00
O1302  O     0.15997   0.70481   0.58333   0.00000  Uiso   1.00
O1303  O     0.12201   0.76397   0.61359   0.00000  Uiso   1.00
O1304  O     0.21133   0.90270   0.38641   0.00000  Uiso   1.00
O1305  O     0.16667   0.89345   0.46042   0.00000  Uiso   1.00
O1306  O     0.16666   0.77321   0.46039   0.00000  Uiso   1.00
O1307  O     0.16667   0.89346   0.53961   0.00000  Uiso   1.00
O1308  O     0.09161   0.83334   0.53046   0.00000  Uiso   1.00
O1309  O     0.24172   0.83333   0.46954   0.00000  Uiso   1.00
O1310  O     0.09161   0.83333   0.45127   0.00000  Uiso   1.00
O1311  O     0.24172   0.83334   0.54873   0.00000  Uiso   1.00
O1312  O     0.31484   0.80440   0.44476   0.00000  Uiso   1.00
C1313  C     0.50248   0.75446   0.50060   0.00000  Uiso   1.00
C1314  C     0.49484   0.68643   0.54112   0.00000  Uiso   1.00
C1315  C     0.49486   0.95670   0.49827   0.00000  Uiso   1.00
C1316  C     0.50514   0.70997   0.50173   0.00000  Uiso   1.00
C1317  C     0.47083   0.80153   0.35392   0.00000  Uiso   1.00
C1318  C     0.52917   0.86513   0.64608   0.00000  Uiso   1.00
C1319  C     0.47221   0.80110   0.63793   0.00000  Uiso   1.00
C1320  C     0.52779   0.86556   0.36207   0.00000  Uiso   1.00
C1321  C     0.66075   0.81814   0.40109   0.00000  Uiso   1.00
C1322  C     0.33925   0.84853   0.59891   0.00000  Uiso   1.00
C1323  C     0.58770   0.71119   0.43046   0.00000  Uiso   1.00
C1324  C     0.49752   0.91221   0.49940   0.00000  Uiso   1.00
C1325  C     0.41230   0.95548   0.56955   0.00000  Uiso   1.00
C1326  C     0.45804   0.95996   0.38892   0.00000  Uiso   1.00
C1327  C     0.54199   0.70674   0.61105   0.00000  Uiso   1.00
C1328  C     0.44105   0.76462   0.37585   0.00000  Uiso   1.00
C1329  C     0.39065   0.74165   0.34935   0.00000  Uiso   1.00
C1330  C     0.55895   0.90205   0.62415   0.00000  Uiso   1.00
C1331  C     0.60935   0.92501   0.65065   0.00000  Uiso   1.00
C1332  C     0.40791   0.76320   0.58386   0.00000  Uiso   1.00
C1333  C     0.59209   0.90346   0.41614   0.00000  Uiso   1.00
C1334  C     0.40116   0.83250   0.48781   0.00000  Uiso   1.00
C1335  C     0.59884   0.83417   0.51219   0.00000  Uiso   1.00
C1336  C     0.34470   0.82795   0.48187   0.00000  Uiso   1.00
C1337  C     0.65530   0.83872   0.51813   0.00000  Uiso   1.00
C1338  C     0.51536   0.68989   0.46234   0.00000  Uiso   1.00
C1339  C     0.48464   0.97678   0.53766   0.00000  Uiso   1.00
C1340  C     0.50516   0.98023   0.45888   0.00000  Uiso   1.00
Cu1341 Cu    0.50000   0.83334   0.54689   0.00000  Uiso   1.00
Cu1342 Cu    0.50000   0.83333   0.45311   0.00000  Uiso   1.00
H1343  H     0.35292   0.79866   0.38933   0.00000  Uiso   1.00
H1344  H     0.39697   0.93685   0.59785   0.00000  Uiso   1.00
H1345  H     0.39161   0.94170   0.53562   0.00000  Uiso   1.00
H1346  H     0.40420   0.98737   0.57383   0.00000  Uiso   1.00
H1347  H     0.45901   0.94461   0.35516   0.00000  Uiso   1.00
H1348  H     0.44855   0.99137   0.38112   0.00000  Uiso   1.00
H1349  H     0.42727   0.94128   0.40572   0.00000  Uiso   1.00
H1350  H     0.55153   0.67535   0.61884   0.00000  Uiso   1.00
H1351  H     0.54103   0.72208   0.64483   0.00000  Uiso   1.00
H1352  H     0.57272   0.72546   0.59425   0.00000  Uiso   1.00
H1353  H     0.36829   0.76288   0.66174   0.00000  Uiso   1.00
H1354  H     0.34619   0.85098   0.40096   0.00000  Uiso   1.00
H1355  H     0.39841   0.71606   0.66136   0.00000  Uiso   1.00
H1356  H     0.36635   0.72652   0.37458   0.00000  Uiso   1.00
H1357  H     0.46671   0.74149   0.38394   0.00000  Uiso   1.00
H1358  H     0.42957   0.77512   0.40786   0.00000  Uiso   1.00
H1359  H     0.60160   0.95060   0.33864   0.00000  Uiso   1.00
H1360  H     0.63171   0.90378   0.33826   0.00000  Uiso   1.00
H1361  H     0.63366   0.94015   0.62542   0.00000  Uiso   1.00
H1362  H     0.57043   0.89155   0.59214   0.00000  Uiso   1.00
H1363  H     0.53330   0.92517   0.61606   0.00000  Uiso   1.00
H1364  H     0.41261   0.76100   0.54687   0.00000  Uiso   1.00
H1365  H     0.62503   0.81421   0.37524   0.00000  Uiso   1.00
H1366  H     0.38836   0.78925   0.58963   0.00000  Uiso   1.00
H1367  H     0.38161   0.73435   0.58873   0.00000  Uiso   1.00
H1368  H     0.61164   0.87741   0.41037   0.00000  Uiso   1.00
H1369  H     0.58739   0.90567   0.45313   0.00000  Uiso   1.00
H1370  H     0.61839   0.93231   0.41127   0.00000  Uiso   1.00
H1371  H     0.65381   0.81568   0.59904   0.00000  Uiso   1.00
H1372  H     0.64708   0.86800   0.61067   0.00000  Uiso   1.00
H1373  H     0.37497   0.85245   0.62476   0.00000  Uiso   1.00
H1374  H     0.60839   0.72495   0.46439   0.00000  Uiso   1.00
H1375  H     0.60304   0.72982   0.40216   0.00000  Uiso   1.00
H1376  H     0.59579   0.67929   0.42617   0.00000  Uiso   1.00
N1377  N     0.50001   0.83334   0.61736   0.00000  Uiso   1.00
N1378  N     0.49999   0.83332   0.38264   0.00000  Uiso   1.00
O1379  O     0.50000   0.77322   0.53958   0.00000  Uiso   1.00
O1380  O     0.35183   0.86227   0.55524   0.00000  Uiso   1.00
O1381  O     0.53442   0.71207   0.42633   0.00000  Uiso   1.00
O1382  O     0.46559   0.95460   0.57368   0.00000  Uiso   1.00
O1383  O     0.50671   0.96186   0.41667   0.00000  Uiso   1.00
O1384  O     0.49331   0.70481   0.58333   0.00000  Uiso   1.00
O1385  O     0.45534   0.76397   0.61359   0.00000  Uiso   1.00
O1386  O     0.54466   0.90270   0.38641   0.00000  Uiso   1.00
O1387  O     0.50000   0.89345   0.46042   0.00000  Uiso   1.00
O1388  O     0.50000   0.77321   0.46039   0.00000  Uiso   1.00
O1389  O     0.50000   0.89346   0.53961   0.00000  Uiso   1.00
O1390  O     0.42495   0.83334   0.53046   0.00000  Uiso   1.00
O1391  O     0.57505   0.83333   0.46954   0.00000  Uiso   1.00
O1392  O     0.42494   0.83333   0.45127   0.00000  Uiso   1.00
O1393  O     0.57506   0.83334   0.54873   0.00000  Uiso   1.00
O1394  O     0.64817   0.80440   0.44476   0.00000  Uiso   1.00
C1395  C     0.83581   0.75446   0.50060   0.00000  Uiso   1.00
C1396  C     0.82818   0.68643   0.54112   0.00000  Uiso   1.00
C1397  C     0.82819   0.95670   0.49827   0.00000  Uiso   1.00
C1398  C     0.83848   0.70997   0.50173   0.00000  Uiso   1.00
C1399  C     0.80417   0.80153   0.35392   0.00000  Uiso   1.00
C1400  C     0.86250   0.86513   0.64608   0.00000  Uiso   1.00
C1401  C     0.80554   0.80110   0.63793   0.00000  Uiso   1.00
C1402  C     0.86113   0.86556   0.36207   0.00000  Uiso   1.00
C1403  C     0.99408   0.81814   0.40109   0.00000  Uiso   1.00
C1404  C     0.67259   0.84853   0.59891   0.00000  Uiso   1.00
C1405  C     0.92103   0.71119   0.43046   0.00000  Uiso   1.00
C1406  C     0.83086   0.91221   0.49940   0.00000  Uiso   1.00
C1407  C     0.74564   0.95548   0.56955   0.00000  Uiso   1.00
C1408  C     0.79137   0.95996   0.38892   0.00000  Uiso   1.00
C1409  C     0.87533   0.70674   0.61105   0.00000  Uiso   1.00
C1410  C     0.77439   0.76462   0.37585   0.00000  Uiso   1.00
C1411  C     0.72399   0.74165   0.34935   0.00000  Uiso   1.00
C1412  C     0.89228   0.90205   0.62415   0.00000  Uiso   1.00
C1413  C     0.94268   0.92501   0.65065   0.00000  Uiso   1.00
C1414  C     0.74125   0.76320   0.58386   0.00000  Uiso   1.00
C1415  C     0.92542   0.90346   0.41614   0.00000  Uiso   1.00
C1416  C     0.73449   0.83250   0.48781   0.00000  Uiso   1.00
C1417  C     0.93218   0.83417   0.51219   0.00000  Uiso   1.00
C1418  C     0.67803   0.82795   0.48187   0.00000  Uiso   1.00
C1419  C     0.98863   0.83872   0.51813   0.00000  Uiso   1.00
C1420  C     0.84869   0.68989   0.46234   0.00000  Uiso   1.00
C1421  C     0.81798   0.97678   0.53766   0.00000  Uiso   1.00
C1422  C     0.83849   0.98023   0.45888   0.00000  Uiso   1.00
Cu1423 Cu    0.83333   0.83334   0.54689   0.00000  Uiso   1.00
Cu1424 Cu    0.83333   0.83333   0.45311   0.00000  Uiso   1.00
H1425  H     0.68625   0.79866   0.38933   0.00000  Uiso   1.00
H1426  H     0.73030   0.93685   0.59785   0.00000  Uiso   1.00
H1427  H     0.72495   0.94170   0.53562   0.00000  Uiso   1.00
H1428  H     0.73753   0.98737   0.57383   0.00000  Uiso   1.00
H1429  H     0.79234   0.94461   0.35516   0.00000  Uiso   1.00
H1430  H     0.78189   0.99137   0.38112   0.00000  Uiso   1.00
H1431  H     0.76060   0.94128   0.40572   0.00000  Uiso   1.00
H1432  H     0.88486   0.67535   0.61884   0.00000  Uiso   1.00
H1433  H     0.87436   0.72208   0.64483   0.00000  Uiso   1.00
H1434  H     0.90605   0.72546   0.59425   0.00000  Uiso   1.00
H1435  H     0.70162   0.76288   0.66174   0.00000  Uiso   1.00
H1436  H     0.67952   0.85098   0.40096   0.00000  Uiso   1.00
H1437  H     0.73174   0.71606   0.66136   0.00000  Uiso   1.00
H1438  H     0.69968   0.72652   0.37458   0.00000  Uiso   1.00
H1439  H     0.80004   0.74149   0.38394   0.00000  Uiso   1.00
H1440  H     0.76290   0.77512   0.40786   0.00000  Uiso   1.00
H1441  H     0.93493   0.95060   0.33864   0.00000  Uiso   1.00
H1442  H     0.96505   0.90378   0.33826   0.00000  Uiso   1.00
H1443  H     0.96699   0.94015   0.62542   0.00000  Uiso   1.00
H1444  H     0.90377   0.89155   0.59214   0.00000  Uiso   1.00
H1445  H     0.86663   0.92517   0.61606   0.00000  Uiso   1.00
H1446  H     0.74595   0.76100   0.54687   0.00000  Uiso   1.00
H1447  H     0.95836   0.81421   0.37524   0.00000  Uiso   1.00
H1448  H     0.72169   0.78925   0.58963   0.00000  Uiso   1.00
H1449  H     0.71495   0.73435   0.58873   0.00000  Uiso   1.00
H1450  H     0.94498   0.87741   0.41037   0.00000  Uiso   1.00
H1451  H     0.92072   0.90567   0.45313   0.00000  Uiso   1.00
H1452  H     0.95172   0.93231   0.41127   0.00000  Uiso   1.00
H1453  H     0.98714   0.81568   0.59904   0.00000  Uiso   1.00
H1454  H     0.98041   0.86800   0.61067   0.00000  Uiso   1.00
H1455  H     0.70831   0.85245   0.62476   0.00000  Uiso   1.00
H1456  H     0.94173   0.72495   0.46439   0.00000  Uiso   1.00
H1457  H     0.93637   0.72982   0.40216   0.00000  Uiso   1.00
H1458  H     0.92913   0.67929   0.42617   0.00000  Uiso   1.00
N1459  N     0.83335   0.83334   0.61736   0.00000  Uiso   1.00
N1460  N     0.83332   0.83332   0.38264   0.00000  Uiso   1.00
O1461  O     0.83333   0.77322   0.53958   0.00000  Uiso   1.00
O1462  O     0.68516   0.86227   0.55524   0.00000  Uiso   1.00
O1463  O     0.86775   0.71207   0.42633   0.00000  Uiso   1.00
O1464  O     0.79892   0.95460   0.57368   0.00000  Uiso   1.00
O1465  O     0.84004   0.96186   0.41667   0.00000  Uiso   1.00
O1466  O     0.82664   0.70481   0.58333   0.00000  Uiso   1.00
O1467  O     0.78868   0.76397   0.61359   0.00000  Uiso   1.00
O1468  O     0.87799   0.90270   0.38641   0.00000  Uiso   1.00
O1469  O     0.83334   0.89345   0.46042   0.00000  Uiso   1.00
O1470  O     0.83333   0.77321   0.46039   0.00000  Uiso   1.00
O1471  O     0.83334   0.89346   0.53961   0.00000  Uiso   1.00
O1472  O     0.75828   0.83334   0.53046   0.00000  Uiso   1.00
O1473  O     0.90839   0.83333   0.46954   0.00000  Uiso   1.00
O1474  O     0.75828   0.83333   0.45127   0.00000  Uiso   1.00
O1475  O     0.90839   0.83334   0.54873   0.00000  Uiso   1.00
O1476  O     0.98150   0.80440   0.44476   0.00000  Uiso   1.00
C1477  C     0.16914   0.08779   0.83394   0.00000  Uiso   1.00
C1478  C     0.16151   0.01977   0.87446   0.00000  Uiso   1.00
C1479  C     0.16153   0.29003   0.83161   0.00000  Uiso   1.00
C1480  C     0.17181   0.04330   0.83506   0.00000  Uiso   1.00
C1481  C     0.13750   0.13487   0.68726   0.00000  Uiso   1.00
C1482  C     0.19583   0.19847   0.97941   0.00000  Uiso   1.00
C1483  C     0.13887   0.13444   0.97126   0.00000  Uiso   1.00
C1484  C     0.19446   0.19890   0.69540   0.00000  Uiso   1.00
C1485  C     0.32741   0.15147   0.73443   0.00000  Uiso   1.00
C1486  C     0.00592   0.18186   0.93224   0.00000  Uiso   1.00
C1487  C     0.25437   0.04452   0.76379   0.00000  Uiso   1.00
C1488  C     0.16419   0.24554   0.83273   0.00000  Uiso   1.00
C1489  C     0.07897   0.28881   0.90288   0.00000  Uiso   1.00
C1490  C     0.12471   0.29330   0.72226   0.00000  Uiso   1.00
C1491  C     0.20866   0.04007   0.94439   0.00000  Uiso   1.00
C1492  C     0.10772   0.09795   0.70919   0.00000  Uiso   1.00
C1493  C     0.05732   0.07498   0.68268   0.00000  Uiso   1.00
C1494  C     0.22562   0.23538   0.95748   0.00000  Uiso   1.00
C1495  C     0.27601   0.25835   0.98399   0.00000  Uiso   1.00
C1496  C     0.07458   0.09654   0.91719   0.00000  Uiso   1.00
C1497  C     0.25875   0.23680   0.74948   0.00000  Uiso   1.00
C1498  C     0.06782   0.16583   0.82114   0.00000  Uiso   1.00
C1499  C     0.26551   0.16750   0.84552   0.00000  Uiso   1.00
C1500  C     0.01137   0.16128   0.81521   0.00000  Uiso   1.00
C1501  C     0.32197   0.17205   0.85146   0.00000  Uiso   1.00
C1502  C     0.18203   0.02322   0.79568   0.00000  Uiso   1.00
C1503  C     0.15131   0.31011   0.87099   0.00000  Uiso   1.00
C1504  C     0.17183   0.31357   0.79221   0.00000  Uiso   1.00
Cu1505 Cu    0.16667   0.16667   0.88022   0.00000  Uiso   1.00
Cu1506 Cu    0.16667   0.16666   0.78645   0.00000  Uiso   1.00
H1507  H     0.01959   0.13200   0.72266   0.00000  Uiso   1.00
H1508  H     0.06363   0.27018   0.93118   0.00000  Uiso   1.00
H1509  H     0.05828   0.27504   0.86895   0.00000  Uiso   1.00
H1510  H     0.07087   0.32070   0.90716   0.00000  Uiso   1.00
H1511  H     0.12567   0.27794   0.68849   0.00000  Uiso   1.00
H1512  H     0.11522   0.32471   0.71445   0.00000  Uiso   1.00
H1513  H     0.09394   0.27461   0.73905   0.00000  Uiso   1.00
H1514  H     0.21820   0.00868   0.95217   0.00000  Uiso   1.00
H1515  H     0.20770   0.05541   0.97817   0.00000  Uiso   1.00
H1516  H     0.23939   0.05879   0.92758   0.00000  Uiso   1.00
H1517  H     0.03496   0.09622   0.99508   0.00000  Uiso   1.00
H1518  H     0.01286   0.18432   0.73429   0.00000  Uiso   1.00
H1519  H     0.06507   0.04940   0.99469   0.00000  Uiso   1.00
H1520  H     0.03301   0.05985   0.70791   0.00000  Uiso   1.00
H1521  H     0.13337   0.07483   0.71727   0.00000  Uiso   1.00
H1522  H     0.09623   0.10845   0.74119   0.00000  Uiso   1.00
H1523  H     0.26826   0.28393   0.67198   0.00000  Uiso   1.00
H1524  H     0.29838   0.23711   0.67159   0.00000  Uiso   1.00
H1525  H     0.30032   0.27348   0.95876   0.00000  Uiso   1.00
H1526  H     0.23710   0.22488   0.92547   0.00000  Uiso   1.00
H1527  H     0.19996   0.25851   0.94940   0.00000  Uiso   1.00
H1528  H     0.07928   0.09433   0.88021   0.00000  Uiso   1.00
H1529  H     0.29169   0.14755   0.70857   0.00000  Uiso   1.00
H1530  H     0.05502   0.12259   0.92296   0.00000  Uiso   1.00
H1531  H     0.04828   0.06769   0.92206   0.00000  Uiso   1.00
H1532  H     0.27831   0.21074   0.74370   0.00000  Uiso   1.00
H1533  H     0.25405   0.23900   0.78646   0.00000  Uiso   1.00
H1534  H     0.28506   0.26564   0.74460   0.00000  Uiso   1.00
H1535  H     0.32047   0.14901   0.93238   0.00000  Uiso   1.00
H1536  H     0.31374   0.20133   0.94401   0.00000  Uiso   1.00
H1537  H     0.04164   0.18578   0.95809   0.00000  Uiso   1.00
H1538  H     0.27506   0.05828   0.79772   0.00000  Uiso   1.00
H1539  H     0.26971   0.06315   0.73549   0.00000  Uiso   1.00
H1540  H     0.26246   0.01262   0.75950   0.00000  Uiso   1.00
N1541  N     0.16668   0.16668   0.95069   0.00000  Uiso   1.00
N1542  N     0.16665   0.16666   0.71597   0.00000  Uiso   1.00
O1543  O     0.16666   0.10655   0.87291   0.00000  Uiso   1.00
O1544  O     0.01850   0.19560   0.88858   0.00000  Uiso   1.00
O1545  O     0.20109   0.04541   0.75966   0.00000  Uiso   1.00
O1546  O     0.13225   0.28793   0.90701   0.00000  Uiso   1.00
O1547  O     0.17337   0.29519   0.75001   0.00000  Uiso   1.00
O1548  O     0.15997   0.03814   0.91667   0.00000  Uiso   1.00
O1549  O     0.12201   0.09730   0.94692   0.00000  Uiso   1.00
O1550  O     0.21133   0.23603   0.71974   0.00000  Uiso   1.00
O1551  O     0.16667   0.22678   0.79375   0.00000  Uiso   1.00
O1552  O     0.16666   0.10654   0.79372   0.00000  Uiso   1.00
O1553  O     0.16667   0.22679   0.87294   0.00000  Uiso   1.00
O1554  O     0.09161   0.16667   0.86379   0.00000  Uiso   1.00
O1555  O     0.24172   0.16666   0.80288   0.00000  Uiso   1.00
O1556  O     0.09161   0.16666   0.78460   0.00000  Uiso   1.00
O1557  O     0.24172   0.16667   0.88207   0.00000  Uiso   1.00
O1558  O     0.31484   0.13773   0.77809   0.00000  Uiso   1.00
C1559  C     0.50248   0.08779   0.83394   0.00000  Uiso   1.00
C1560  C     0.49484   0.01977   0.87446   0.00000  Uiso   1.00
C1561  C     0.49486   0.29003   0.83161   0.00000  Uiso   1.00
C1562  C     0.50514   0.04330   0.83506   0.00000  Uiso   1.00
C1563  C     0.47083   0.13487   0.68726   0.00000  Uiso   1.00
C1564  C     0.52917   0.19847   0.97941   0.00000  Uiso   1.00
C1565  C     0.47221   0.13444   0.97126   0.00000  Uiso   1.00
C1566  C     0.52779   0.19890   0.69540   0.00000  Uiso   1.00
C1567  C     0.66075   0.15147   0.73443   0.00000  Uiso   1.00
C1568  C     0.33925   0.18186   0.93224   0.00000  Uiso   1.00
C1569  C     0.58770   0.04452   0.76379   0.00000  Uiso   1.00
C1570  C     0.49752   0.24554   0.83273   0.00000  Uiso   1.00
C1571  C     0.41230   0.28881   0.90288   0.00000  Uiso   1.00
C1572  C     0.45804   0.29330   0.72226   0.00000  Uiso   1.00
C1573  C     0.54199   0.04007   0.94439   0.00000  Uiso   1.00
C1574  C     0.44105   0.09795   0.70919   0.00000  Uiso   1.00
C1575  C     0.39065   0.07498   0.68268   0.00000  Uiso   1.00
C1576  C     0.55895   0.23538   0.95748   0.00000  Uiso   1.00
C1577  C     0.60935   0.25835   0.98399   0.00000  Uiso   1.00
C1578  C     0.40791   0.09654   0.91719   0.00000  Uiso   1.00
C1579  C     0.59209   0.23680   0.74948   0.00000  Uiso   1.00
C1580  C     0.40116   0.16583   0.82114   0.00000  Uiso   1.00
C1581  C     0.59884   0.16750   0.84552   0.00000  Uiso   1.00
C1582  C     0.34470   0.16128   0.81521   0.00000  Uiso   1.00
C1583  C     0.65530   0.17205   0.85146   0.00000  Uiso   1.00
C1584  C     0.51536   0.02322   0.79568   0.00000  Uiso   1.00
C1585  C     0.48464   0.31011   0.87099   0.00000  Uiso   1.00
C1586  C     0.50516   0.31357   0.79221   0.00000  Uiso   1.00
Cu1587 Cu    0.50000   0.16667   0.88022   0.00000  Uiso   1.00
Cu1588 Cu    0.50000   0.16666   0.78645   0.00000  Uiso   1.00
H1589  H     0.35292   0.13200   0.72266   0.00000  Uiso   1.00
H1590  H     0.39697   0.27018   0.93118   0.00000  Uiso   1.00
H1591  H     0.39161   0.27504   0.86895   0.00000  Uiso   1.00
H1592  H     0.40420   0.32070   0.90716   0.00000  Uiso   1.00
H1593  H     0.45901   0.27794   0.68849   0.00000  Uiso   1.00
H1594  H     0.44855   0.32471   0.71445   0.00000  Uiso   1.00
H1595  H     0.42727   0.27461   0.73905   0.00000  Uiso   1.00
H1596  H     0.55153   0.00868   0.95217   0.00000  Uiso   1.00
H1597  H     0.54103   0.05541   0.97817   0.00000  Uiso   1.00
H1598  H     0.57272   0.05879   0.92758   0.00000  Uiso   1.00
H1599  H     0.36829   0.09622   0.99508   0.00000  Uiso   1.00
H1600  H     0.34619   0.18432   0.73429   0.00000  Uiso   1.00
H1601  H     0.39841   0.04940   0.99469   0.00000  Uiso   1.00
H1602  H     0.36635   0.05985   0.70791   0.00000  Uiso   1.00
H1603  H     0.46671   0.07483   0.71727   0.00000  Uiso   1.00
H1604  H     0.42957   0.10845   0.74119   0.00000  Uiso   1.00
H1605  H     0.60160   0.28393   0.67198   0.00000  Uiso   1.00
H1606  H     0.63171   0.23711   0.67159   0.00000  Uiso   1.00
H1607  H     0.63366   0.27348   0.95876   0.00000  Uiso   1.00
H1608  H     0.57043   0.22488   0.92547   0.00000  Uiso   1.00
H1609  H     0.53330   0.25851   0.94940   0.00000  Uiso   1.00
H1610  H     0.41261   0.09433   0.88021   0.00000  Uiso   1.00
H1611  H     0.62503   0.14755   0.70857   0.00000  Uiso   1.00
H1612  H     0.38836   0.12259   0.92296   0.00000  Uiso   1.00
H1613  H     0.38161   0.06769   0.92206   0.00000  Uiso   1.00
H1614  H     0.61164   0.21074   0.74370   0.00000  Uiso   1.00
H1615  H     0.58739   0.23900   0.78646   0.00000  Uiso   1.00
H1616  H     0.61839   0.26564   0.74460   0.00000  Uiso   1.00
H1617  H     0.65381   0.14901   0.93238   0.00000  Uiso   1.00
H1618  H     0.64708   0.20133   0.94401   0.00000  Uiso   1.00
H1619  H     0.37497   0.18578   0.95809   0.00000  Uiso   1.00
H1620  H     0.60839   0.05828   0.79772   0.00000  Uiso   1.00
H1621  H     0.60304   0.06315   0.73549   0.00000  Uiso   1.00
H1622  H     0.59579   0.01262   0.75950   0.00000  Uiso   1.00
N1623  N     0.50001   0.16668   0.95069   0.00000  Uiso   1.00
N1624  N     0.49999   0.16666   0.71597   0.00000  Uiso   1.00
O1625  O     0.50000   0.10655   0.87291   0.00000  Uiso   1.00
O1626  O     0.35183   0.19560   0.88858   0.00000  Uiso   1.00
O1627  O     0.53442   0.04541   0.75966   0.00000  Uiso   1.00
O1628  O     0.46559   0.28793   0.90701   0.00000  Uiso   1.00
O1629  O     0.50671   0.29519   0.75001   0.00000  Uiso   1.00
O1630  O     0.49331   0.03814   0.91667   0.00000  Uiso   1.00
O1631  O     0.45534   0.09730   0.94692   0.00000  Uiso   1.00
O1632  O     0.54466   0.23603   0.71974   0.00000  Uiso   1.00
O1633  O     0.50000   0.22678   0.79375   0.00000  Uiso   1.00
O1634  O     0.50000   0.10654   0.79372   0.00000  Uiso   1.00
O1635  O     0.50000   0.22679   0.87294   0.00000  Uiso   1.00
O1636  O     0.42495   0.16667   0.86379   0.00000  Uiso   1.00
O1637  O     0.57505   0.16666   0.80288   0.00000  Uiso   1.00
O1638  O     0.42494   0.16666   0.78460   0.00000  Uiso   1.00
O1639  O     0.57506   0.16667   0.88207   0.00000  Uiso   1.00
O1640  O     0.64817   0.13773   0.77809   0.00000  Uiso   1.00
C1641  C     0.83581   0.08779   0.83394   0.00000  Uiso   1.00
C1642  C     0.82818   0.01977   0.87446   0.00000  Uiso   1.00
C1643  C     0.82819   0.29003   0.83161   0.00000  Uiso   1.00
C1644  C     0.83848   0.04330   0.83506   0.00000  Uiso   1.00
C1645  C     0.80417   0.13487   0.68726   0.00000  Uiso   1.00
C1646  C     0.86250   0.19847   0.97941   0.00000  Uiso   1.00
C1647  C     0.80554   0.13444   0.97126   0.00000  Uiso   1.00
C1648  C     0.86113   0.19890   0.69540   0.00000  Uiso   1.00
C1649  C     0.99408   0.15147   0.73443   0.00000  Uiso   1.00
C1650  C     0.67259   0.18186   0.93224   0.00000  Uiso   1.00
C1651  C     0.92103   0.04452   0.76379   0.00000  Uiso   1.00
C1652  C     0.83086   0.24554   0.83273   0.00000  Uiso   1.00
C1653  C     0.74564   0.28881   0.90288   0.00000  Uiso   1.00
C1654  C     0.79137   0.29330   0.72226   0.00000  Uiso   1.00
C1655  C     0.87533   0.04007   0.94439   0.00000  Uiso   1.00
C1656  C     0.77439   0.09795   0.70919   0.00000  Uiso   1.00
C1657  C     0.72399   0.07498   0.68268   0.00000  Uiso   1.00
C1658  C     0.89228   0.23538   0.95748   0.00000  Uiso   1.00
C1659  C     0.94268   0.25835   0.98399   0.00000  Uiso   1.00
C1660  C     0.74125   0.09654   0.91719   0.00000  Uiso   1.00
C1661  C     0.92542   0.23680   0.74948   0.00000  Uiso   1.00
C1662  C     0.73449   0.16583   0.82114   0.00000  Uiso   1.00
C1663  C     0.93218   0.16750   0.84552   0.00000  Uiso   1.00
C1664  C     0.67803   0.16128   0.81521   0.00000  Uiso   1.00
C1665  C     0.98863   0.17205   0.85146   0.00000  Uiso   1.00
C1666  C     0.84869   0.02322   0.79568   0.00000  Uiso   1.00
C1667  C     0.81798   0.31011   0.87099   0.00000  Uiso   1.00
C1668  C     0.83849   0.31357   0.79221   0.00000  Uiso   1.00
Cu1669 Cu    0.83333   0.16667   0.88022   0.00000  Uiso   1.00
Cu1670 Cu    0.83333   0.16666   0.78645   0.00000  Uiso   1.00
H1671  H     0.68625   0.13200   0.72266   0.00000  Uiso   1.00
H1672  H     0.73030   0.27018   0.93118   0.00000  Uiso   1.00
H1673  H     0.72495   0.27504   0.86895   0.00000  Uiso   1.00
H1674  H     0.73753   0.32070   0.90716   0.00000  Uiso   1.00
H1675  H     0.79234   0.27794   0.68849   0.00000  Uiso   1.00
H1676  H     0.78189   0.32471   0.71445   0.00000  Uiso   1.00
H1677  H     0.76060   0.27461   0.73905   0.00000  Uiso   1.00
H1678  H     0.88486   0.00868   0.95217   0.00000  Uiso   1.00
H1679  H     0.87436   0.05541   0.97817   0.00000  Uiso   1.00
H1680  H     0.90605   0.05879   0.92758   0.00000  Uiso   1.00
H1681  H     0.70162   0.09622   0.99508   0.00000  Uiso   1.00
H1682  H     0.67952   0.18432   0.73429   0.00000  Uiso   1.00
H1683  H     0.73174   0.04940   0.99469   0.00000  Uiso   1.00
H1684  H     0.69968   0.05985   0.70791   0.00000  Uiso   1.00
H1685  H     0.80004   0.07483   0.71727   0.00000  Uiso   1.00
H1686  H     0.76290   0.10845   0.74119   0.00000  Uiso   1.00
H1687  H     0.93493   0.28393   0.67198   0.00000  Uiso   1.00
H1688  H     0.96505   0.23711   0.67159   0.00000  Uiso   1.00
H1689  H     0.96699   0.27348   0.95876   0.00000  Uiso   1.00
H1690  H     0.90377   0.22488   0.92547   0.00000  Uiso   1.00
H1691  H     0.86663   0.25851   0.94940   0.00000  Uiso   1.00
H1692  H     0.74595   0.09433   0.88021   0.00000  Uiso   1.00
H1693  H     0.95836   0.14755   0.70857   0.00000  Uiso   1.00
H1694  H     0.72169   0.12259   0.92296   0.00000  Uiso   1.00
H1695  H     0.71495   0.06769   0.92206   0.00000  Uiso   1.00
H1696  H     0.94498   0.21074   0.74370   0.00000  Uiso   1.00
H1697  H     0.92072   0.23900   0.78646   0.00000  Uiso   1.00
H1698  H     0.95172   0.26564   0.74460   0.00000  Uiso   1.00
H1699  H     0.98714   0.14901   0.93238   0.00000  Uiso   1.00
H1700  H     0.98041   0.20133   0.94401   0.00000  Uiso   1.00
H1701  H     0.70831   0.18578   0.95809   0.00000  Uiso   1.00
H1702  H     0.94173   0.05828   0.79772   0.00000  Uiso   1.00
H1703  H     0.93637   0.06315   0.73549   0.00000  Uiso   1.00
H1704  H     0.92913   0.01262   0.75950   0.00000  Uiso   1.00
N1705  N     0.83335   0.16668   0.95069   0.00000  Uiso   1.00
N1706  N     0.83332   0.16666   0.71597   0.00000  Uiso   1.00
O1707  O     0.83333   0.10655   0.87291   0.00000  Uiso   1.00
O1708  O     0.68516   0.19560   0.88858   0.00000  Uiso   1.00
O1709  O     0.86775   0.04541   0.75966   0.00000  Uiso   1.00
O1710  O     0.79892   0.28793   0.90701   0.00000  Uiso   1.00
O1711  O     0.84004   0.29519   0.75001   0.00000  Uiso   1.00
O1712  O     0.82664   0.03814   0.91667   0.00000  Uiso   1.00
O1713  O     0.78868   0.09730   0.94692   0.00000  Uiso   1.00
O1714  O     0.87799   0.23603   0.71974   0.00000  Uiso   1.00
O1715  O     0.83334   0.22678   0.79375   0.00000  Uiso   1.00
O1716  O     0.83333   0.10654   0.79372   0.00000  Uiso   1.00
O1717  O     0.83334   0.22679   0.87294   0.00000  Uiso   1.00
O1718  O     0.75828   0.16667   0.86379   0.00000  Uiso   1.00
O1719  O     0.90839   0.16666   0.80288   0.00000  Uiso   1.00
O1720  O     0.75828   0.16666   0.78460   0.00000  Uiso   1.00
O1721  O     0.90839   0.16667   0.88207   0.00000  Uiso   1.00
O1722  O     0.98150   0.13773   0.77809   0.00000  Uiso   1.00
C1723  C     0.16914   0.42113   0.83394   0.00000  Uiso   1.00
C1724  C     0.16151   0.35310   0.87446   0.00000  Uiso   1.00
C1725  C     0.16153   0.62336   0.83161   0.00000  Uiso   1.00
C1726  C     0.17181   0.37664   0.83506   0.00000  Uiso   1.00
C1727  C     0.13750   0.46820   0.68726   0.00000  Uiso   1.00
C1728  C     0.19583   0.53180   0.97941   0.00000  Uiso   1.00
C1729  C     0.13887   0.46777   0.97126   0.00000  Uiso   1.00
C1730  C     0.19446   0.53223   0.69540   0.00000  Uiso   1.00
C1731  C     0.32741   0.48480   0.73443   0.00000  Uiso   1.00
C1732  C     0.00592   0.51519   0.93224   0.00000  Uiso   1.00
C1733  C     0.25437   0.37785   0.76379   0.00000  Uiso   1.00
C1734  C     0.16419   0.57887   0.83273   0.00000  Uiso   1.00
C1735  C     0.07897   0.62214   0.90288   0.00000  Uiso   1.00
C1736  C     0.12471   0.62663   0.72226   0.00000  Uiso   1.00
C1737  C     0.20866   0.37341   0.94439   0.00000  Uiso   1.00
C1738  C     0.10772   0.43129   0.70919   0.00000  Uiso   1.00
C1739  C     0.05732   0.40832   0.68268   0.00000  Uiso   1.00
C1740  C     0.22562   0.56871   0.95748   0.00000  Uiso   1.00
C1741  C     0.27601   0.59168   0.98399   0.00000  Uiso   1.00
C1742  C     0.07458   0.42987   0.91719   0.00000  Uiso   1.00
C1743  C     0.25875   0.57013   0.74948   0.00000  Uiso   1.00
C1744  C     0.06782   0.49916   0.82114   0.00000  Uiso   1.00
C1745  C     0.26551   0.50084   0.84552   0.00000  Uiso   1.00
C1746  C     0.01137   0.49461   0.81521   0.00000  Uiso   1.00
C1747  C     0.32197   0.50538   0.85146   0.00000  Uiso   1.00
C1748  C     0.18203   0.35656   0.79568   0.00000  Uiso   1.00
C1749  C     0.15131   0.64344   0.87099   0.00000  Uiso   1.00
C1750  C     0.17183   0.64690   0.79221   0.00000  Uiso   1.00
Cu1751 Cu    0.16667   0.50001   0.88022   0.00000  Uiso   1.00
Cu1752 Cu    0.16667   0.49999   0.78645   0.00000  Uiso   1.00
H1753  H     0.01959   0.46533   0.72266   0.00000  Uiso   1.00
H1754  H     0.06363   0.60351   0.93118   0.00000  Uiso   1.00
H1755  H     0.05828   0.60837   0.86895   0.00000  Uiso   1.00
H1756  H     0.07087   0.65404   0.90716   0.00000  Uiso   1.00
H1757  H     0.12567   0.61128   0.68849   0.00000  Uiso   1.00
H1758  H     0.11522   0.65804   0.71445   0.00000  Uiso   1.00
H1759  H     0.09394   0.60795   0.73905   0.00000  Uiso   1.00
H1760  H     0.21820   0.34201   0.95217   0.00000  Uiso   1.00
H1761  H     0.20770   0.38875   0.97817   0.00000  Uiso   1.00
H1762  H     0.23939   0.39212   0.92758   0.00000  Uiso   1.00
H1763  H     0.03496   0.42955   0.99508   0.00000  Uiso   1.00
H1764  H     0.01286   0.51765   0.73429   0.00000  Uiso   1.00
H1765  H     0.06507   0.38273   0.99469   0.00000  Uiso   1.00
H1766  H     0.03301   0.39318   0.70791   0.00000  Uiso   1.00
H1767  H     0.13337   0.40816   0.71727   0.00000  Uiso   1.00
H1768  H     0.09623   0.44178   0.74119   0.00000  Uiso   1.00
H1769  H     0.26826   0.61727   0.67198   0.00000  Uiso   1.00
H1770  H     0.29838   0.57045   0.67159   0.00000  Uiso   1.00
H1771  H     0.30032   0.60681   0.95876   0.00000  Uiso   1.00
H1772  H     0.23710   0.55822   0.92547   0.00000  Uiso   1.00
H1773  H     0.19996   0.59184   0.94940   0.00000  Uiso   1.00
H1774  H     0.07928   0.42767   0.88021   0.00000  Uiso   1.00
H1775  H     0.29169   0.48088   0.70857   0.00000  Uiso   1.00
H1776  H     0.05502   0.45592   0.92296   0.00000  Uiso   1.00
H1777  H     0.04828   0.40102   0.92206   0.00000  Uiso   1.00
H1778  H     0.27831   0.54408   0.74370   0.00000  Uiso   1.00
H1779  H     0.25405   0.57233   0.78646   0.00000  Uiso   1.00
H1780  H     0.28506   0.59898   0.74460   0.00000  Uiso   1.00
H1781  H     0.32047   0.48234   0.93238   0.00000  Uiso   1.00
H1782  H     0.31374   0.53466   0.94401   0.00000  Uiso   1.00
H1783  H     0.04164   0.51911   0.95809   0.00000  Uiso   1.00
H1784  H     0.27506   0.39162   0.79772   0.00000  Uiso   1.00
H1785  H     0.26971   0.39648   0.73549   0.00000  Uiso   1.00
H1786  H     0.26246   0.34596   0.75950   0.00000  Uiso   1.00
N1787  N     0.16668   0.50001   0.95069   0.00000  Uiso   1.00
N1788  N     0.16665   0.49999   0.71597   0.00000  Uiso   1.00
O1789  O     0.16666   0.43989   0.87291   0.00000  Uiso   1.00
O1790  O     0.01850   0.52893   0.88858   0.00000  Uiso   1.00
O1791  O     0.20109   0.37874   0.75966   0.00000  Uiso   1.00
O1792  O     0.13225   0.62126   0.90701   0.00000  Uiso   1.00
O1793  O     0.17337   0.62852   0.75001   0.00000  Uiso   1.00
O1794  O     0.15997   0.37148   0.91667   0.00000  Uiso   1.00
O1795  O     0.12201   0.43064   0.94692   0.00000  Uiso   1.00
O1796  O     0.21133   0.56936   0.71974   0.00000  Uiso   1.00
O1797  O     0.16667   0.56011   0.79375   0.00000  Uiso   1.00
O1798  O     0.16666   0.43988   0.79372   0.00000  Uiso   1.00
O1799  O     0.16667   0.56012   0.87294   0.00000  Uiso   1.00
O1800  O     0.09161   0.50000   0.86379   0.00000  Uiso   1.00
O1801  O     0.24172   0.50000   0.80288   0.00000  Uiso   1.00
O1802  O     0.09161   0.49999   0.78460   0.00000  Uiso   1.00
O1803  O     0.24172   0.50001   0.88207   0.00000  Uiso   1.00
O1804  O     0.31484   0.47106   0.77809   0.00000  Uiso   1.00
C1805  C     0.50248   0.42113   0.83394   0.00000  Uiso   1.00
C1806  C     0.49484   0.35310   0.87446   0.00000  Uiso   1.00
C1807  C     0.49486   0.62336   0.83161   0.00000  Uiso   1.00
C1808  C     0.50514   0.37664   0.83506   0.00000  Uiso   1.00
C1809  C     0.47083   0.46820   0.68726   0.00000  Uiso   1.00
C1810  C     0.52917   0.53180   0.97941   0.00000  Uiso   1.00
C1811  C     0.47221   0.46777   0.97126   0.00000  Uiso   1.00
C1812  C     0.52779   0.53223   0.69540   0.00000  Uiso   1.00
C1813  C     0.66075   0.48480   0.73443   0.00000  Uiso   1.00
C1814  C     0.33925   0.51519   0.93224   0.00000  Uiso   1.00
C1815  C     0.58770   0.37785   0.76379   0.00000  Uiso   1.00
C1816  C     0.49752   0.57887   0.83273   0.00000  Uiso   1.00
C1817  C     0.41230   0.62214   0.90288   0.00000  Uiso   1.00
C1818  C     0.45804   0.62663   0.72226   0.00000  Uiso   1.00
C1819  C     0.54199   0.37341   0.94439   0.00000  Uiso   1.00
C1820  C     0.44105   0.43129   0.70919   0.00000  Uiso   1.00
C1821  C     0.39065   0.40832   0.68268   0.00000  Uiso   1.00
C1822  C     0.55895   0.56871   0.95748   0.00000  Uiso   1.00
C1823  C     0.60935   0.59168   0.98399   0.00000  Uiso   1.00
C1824  C     0.40791   0.42987   0.91719   0.00000  Uiso   1.00
C1825  C     0.59209   0.57013   0.74948   0.00000  Uiso   1.00
C1826  C     0.40116   0.49916   0.82114   0.00000  Uiso   1.00
C1827  C     0.59884   0.50084   0.84552   0.00000  Uiso   1.00
C1828  C     0.34470   0.49461   0.81521   0.00000  Uiso   1.00
C1829  C     0.65530   0.50538   0.85146   0.00000  Uiso   1.00
C1830  C     0.51536   0.35656   0.79568   0.00000  Uiso   1.00
C1831  C     0.48464   0.64344   0.87099   0.00000  Uiso   1.00
C1832  C     0.50516   0.64690   0.79221   0.00000  Uiso   1.00
Cu1833 Cu    0.50000   0.50001   0.88022   0.00000  Uiso   1.00
Cu1834 Cu    0.50000   0.49999   0.78645   0.00000  Uiso   1.00
H1835  H     0.35292   0.46533   0.72266   0.00000  Uiso   1.00
H1836  H     0.39697   0.60351   0.93118   0.00000  Uiso   1.00
H1837  H     0.39161   0.60837   0.86895   0.00000  Uiso   1.00
H1838  H     0.40420   0.65404   0.90716   0.00000  Uiso   1.00
H1839  H     0.45901   0.61128   0.68849   0.00000  Uiso   1.00
H1840  H     0.44855   0.65804   0.71445   0.00000  Uiso   1.00
H1841  H     0.42727   0.60795   0.73905   0.00000  Uiso   1.00
H1842  H     0.55153   0.34201   0.95217   0.00000  Uiso   1.00
H1843  H     0.54103   0.38875   0.97817   0.00000  Uiso   1.00
H1844  H     0.57272   0.39212   0.92758   0.00000  Uiso   1.00
H1845  H     0.36829   0.42955   0.99508   0.00000  Uiso   1.00
H1846  H     0.34619   0.51765   0.73429   0.00000  Uiso   1.00
H1847  H     0.39841   0.38273   0.99469   0.00000  Uiso   1.00
H1848  H     0.36635   0.39318   0.70791   0.00000  Uiso   1.00
H1849  H     0.46671   0.40816   0.71727   0.00000  Uiso   1.00
H1850  H     0.42957   0.44178   0.74119   0.00000  Uiso   1.00
H1851  H     0.60160   0.61727   0.67198   0.00000  Uiso   1.00
H1852  H     0.63171   0.57045   0.67159   0.00000  Uiso   1.00
H1853  H     0.63366   0.60681   0.95876   0.00000  Uiso   1.00
H1854  H     0.57043   0.55822   0.92547   0.00000  Uiso   1.00
H1855  H     0.53330   0.59184   0.94940   0.00000  Uiso   1.00
H1856  H     0.41261   0.42767   0.88021   0.00000  Uiso   1.00
H1857  H     0.62503   0.48088   0.70857   0.00000  Uiso   1.00
H1858  H     0.38836   0.45592   0.92296   0.00000  Uiso   1.00
H1859  H     0.38161   0.40102   0.92206   0.00000  Uiso   1.00
H1860  H     0.61164   0.54408   0.74370   0.00000  Uiso   1.00
H1861  H     0.58739   0.57233   0.78646   0.00000  Uiso   1.00
H1862  H     0.61839   0.59898   0.74460   0.00000  Uiso   1.00
H1863  H     0.65381   0.48234   0.93238   0.00000  Uiso   1.00
H1864  H     0.64708   0.53466   0.94401   0.00000  Uiso   1.00
H1865  H     0.37497   0.51911   0.95809   0.00000  Uiso   1.00
H1866  H     0.60839   0.39162   0.79772   0.00000  Uiso   1.00
H1867  H     0.60304   0.39648   0.73549   0.00000  Uiso   1.00
H1868  H     0.59579   0.34596   0.75950   0.00000  Uiso   1.00
N1869  N     0.50001   0.50001   0.95069   0.00000  Uiso   1.00
N1870  N     0.49999   0.49999   0.71597   0.00000  Uiso   1.00
O1871  O     0.50000   0.43989   0.87291   0.00000  Uiso   1.00
O1872  O     0.35183   0.52893   0.88858   0.00000  Uiso   1.00
O1873  O     0.53442   0.37874   0.75966   0.00000  Uiso   1.00
O1874  O     0.46559   0.62126   0.90701   0.00000  Uiso   1.00
O1875  O     0.50671   0.62852   0.75001   0.00000  Uiso   1.00
O1876  O     0.49331   0.37148   0.91667   0.00000  Uiso   1.00
O1877  O     0.45534   0.43064   0.94692   0.00000  Uiso   1.00
O1878  O     0.54466   0.56936   0.71974   0.00000  Uiso   1.00
O1879  O     0.50000   0.56011   0.79375   0.00000  Uiso   1.00
O1880  O     0.50000   0.43988   0.79372   0.00000  Uiso   1.00
O1881  O     0.50000   0.56012   0.87294   0.00000  Uiso   1.00
O1882  O     0.42495   0.50000   0.86379   0.00000  Uiso   1.00
O1883  O     0.57505   0.50000   0.80288   0.00000  Uiso   1.00
O1884  O     0.42494   0.49999   0.78460   0.00000  Uiso   1.00
O1885  O     0.57506   0.50001   0.88207   0.00000  Uiso   1.00
O1886  O     0.64817   0.47106   0.77809   0.00000  Uiso   1.00
C1887  C     0.83581   0.42113   0.83394   0.00000  Uiso   1.00
C1888  C     0.82818   0.35310   0.87446   0.00000  Uiso   1.00
C1889  C     0.82819   0.62336   0.83161   0.00000  Uiso   1.00
C1890  C     0.83848   0.37664   0.83506   0.00000  Uiso   1.00
C1891  C     0.80417   0.46820   0.68726   0.00000  Uiso   1.00
C1892  C     0.86250   0.53180   0.97941   0.00000  Uiso   1.00
C1893  C     0.80554   0.46777   0.97126   0.00000  Uiso   1.00
C1894  C     0.86113   0.53223   0.69540   0.00000  Uiso   1.00
C1895  C     0.99408   0.48480   0.73443   0.00000  Uiso   1.00
C1896  C     0.67259   0.51519   0.93224   0.00000  Uiso   1.00
C1897  C     0.92103   0.37785   0.76379   0.00000  Uiso   1.00
C1898  C     0.83086   0.57887   0.83273   0.00000  Uiso   1.00
C1899  C     0.74564   0.62214   0.90288   0.00000  Uiso   1.00
C1900  C     0.79137   0.62663   0.72226   0.00000  Uiso   1.00
C1901  C     0.87533   0.37341   0.94439   0.00000  Uiso   1.00
C1902  C     0.77439   0.43129   0.70919   0.00000  Uiso   1.00
C1903  C     0.72399   0.40832   0.68268   0.00000  Uiso   1.00
C1904  C     0.89228   0.56871   0.95748   0.00000  Uiso   1.00
C1905  C     0.94268   0.59168   0.98399   0.00000  Uiso   1.00
C1906  C     0.74125   0.42987   0.91719   0.00000  Uiso   1.00
C1907  C     0.92542   0.57013   0.74948   0.00000  Uiso   1.00
C1908  C     0.73449   0.49916   0.82114   0.00000  Uiso   1.00
C1909  C     0.93218   0.50084   0.84552   0.00000  Uiso   1.00
C1910  C     0.67803   0.49461   0.81521   0.00000  Uiso   1.00
C1911  C     0.98863   0.50538   0.85146   0.00000  Uiso   1.00
C1912  C     0.84869   0.35656   0.79568   0.00000  Uiso   1.00
C1913  C     0.81798   0.64344   0.87099   0.00000  Uiso   1.00
C1914  C     0.83849   0.64690   0.79221   0.00000  Uiso   1.00
Cu1915 Cu    0.83333   0.50001   0.88022   0.00000  Uiso   1.00
Cu1916 Cu    0.83333   0.49999   0.78645   0.00000  Uiso   1.00
H1917  H     0.68625   0.46533   0.72266   0.00000  Uiso   1.00
H1918  H     0.73030   0.60351   0.93118   0.00000  Uiso   1.00
H1919  H     0.72495   0.60837   0.86895   0.00000  Uiso   1.00
H1920  H     0.73753   0.65404   0.90716   0.00000  Uiso   1.00
H1921  H     0.79234   0.61128   0.68849   0.00000  Uiso   1.00
H1922  H     0.78189   0.65804   0.71445   0.00000  Uiso   1.00
H1923  H     0.76060   0.60795   0.73905   0.00000  Uiso   1.00
H1924  H     0.88486   0.34201   0.95217   0.00000  Uiso   1.00
H1925  H     0.87436   0.38875   0.97817   0.00000  Uiso   1.00
H1926  H     0.90605   0.39212   0.92758   0.00000  Uiso   1.00
H1927  H     0.70162   0.42955   0.99508   0.00000  Uiso   1.00
H1928  H     0.67952   0.51765   0.73429   0.00000  Uiso   1.00
H1929  H     0.73174   0.38273   0.99469   0.00000  Uiso   1.00
H1930  H     0.69968   0.39318   0.70791   0.00000  Uiso   1.00
H1931  H     0.80004   0.40816   0.71727   0.00000  Uiso   1.00
H1932  H     0.76290   0.44178   0.74119   0.00000  Uiso   1.00
H1933  H     0.93493   0.61727   0.67198   0.00000  Uiso   1.00
H1934  H     0.96505   0.57045   0.67159   0.00000  Uiso   1.00
H1935  H     0.96699   0.60681   0.95876   0.00000  Uiso   1.00
H1936  H     0.90377   0.55822   0.92547   0.00000  Uiso   1.00
H1937  H     0.86663   0.59184   0.94940   0.00000  Uiso   1.00
H1938  H     0.74595   0.42767   0.88021   0.00000  Uiso   1.00
H1939  H     0.95836   0.48088   0.70857   0.00000  Uiso   1.00
H1940  H     0.72169   0.45592   0.92296   0.00000  Uiso   1.00
H1941  H     0.71495   0.40102   0.92206   0.00000  Uiso   1.00
H1942  H     0.94498   0.54408   0.74370   0.00000  Uiso   1.00
H1943  H     0.92072   0.57233   0.78646   0.00000  Uiso   1.00
H1944  H     0.95172   0.59898   0.74460   0.00000  Uiso   1.00
H1945  H     0.98714   0.48234   0.93238   0.00000  Uiso   1.00
H1946  H     0.98041   0.53466   0.94401   0.00000  Uiso   1.00
H1947  H     0.70831   0.51911   0.95809   0.00000  Uiso   1.00
H1948  H     0.94173   0.39162   0.79772   0.00000  Uiso   1.00
H1949  H     0.93637   0.39648   0.73549   0.00000  Uiso   1.00
H1950  H     0.92913   0.34596   0.75950   0.00000  Uiso   1.00
N1951  N     0.83335   0.50001   0.95069   0.00000  Uiso   1.00
N1952  N     0.83332   0.49999   0.71597   0.00000  Uiso   1.00
O1953  O     0.83333   0.43989   0.87291   0.00000  Uiso   1.00
O1954  O     0.68516   0.52893   0.88858   0.00000  Uiso   1.00
O1955  O     0.86775   0.37874   0.75966   0.00000  Uiso   1.00
O1956  O     0.79892   0.62126   0.90701   0.00000  Uiso   1.00
O1957  O     0.84004   0.62852   0.75001   0.00000  Uiso   1.00
O1958  O     0.82664   0.37148   0.91667   0.00000  Uiso   1.00
O1959  O     0.78868   0.43064   0.94692   0.00000  Uiso   1.00
O1960  O     0.87799   0.56936   0.71974   0.00000  Uiso   1.00
O1961  O     0.83334   0.56011   0.79375   0.00000  Uiso   1.00
O1962  O     0.83333   0.43988   0.79372   0.00000  Uiso   1.00
O1963  O     0.83334   0.56012   0.87294   0.00000  Uiso   1.00
O1964  O     0.75828   0.50000   0.86379   0.00000  Uiso   1.00
O1965  O     0.90839   0.50000   0.80288   0.00000  Uiso   1.00
O1966  O     0.75828   0.49999   0.78460   0.00000  Uiso   1.00
O1967  O     0.90839   0.50001   0.88207   0.00000  Uiso   1.00
O1968  O     0.98150   0.47106   0.77809   0.00000  Uiso   1.00
C1969  C     0.16914   0.75446   0.83394   0.00000  Uiso   1.00
C1970  C     0.16151   0.68643   0.87446   0.00000  Uiso   1.00
C1971  C     0.16153   0.95670   0.83161   0.00000  Uiso   1.00
C1972  C     0.17181   0.70997   0.83506   0.00000  Uiso   1.00
C1973  C     0.13750   0.80153   0.68726   0.00000  Uiso   1.00
C1974  C     0.19583   0.86513   0.97941   0.00000  Uiso   1.00
C1975  C     0.13887   0.80110   0.97126   0.00000  Uiso   1.00
C1976  C     0.19446   0.86556   0.69540   0.00000  Uiso   1.00
C1977  C     0.32741   0.81814   0.73443   0.00000  Uiso   1.00
C1978  C     0.00592   0.84853   0.93224   0.00000  Uiso   1.00
C1979  C     0.25437   0.71119   0.76379   0.00000  Uiso   1.00
C1980  C     0.16419   0.91221   0.83273   0.00000  Uiso   1.00
C1981  C     0.07897   0.95548   0.90288   0.00000  Uiso   1.00
C1982  C     0.12471   0.95996   0.72226   0.00000  Uiso   1.00
C1983  C     0.20866   0.70674   0.94439   0.00000  Uiso   1.00
C1984  C     0.10772   0.76462   0.70919   0.00000  Uiso   1.00
C1985  C     0.05732   0.74165   0.68268   0.00000  Uiso   1.00
C1986  C     0.22562   0.90205   0.95748   0.00000  Uiso   1.00
C1987  C     0.27601   0.92501   0.98399   0.00000  Uiso   1.00
C1988  C     0.07458   0.76320   0.91719   0.00000  Uiso   1.00
C1989  C     0.25875   0.90346   0.74948   0.00000  Uiso   1.00
C1990  C     0.06782   0.83250   0.82114   0.00000  Uiso   1.00
C1991  C     0.26551   0.83417   0.84552   0.00000  Uiso   1.00
C1992  C     0.01137   0.82795   0.81521   0.00000  Uiso   1.00
C1993  C     0.32197   0.83872   0.85146   0.00000  Uiso   1.00
C1994  C     0.18203   0.68989   0.79568   0.00000  Uiso   1.00
C1995  C     0.15131   0.97678   0.87099   0.00000  Uiso   1.00
C1996  C     0.17183   0.98023   0.79221   0.00000  Uiso   1.00
Cu1997 Cu    0.16667   0.83334   0.88022   0.00000  Uiso   1.00
Cu1998 Cu    0.16667   0.83333   0.78645   0.00000  Uiso   1.00
H1999  H     0.01959   0.79866   0.72266   0.00000  Uiso   1.00
H2000  H     0.06363   0.93685   0.93118   0.00000  Uiso   1.00
H2001  H     0.05828   0.94170   0.86895   0.00000  Uiso   1.00
H2002  H     0.07087   0.98737   0.90716   0.00000  Uiso   1.00
H2003  H     0.12567   0.94461   0.68849   0.00000  Uiso   1.00
H2004  H     0.11522   0.99137   0.71445   0.00000  Uiso   1.00
H2005  H     0.09394   0.94128   0.73905   0.00000  Uiso   1.00
H2006  H     0.21820   0.67535   0.95217   0.00000  Uiso   1.00
H2007  H     0.20770   0.72208   0.97817   0.00000  Uiso   1.00
H2008  H     0.23939   0.72546   0.92758   0.00000  Uiso   1.00
H2009  H     0.03496   0.76288   0.99508   0.00000  Uiso   1.00
H2010  H     0.01286   0.85098   0.73429   0.00000  Uiso   1.00
H2011  H     0.06507   0.71606   0.99469   0.00000  Uiso   1.00
H2012  H     0.03301   0.72652   0.70791   0.00000  Uiso   1.00
H2013  H     0.13337   0.74149   0.71727   0.00000  Uiso   1.00
H2014  H     0.09623   0.77512   0.74119   0.00000  Uiso   1.00
H2015  H     0.26826   0.95060   0.67198   0.00000  Uiso   1.00
H2016  H     0.29838   0.90378   0.67159   0.00000  Uiso   1.00
H2017  H     0.30032   0.94015   0.95876   0.00000  Uiso   1.00
H2018  H     0.23710   0.89155   0.92547   0.00000  Uiso   1.00
H2019  H     0.19996   0.92517   0.94940   0.00000  Uiso   1.00
H2020  H     0.07928   0.76100   0.88021   0.00000  Uiso   1.00
H2021  H     0.29169   0.81421   0.70857   0.00000  Uiso   1.00
H2022  H     0.05502   0.78925   0.92296   0.00000  Uiso   1.00
H2023  H     0.04828   0.73435   0.92206   0.00000  Uiso   1.00
H2024  H     0.27831   0.87741   0.74370   0.00000  Uiso   1.00
H2025  H     0.25405   0.90567   0.78646   0.00000  Uiso   1.00
H2026  H     0.28506   0.93231   0.74460   0.00000  Uiso   1.00
H2027  H     0.32047   0.81568   0.93238   0.00000  Uiso   1.00
H2028  H     0.31374   0.86800   0.94401   0.00000  Uiso   1.00
H2029  H     0.04164   0.85245   0.95809   0.00000  Uiso   1.00
H2030  H     0.27506   0.72495   0.79772   0.00000  Uiso   1.00
H2031  H     0.26971   0.72982   0.73549   0.00000  Uiso   1.00
H2032  H     0.26246   0.67929   0.75950   0.00000  Uiso   1.00
N2033  N     0.16668   0.83334   0.95069   0.00000  Uiso   1.00
N2034  N     0.16665   0.83332   0.71597   0.00000  Uiso   1.00
O2035  O     0.16666   0.77322   0.87291   0.00000  Uiso   1.00
O2036  O     0.01850   0.86227   0.88858   0.00000  Uiso   1.00
O2037  O     0.20109   0.71207   0.75966   0.00000  Uiso   1.00
O2038  O     0.13225   0.95460   0.90701   0.00000  Uiso   1.00
O2039  O     0.17337   0.96186   0.75001   0.00000  Uiso   1.00
O2040  O     0.15997   0.70481   0.91667   0.00000  Uiso   1.00
O2041  O     0.12201   0.76397   0.94692   0.00000  Uiso   1.00
O2042  O     0.21133   0.90270   0.71974   0.00000  Uiso   1.00
O2043  O     0.16667   0.89345   0.79375   0.00000  Uiso   1.00
O2044  O     0.16666   0.77321   0.79372   0.00000  Uiso   1.00
O2045  O     0.16667   0.89346   0.87294   0.00000  Uiso   1.00
O2046  O     0.09161   0.83334   0.86379   0.00000  Uiso   1.00
O2047  O     0.24172   0.83333   0.80288   0.00000  Uiso   1.00
O2048  O     0.09161   0.83333   0.78460   0.00000  Uiso   1.00
O2049  O     0.24172   0.83334   0.88207   0.00000  Uiso   1.00
O2050  O     0.31484   0.80440   0.77809   0.00000  Uiso   1.00
C2051  C     0.50248   0.75446   0.83394   0.00000  Uiso   1.00
C2052  C     0.49484   0.68643   0.87446   0.00000  Uiso   1.00
C2053  C     0.49486   0.95670   0.83161   0.00000  Uiso   1.00
C2054  C     0.50514   0.70997   0.83506   0.00000  Uiso   1.00
C2055  C     0.47083   0.80153   0.68726   0.00000  Uiso   1.00
C2056  C     0.52917   0.86513   0.97941   0.00000  Uiso   1.00
C2057  C     0.47221   0.80110   0.97126   0.00000  Uiso   1.00
C2058  C     0.52779   0.86556   0.69540   0.00000  Uiso   1.00
C2059  C     0.66075   0.81814   0.73443   0.00000  Uiso   1.00
C2060  C     0.33925   0.84853   0.93224   0.00000  Uiso   1.00
C2061  C     0.58770   0.71119   0.76379   0.00000  Uiso   1.00
C2062  C     0.49752   0.91221   0.83273   0.00000  Uiso   1.00
C2063  C     0.41230   0.95548   0.90288   0.00000  Uiso   1.00
C2064  C     0.45804   0.95996   0.72226   0.00000  Uiso   1.00
C2065  C     0.54199   0.70674   0.94439   0.00000  Uiso   1.00
C2066  C     0.44105   0.76462   0.70919   0.00000  Uiso   1.00
C2067  C     0.39065   0.74165   0.68268   0.00000  Uiso   1.00
C2068  C     0.55895   0.90205   0.95748   0.00000  Uiso   1.00
C2069  C     0.60935   0.92501   0.98399   0.00000  Uiso   1.00
C2070  C     0.40791   0.76320   0.91719   0.00000  Uiso   1.00
C2071  C     0.59209   0.90346   0.74948   0.00000  Uiso   1.00
C2072  C     0.40116   0.83250   0.82114   0.00000  Uiso   1.00
C2073  C     0.59884   0.83417   0.84552   0.00000  Uiso   1.00
C2074  C     0.34470   0.82795   0.81521   0.00000  Uiso   1.00
C2075  C     0.65530   0.83872   0.85146   0.00000  Uiso   1.00
C2076  C     0.51536   0.68989   0.79568   0.00000  Uiso   1.00
C2077  C     0.48464   0.97678   0.87099   0.00000  Uiso   1.00
C2078  C     0.50516   0.98023   0.79221   0.00000  Uiso   1.00
Cu2079 Cu    0.50000   0.83334   0.88022   0.00000  Uiso   1.00
Cu2080 Cu    0.50000   0.83333   0.78645   0.00000  Uiso   1.00
H2081  H     0.35292   0.79866   0.72266   0.00000  Uiso   1.00
H2082  H     0.39697   0.93685   0.93118   0.00000  Uiso   1.00
H2083  H     0.39161   0.94170   0.86895   0.00000  Uiso   1.00
H2084  H     0.40420   0.98737   0.90716   0.00000  Uiso   1.00
H2085  H     0.45901   0.94461   0.68849   0.00000  Uiso   1.00
H2086  H     0.44855   0.99137   0.71445   0.00000  Uiso   1.00
H2087  H     0.42727   0.94128   0.73905   0.00000  Uiso   1.00
H2088  H     0.55153   0.67535   0.95217   0.00000  Uiso   1.00
H2089  H     0.54103   0.72208   0.97817   0.00000  Uiso   1.00
H2090  H     0.57272   0.72546   0.92758   0.00000  Uiso   1.00
H2091  H     0.36829   0.76288   0.99508   0.00000  Uiso   1.00
H2092  H     0.34619   0.85098   0.73429   0.00000  Uiso   1.00
H2093  H     0.39841   0.71606   0.99469   0.00000  Uiso   1.00
H2094  H     0.36635   0.72652   0.70791   0.00000  Uiso   1.00
H2095  H     0.46671   0.74149   0.71727   0.00000  Uiso   1.00
H2096  H     0.42957   0.77512   0.74119   0.00000  Uiso   1.00
H2097  H     0.60160   0.95060   0.67198   0.00000  Uiso   1.00
H2098  H     0.63171   0.90378   0.67159   0.00000  Uiso   1.00
H2099  H     0.63366   0.94015   0.95876   0.00000  Uiso   1.00
H2100  H     0.57043   0.89155   0.92547   0.00000  Uiso   1.00
H2101  H     0.53330   0.92517   0.94940   0.00000  Uiso   1.00
H2102  H     0.41261   0.76100   0.88021   0.00000  Uiso   1.00
H2103  H     0.62503   0.81421   0.70857   0.00000  Uiso   1.00
H2104  H     0.38836   0.78925   0.92296   0.00000  Uiso   1.00
H2105  H     0.38161   0.73435   0.92206   0.00000  Uiso   1.00
H2106  H     0.61164   0.87741   0.74370   0.00000  Uiso   1.00
H2107  H     0.58739   0.90567   0.78646   0.00000  Uiso   1.00
H2108  H     0.61839   0.93231   0.74460   0.00000  Uiso   1.00
H2109  H     0.65381   0.81568   0.93238   0.00000  Uiso   1.00
H2110  H     0.64708   0.86800   0.94401   0.00000  Uiso   1.00
H2111  H     0.37497   0.85245   0.95809   0.00000  Uiso   1.00
H2112  H     0.60839   0.72495   0.79772   0.00000  Uiso   1.00
H2113  H     0.60304   0.72982   0.73549   0.00000  Uiso   1.00
H2114  H     0.59579   0.67929   0.75950   0.00000  Uiso   1.00
N2115  N     0.50001   0.83334   0.95069   0.00000  Uiso   1.00
N2116  N     0.49999   0.83332   0.71597   0.00000  Uiso   1.00
O2117  O     0.50000   0.77322   0.87291   0.00000  Uiso   1.00
O2118  O     0.35183   0.86227   0.88858   0.00000  Uiso   1.00
O2119  O     0.53442   0.71207   0.75966   0.00000  Uiso   1.00
O2120  O     0.46559   0.95460   0.90701   0.00000  Uiso   1.00
O2121  O     0.50671   0.96186   0.75001   0.00000  Uiso   1.00
O2122  O     0.49331   0.70481   0.91667   0.00000  Uiso   1.00
O2123  O     0.45534   0.76397   0.94692   0.00000  Uiso   1.00
O2124  O     0.54466   0.90270   0.71974   0.00000  Uiso   1.00
O2125  O     0.50000   0.89345   0.79375   0.00000  Uiso   1.00
O2126  O     0.50000   0.77321   0.79372   0.00000  Uiso   1.00
O2127  O     0.50000   0.89346   0.87294   0.00000  Uiso   1.00
O2128  O     0.42495   0.83334   0.86379   0.00000  Uiso   1.00
O2129  O     0.57505   0.83333   0.80288   0.00000  Uiso   1.00
O2130  O     0.42494   0.83333   0.78460   0.00000  Uiso   1.00
O2131  O     0.57506   0.83334   0.88207   0.00000  Uiso   1.00
O2132  O     0.64817   0.80440   0.77809   0.00000  Uiso   1.00
C2133  C     0.83581   0.75446   0.83394   0.00000  Uiso   1.00
C2134  C     0.82818   0.68643   0.87446   0.00000  Uiso   1.00
C2135  C     0.82819   0.95670   0.83161   0.00000  Uiso   1.00
C2136  C     0.83848   0.70997   0.83506   0.00000  Uiso   1.00
C2137  C     0.80417   0.80153   0.68726   0.00000  Uiso   1.00
C2138  C     0.86250   0.86513   0.97941   0.00000  Uiso   1.00
C2139  C     0.80554   0.80110   0.97126   0.00000  Uiso   1.00
C2140  C     0.86113   0.86556   0.69540   0.00000  Uiso   1.00
C2141  C     0.99408   0.81814   0.73443   0.00000  Uiso   1.00
C2142  C     0.67259   0.84853   0.93224   0.00000  Uiso   1.00
C2143  C     0.92103   0.71119   0.76379   0.00000  Uiso   1.00
C2144  C     0.83086   0.91221   0.83273   0.00000  Uiso   1.00
C2145  C     0.74564   0.95548   0.90288   0.00000  Uiso   1.00
C2146  C     0.79137   0.95996   0.72226   0.00000  Uiso   1.00
C2147  C     0.87533   0.70674   0.94439   0.00000  Uiso   1.00
C2148  C     0.77439   0.76462   0.70919   0.00000  Uiso   1.00
C2149  C     0.72399   0.74165   0.68268   0.00000  Uiso   1.00
C2150  C     0.89228   0.90205   0.95748   0.00000  Uiso   1.00
C2151  C     0.94268   0.92501   0.98399   0.00000  Uiso   1.00
C2152  C     0.74125   0.76320   0.91719   0.00000  Uiso   1.00
C2153  C     0.92542   0.90346   0.74948   0.00000  Uiso   1.00
C2154  C     0.73449   0.83250   0.82114   0.00000  Uiso   1.00
C2155  C     0.93218   0.83417   0.84552   0.00000  Uiso   1.00
C2156  C     0.67803   0.82795   0.81521   0.00000  Uiso   1.00
C2157  C     0.98863   0.83872   0.85146   0.00000  Uiso   1.00
C2158  C     0.84869   0.68989   0.79568   0.00000  Uiso   1.00
C2159  C     0.81798   0.97678   0.87099   0.00000  Uiso   1.00
C2160  C     0.83849   0.98023   0.79221   0.00000  Uiso   1.00
Cu2161 Cu    0.83333   0.83334   0.88022   0.00000  Uiso   1.00
Cu2162 Cu    0.83333   0.83333   0.78645   0.00000  Uiso   1.00
H2163  H     0.68625   0.79866   0.72266   0.00000  Uiso   1.00
H2164  H     0.73030   0.93685   0.93118   0.00000  Uiso   1.00
H2165  H     0.72495   0.94170   0.86895   0.00000  Uiso   1.00
H2166  H     0.73753   0.98737   0.90716   0.00000  Uiso   1.00
H2167  H     0.79234   0.94461   0.68849   0.00000  Uiso   1.00
H2168  H     0.78189   0.99137   0.71445   0.00000  Uiso   1.00
H2169  H     0.76060   0.94128   0.73905   0.00000  Uiso   1.00
H2170  H     0.88486   0.67535   0.95217   0.00000  Uiso   1.00
H2171  H     0.87436   0.72208   0.97817   0.00000  Uiso   1.00
H2172  H     0.90605   0.72546   0.92758   0.00000  Uiso   1.00
H2173  H     0.70162   0.76288   0.99508   0.00000  Uiso   1.00
H2174  H     0.67952   0.85098   0.73429   0.00000  Uiso   1.00
H2175  H     0.73174   0.71606   0.99469   0.00000  Uiso   1.00
H2176  H     0.69968   0.72652   0.70791   0.00000  Uiso   1.00
H2177  H     0.80004   0.74149   0.71727   0.00000  Uiso   1.00
H2178  H     0.76290   0.77512   0.74119   0.00000  Uiso   1.00
H2179  H     0.93493   0.95060   0.67198   0.00000  Uiso   1.00
H2180  H     0.96505   0.90378   0.67159   0.00000  Uiso   1.00
H2181  H     0.96699   0.94015   0.95876   0.00000  Uiso   1.00
H2182  H     0.90377   0.89155   0.92547   0.00000  Uiso   1.00
H2183  H     0.86663   0.92517   0.94940   0.00000  Uiso   1.00
H2184  H     0.74595   0.76100   0.88021   0.00000  Uiso   1.00
H2185  H     0.95836   0.81421   0.70857   0.00000  Uiso   1.00
H2186  H     0.72169   0.78925   0.92296   0.00000  Uiso   1.00
H2187  H     0.71495   0.73435   0.92206   0.00000  Uiso   1.00
H2188  H     0.94498   0.87741   0.74370   0.00000  Uiso   1.00
H2189  H     0.92072   0.90567   0.78646   0.00000  Uiso   1.00
H2190  H     0.95172   0.93231   0.74460   0.00000  Uiso   1.00
H2191  H     0.98714   0.81568   0.93238   0.00000  Uiso   1.00
H2192  H     0.98041   0.86800   0.94401   0.00000  Uiso   1.00
H2193  H     0.70831   0.85245   0.95809   0.00000  Uiso   1.00
H2194  H     0.94173   0.72495   0.79772   0.00000  Uiso   1.00
H2195  H     0.93637   0.72982   0.73549   0.00000  Uiso   1.00
H2196  H     0.92913   0.67929   0.75950   0.00000  Uiso   1.00
N2197  N     0.83335   0.83334   0.95069   0.00000  Uiso   1.00
N2198  N     0.83332   0.83332   0.71597   0.00000  Uiso   1.00
O2199  O     0.83333   0.77322   0.87291   0.00000  Uiso   1.00
O2200  O     0.68516   0.86227   0.88858   0.00000  Uiso   1.00
O2201  O     0.86775   0.71207   0.75966   0.00000  Uiso   1.00
O2202  O     0.79892   0.95460   0.90701   0.00000  Uiso   1.00
O2203  O     0.84004   0.96186   0.75001   0.00000  Uiso   1.00
O2204  O     0.82664   0.70481   0.91667   0.00000  Uiso   1.00
O2205  O     0.78868   0.76397   0.94692   0.00000  Uiso   1.00
O2206  O     0.87799   0.90270   0.71974   0.00000  Uiso   1.00
O2207  O     0.83334   0.89345   0.79375   0.00000  Uiso   1.00
O2208  O     0.83333   0.77321   0.79372   0.00000  Uiso   1.00
O2209  O     0.83334   0.89346   0.87294   0.00000  Uiso   1.00
O2210  O     0.75828   0.83334   0.86379   0.00000  Uiso   1.00
O2211  O     0.90839   0.83333   0.80288   0.00000  Uiso   1.00
O2212  O     0.75828   0.83333   0.78460   0.00000  Uiso   1.00
O2213  O     0.90839   0.83334   0.88207   0.00000  Uiso   1.00
O2214  O     0.98150   0.80440   0.77809   0.00000  Uiso   1.00
loop_
_geom_bond_atom_site_label_1
_geom_bond_atom_site_label_2
_geom_bond_distance
_geom_bond_site_symmetry_2
_ccdc_geom_bond_type
C1     O76     1.313   .     A
C1     C4      1.472   .     S
C1     O67     1.306   .     A
C2     O72     1.377   .     S
C2     C4      1.412   .     A
C2     C519    1.395   1_545 S
C3     C28     1.412   .     A
C3     C12     1.472   .     S
C3     C27     1.404   .     A
C4     C26     1.404   .     A
C5     C16     1.529   .     S
C5     N66     1.394   .     A
C5     C1483   1.437   1_554 S
C6     N65     1.394   .     A
C6     C18     1.529   .     S
C6     C746    1.437   .     S
C7     O73     1.388   .     S
C7     N65     1.378   .     A
C7     C743    1.437   .     S
C8     N66     1.378   .     A
C8     O74     1.388   .     S
C8     C1482   1.437   1_554 S
C9     O82     1.411   .     S
C9     H53     1.110   .     S
C9     H113    1.093   .     S
C9     H124    1.114   .     S
C10    H61     1.110   .     S
C10    O68     1.411   .     S
C10    H223    1.114   1_455 S
C10    H224    1.093   1_455 S
C11    H62     1.114   .     S
C11    H63     1.109   .     S
C11    H64     1.112   .     S
C11    O69     1.410   .     S
C12    O77     1.313   .     A
C12    O75     1.306   .     A
C13    H32     1.109   .     S
C13    H33     1.114   .     S
C13    O70     1.410   .     S
C13    H34     1.112   .     S
C14    O71     1.412   .     S
C14    H36     1.113   .     S
C14    H35     1.110   .     S
C14    H37     1.114   .     S
C15    O72     1.412   .     S
C15    H38     1.113   .     S
C15    H39     1.110   .     S
C15    H40     1.114   .     S
C16    C17     1.529   .     S
C16    H46     1.094   .     S
C16    H45     1.100   .     S
C17    H44     1.112   .     S
C17    H1517   1.107   1_554 S
C17    H1519   1.109   1_554 S
C18    C19     1.529   .     S
C18    H51     1.100   .     S
C18    H50     1.094   .     S
C19    H49     1.112   .     S
C19    H785    1.109   .     S
C19    H786    1.107   .     S
C20    H55     1.106   .     S
C20    H54     1.095   .     S
C20    H52     1.103   .     S
C20    O73     1.415   .     S
C21    O74     1.415   .     S
C21    H56     1.095   .     S
C21    H57     1.103   .     S
C21    H58     1.106   .     S
C22    O78     1.301   .     A
C22    C24     1.470   .     S
C22    O80     1.312   .     A
C23    O81     1.312   .     A
C23    C25     1.470   .     S
C23    O79     1.301   .     A
C24    C189    1.364   1_455 S
C24    O246    1.395   1_455 S
C25    C106    1.364   .     S
C25    O150    1.395   .     S
C26    O69     1.383   .     S
C26    C520    1.395   1_545 S
C27    O70     1.383   .     S
C27    C248    1.395   .     S
C28    O71     1.377   .     S
C28    C272    1.395   .     S
Cu29   O67     1.985   .     S
Cu29   O78     1.983   .     S
Cu29   O81     1.991   .     S
Cu29   Cu30    2.720   .     S
Cu29   N65     2.044   .     S
Cu29   O77     1.982   .     S
Cu30   O80     1.991   .     S
Cu30   O76     1.982   .     S
Cu30   N66     2.044   .     S
Cu30   O79     1.983   .     S
Cu30   O75     1.985   .     S
H31    C173    1.093   1_455 S
H41    C755    1.107   .     S
H42    C173    1.114   1_455 S
H43    C755    1.109   .     S
H47    C1495   1.109   1_554 S
H48    C1495   1.107   1_554 S
H59    C92     1.114   .     S
H60    C92     1.093   .     S
O68    C189    1.395   1_455 S
O82    C106    1.395   .     S
C83    O158    1.313   .     A
C83    C86     1.472   .     S
C83    O149    1.306   .     A
C84    O154    1.377   .     S
C84    C86     1.412   .     A
C84    C601    1.395   1_545 S
C85    C110    1.412   .     A
C85    C94     1.472   .     S
C85    C109    1.404   .     A
C86    C108    1.404   .     A
C87    C98     1.529   .     S
C87    N148    1.394   .     A
C87    C1565   1.437   1_554 S
C88    N147    1.394   .     A
C88    C100    1.529   .     S
C88    C828    1.437   .     S
C89    O155    1.388   .     S
C89    N147    1.378   .     A
C89    C825    1.437   .     S
C90    N148    1.378   .     A
C90    O156    1.388   .     S
C90    C1564   1.437   1_554 S
C91    O164    1.411   .     S
C91    H135    1.110   .     S
C91    H195    1.093   .     S
C91    H206    1.114   .     S
C92    H143    1.110   .     S
C92    O150    1.411   .     S
C93    H144    1.114   .     S
C93    H145    1.109   .     S
C93    H146    1.112   .     S
C93    O151    1.410   .     S
C94    O159    1.313   .     A
C94    O157    1.306   .     A
C95    H114    1.109   .     S
C95    H115    1.114   .     S
C95    O152    1.410   .     S
C95    H116    1.112   .     S
C96    O153    1.412   .     S
C96    H118    1.113   .     S
C96    H117    1.110   .     S
C96    H119    1.114   .     S
C97    O154    1.412   .     S
C97    H120    1.113   .     S
C97    H121    1.110   .     S
C97    H122    1.114   .     S
C98    C99     1.529   .     S
C98    H128    1.094   .     S
C98    H127    1.100   .     S
C99    H126    1.112   .     S
C99    H1599   1.107   1_554 S
C99    H1601   1.109   1_554 S
C100   C101    1.529   .     S
C100   H133    1.100   .     S
C100   H132    1.094   .     S
C101   H131    1.112   .     S
C101   H867    1.109   .     S
C101   H868    1.107   .     S
C102   H137    1.106   .     S
C102   H136    1.095   .     S
C102   H134    1.103   .     S
C102   O155    1.415   .     S
C103   O156    1.415   .     S
C103   H138    1.095   .     S
C103   H139    1.103   .     S
C103   H140    1.106   .     S
C104   O160    1.301   .     A
C104   C106    1.470   .     S
C104   O162    1.312   .     A
C105   O163    1.312   .     A
C105   C107    1.470   .     S
C105   O161    1.301   .     A
C107   C188    1.364   .     S
C107   O232    1.395   .     S
C108   O151    1.383   .     S
C108   C602    1.395   1_545 S
C109   O152    1.383   .     S
C109   C330    1.395   .     S
C110   O153    1.377   .     S
C110   C354    1.395   .     S
Cu111  O149    1.985   .     S
Cu111  O160    1.983   .     S
Cu111  O163    1.991   .     S
Cu111  Cu112   2.720   .     S
Cu111  N147    2.044   .     S
Cu111  O159    1.982   .     S
Cu112  O162    1.991   .     S
Cu112  O158    1.982   .     S
Cu112  N148    2.044   .     S
Cu112  O161    1.983   .     S
Cu112  O157    1.985   .     S
H123   C837    1.107   .     S
H125   C837    1.109   .     S
H129   C1577   1.109   1_554 S
H130   C1577   1.107   1_554 S
H141   C174    1.114   .     S
H142   C174    1.093   .     S
O164   C188    1.395   .     S
C165   O240    1.313   .     A
C165   C168    1.472   .     S
C165   O231    1.306   .     A
C166   O236    1.377   .     S
C166   C168    1.412   .     A
C166   C683    1.395   1_545 S
C167   C192    1.412   .     A
C167   C176    1.472   .     S
C167   C191    1.404   .     A
C168   C190    1.404   .     A
C169   C180    1.529   .     S
C169   N230    1.394   .     A
C169   C1647   1.437   1_554 S
C170   N229    1.394   .     A
C170   C182    1.529   .     S
C170   C910    1.437   .     S
C171   O237    1.388   .     S
C171   N229    1.378   .     A
C171   C907    1.437   .     S
C172   N230    1.378   .     A
C172   O238    1.388   .     S
C172   C1646   1.437   1_554 S
C173   O246    1.411   .     S
C173   H217    1.110   .     S
C173   H31     1.093   1_655 S
C173   H42     1.114   1_655 S
C174   H225    1.110   .     S
C174   O232    1.411   .     S
C175   H226    1.114   .     S
C175   H227    1.109   .     S
C175   H228    1.112   .     S
C175   O233    1.410   .     S
C176   O241    1.313   .     A
C176   O239    1.306   .     A
C177   H196    1.109   .     S
C177   H197    1.114   .     S
C177   O234    1.410   .     S
C177   H198    1.112   .     S
C178   O235    1.412   .     S
C178   H200    1.113   .     S
C178   H199    1.110   .     S
C178   H201    1.114   .     S
C179   O236    1.412   .     S
C179   H202    1.113   .     S
C179   H203    1.110   .     S
C179   H204    1.114   .     S
C180   C181    1.529   .     S
C180   H210    1.094   .     S
C180   H209    1.100   .     S
C181   H208    1.112   .     S
C181   H1681   1.107   1_554 S
C181   H1683   1.109   1_554 S
C182   C183    1.529   .     S
C182   H215    1.100   .     S
C182   H214    1.094   .     S
C183   H213    1.112   .     S
C183   H949    1.109   .     S
C183   H950    1.107   .     S
C184   H219    1.106   .     S
C184   H218    1.095   .     S
C184   H216    1.103   .     S
C184   O237    1.415   .     S
C185   O238    1.415   .     S
C185   H220    1.095   .     S
C185   H221    1.103   .     S
C185   H222    1.106   .     S
C186   O242    1.301   .     A
C186   C188    1.470   .     S
C186   O244    1.312   .     A
C187   O245    1.312   .     A
C187   C189    1.470   .     S
C187   O243    1.301   .     A
C189   C24     1.364   1_655 S
C189   O68     1.395   1_655 S
C190   O233    1.383   .     S
C190   C684    1.395   1_545 S
C191   O234    1.383   .     S
C191   C412    1.395   .     S
C192   O235    1.377   .     S
C192   C436    1.395   .     S
Cu193  O231    1.985   .     S
Cu193  O242    1.983   .     S
Cu193  O245    1.991   .     S
Cu193  Cu194   2.720   .     S
Cu193  N229    2.044   .     S
Cu193  O241    1.982   .     S
Cu194  O244    1.991   .     S
Cu194  O240    1.982   .     S
Cu194  N230    2.044   .     S
Cu194  O243    1.983   .     S
Cu194  O239    1.985   .     S
H205   C919    1.107   .     S
H207   C919    1.109   .     S
H211   C1659   1.109   1_554 S
H212   C1659   1.107   1_554 S
H223   C10     1.114   1_655 S
H224   C10     1.093   1_655 S
O246   C24     1.395   1_655 S
C247   O322    1.313   .     A
C247   C250    1.472   .     S
C247   O313    1.306   .     A
C248   O318    1.377   .     S
C248   C250    1.412   .     A
C249   C274    1.412   .     A
C249   C258    1.472   .     S
C249   C273    1.404   .     A
C250   C272    1.404   .     A
C251   C262    1.529   .     S
C251   N312    1.394   .     A
C251   C1729   1.437   1_554 S
C252   N311    1.394   .     A
C252   C264    1.529   .     S
C252   C992    1.437   .     S
C253   O319    1.388   .     S
C253   N311    1.378   .     A
C253   C989    1.437   .     S
C254   N312    1.378   .     A
C254   O320    1.388   .     S
C254   C1728   1.437   1_554 S
C255   O328    1.411   .     S
C255   H299    1.110   .     S
C255   H359    1.093   .     S
C255   H370    1.114   .     S
C256   H307    1.110   .     S
C256   O314    1.411   .     S
C256   H469    1.114   1_455 S
C256   H470    1.093   1_455 S
C257   H308    1.114   .     S
C257   H309    1.109   .     S
C257   H310    1.112   .     S
C257   O315    1.410   .     S
C258   O323    1.313   .     A
C258   O321    1.306   .     A
C259   H278    1.109   .     S
C259   H279    1.114   .     S
C259   O316    1.410   .     S
C259   H280    1.112   .     S
C260   O317    1.412   .     S
C260   H282    1.113   .     S
C260   H281    1.110   .     S
C260   H283    1.114   .     S
C261   O318    1.412   .     S
C261   H284    1.113   .     S
C261   H285    1.110   .     S
C261   H286    1.114   .     S
C262   C263    1.529   .     S
C262   H292    1.094   .     S
C262   H291    1.100   .     S
C263   H290    1.112   .     S
C263   H1763   1.107   1_554 S
C263   H1765   1.109   1_554 S
C264   C265    1.529   .     S
C264   H297    1.100   .     S
C264   H296    1.094   .     S
C265   H295    1.112   .     S
C265   H1031   1.109   .     S
C265   H1032   1.107   .     S
C266   H301    1.106   .     S
C266   H300    1.095   .     S
C266   H298    1.103   .     S
C266   O319    1.415   .     S
C267   O320    1.415   .     S
C267   H302    1.095   .     S
C267   H303    1.103   .     S
C267   H304    1.106   .     S
C268   O324    1.301   .     A
C268   C270    1.470   .     S
C268   O326    1.312   .     A
C269   O327    1.312   .     A
C269   C271    1.470   .     S
C269   O325    1.301   .     A
C270   C435    1.364   1_455 S
C270   O492    1.395   1_455 S
C271   C352    1.364   .     S
C271   O396    1.395   .     S
C272   O315    1.383   .     S
C273   O316    1.383   .     S
C273   C494    1.395   .     S
C274   O317    1.377   .     S
C274   C518    1.395   .     S
Cu275  O313    1.985   .     S
Cu275  O324    1.983   .     S
Cu275  O327    1.991   .     S
Cu275  Cu276   2.720   .     S
Cu275  N311    2.044   .     S
Cu275  O323    1.982   .     S
Cu276  O326    1.991   .     S
Cu276  O322    1.982   .     S
Cu276  N312    2.044   .     S
Cu276  O325    1.983   .     S
Cu276  O321    1.985   .     S
H277   C419    1.093   1_455 S
H287   C1001   1.107   .     S
H288   C419    1.114   1_455 S
H289   C1001   1.109   .     S
H293   C1741   1.109   1_554 S
H294   C1741   1.107   1_554 S
H305   C338    1.114   .     S
H306   C338    1.093   .     S
O314   C435    1.395   1_455 S
O328   C352    1.395   .     S
C329   O404    1.313   .     A
C329   C332    1.472   .     S
C329   O395    1.306   .     A
C330   O400    1.377   .     S
C330   C332    1.412   .     A
C331   C356    1.412   .     A
C331   C340    1.472   .     S
C331   C355    1.404   .     A
C332   C354    1.404   .     A
C333   C344    1.529   .     S
C333   N394    1.394   .     A
C333   C1811   1.437   1_554 S
C334   N393    1.394   .     A
C334   C346    1.529   .     S
C334   C1074   1.437   .     S
C335   O401    1.388   .     S
C335   N393    1.378   .     A
C335   C1071   1.437   .     S
C336   N394    1.378   .     A
C336   O402    1.388   .     S
C336   C1810   1.437   1_554 S
C337   O410    1.411   .     S
C337   H381    1.110   .     S
C337   H441    1.093   .     S
C337   H452    1.114   .     S
C338   H389    1.110   .     S
C338   O396    1.411   .     S
C339   H390    1.114   .     S
C339   H391    1.109   .     S
C339   H392    1.112   .     S
C339   O397    1.410   .     S
C340   O405    1.313   .     A
C340   O403    1.306   .     A
C341   H360    1.109   .     S
C341   H361    1.114   .     S
C341   O398    1.410   .     S
C341   H362    1.112   .     S
C342   O399    1.412   .     S
C342   H364    1.113   .     S
C342   H363    1.110   .     S
C342   H365    1.114   .     S
C343   O400    1.412   .     S
C343   H366    1.113   .     S
C343   H367    1.110   .     S
C343   H368    1.114   .     S
C344   C345    1.529   .     S
C344   H374    1.094   .     S
C344   H373    1.100   .     S
C345   H372    1.112   .     S
C345   H1845   1.107   1_554 S
C345   H1847   1.109   1_554 S
C346   C347    1.529   .     S
C346   H379    1.100   .     S
C346   H378    1.094   .     S
C347   H377    1.112   .     S
C347   H1113   1.109   .     S
C347   H1114   1.107   .     S
C348   H383    1.106   .     S
C348   H382    1.095   .     S
C348   H380    1.103   .     S
C348   O401    1.415   .     S
C349   O402    1.415   .     S
C349   H384    1.095   .     S
C349   H385    1.103   .     S
C349   H386    1.106   .     S
C350   O406    1.301   .     A
C350   C352    1.470   .     S
C350   O408    1.312   .     A
C351   O409    1.312   .     A
C351   C353    1.470   .     S
C351   O407    1.301   .     A
C353   C434    1.364   .     S
C353   O478    1.395   .     S
C354   O397    1.383   .     S
C355   O398    1.383   .     S
C355   C576    1.395   .     S
C356   O399    1.377   .     S
C356   C600    1.395   .     S
Cu357  O395    1.985   .     S
Cu357  O406    1.983   .     S
Cu357  O409    1.991   .     S
Cu357  Cu358   2.720   .     S
Cu357  N393    2.044   .     S
Cu357  O405    1.982   .     S
Cu358  O408    1.991   .     S
Cu358  O404    1.982   .     S
Cu358  N394    2.044   .     S
Cu358  O407    1.983   .     S
Cu358  O403    1.985   .     S
H369   C1083   1.107   .     S
H371   C1083   1.109   .     S
H375   C1823   1.109   1_554 S
H376   C1823   1.107   1_554 S
H387   C420    1.114   .     S
H388   C420    1.093   .     S
O410   C434    1.395   .     S
C411   O486    1.313   .     A
C411   C414    1.472   .     S
C411   O477    1.306   .     A
C412   O482    1.377   .     S
C412   C414    1.412   .     A
C413   C438    1.412   .     A
C413   C422    1.472   .     S
C413   C437    1.404   .     A
C414   C436    1.404   .     A
C415   C426    1.529   .     S
C415   N476    1.394   .     A
C415   C1893   1.437   1_554 S
C416   N475    1.394   .     A
C416   C428    1.529   .     S
C416   C1156   1.437   .     S
C417   O483    1.388   .     S
C417   N475    1.378   .     A
C417   C1153   1.437   .     S
C418   N476    1.378   .     A
C418   O484    1.388   .     S
C418   C1892   1.437   1_554 S
C419   O492    1.411   .     S
C419   H463    1.110   .     S
C419   H277    1.093   1_655 S
C419   H288    1.114   1_655 S
C420   H471    1.110   .     S
C420   O478    1.411   .     S
C421   H472    1.114   .     S
C421   H473    1.109   .     S
C421   H474    1.112   .     S
C421   O479    1.410   .     S
C422   O487    1.313   .     A
C422   O485    1.306   .     A
C423   H442    1.109   .     S
C423   H443    1.114   .     S
C423   O480    1.410   .     S
C423   H444    1.112   .     S
C424   O481    1.412   .     S
C424   H446    1.113   .     S
C424   H445    1.110   .     S
C424   H447    1.114   .     S
C425   O482    1.412   .     S
C425   H448    1.113   .     S
C425   H449    1.110   .     S
C425   H450    1.114   .     S
C426   C427    1.529   .     S
C426   H456    1.094   .     S
C426   H455    1.100   .     S
C427   H454    1.112   .     S
C427   H1927   1.107   1_554 S
C427   H1929   1.109   1_554 S
C428   C429    1.529   .     S
C428   H461    1.100   .     S
C428   H460    1.094   .     S
C429   H459    1.112   .     S
C429   H1195   1.109   .     S
C429   H1196   1.107   .     S
C430   H465    1.106   .     S
C430   H464    1.095   .     S
C430   H462    1.103   .     S
C430   O483    1.415   .     S
C431   O484    1.415   .     S
C431   H466    1.095   .     S
C431   H467    1.103   .     S
C431   H468    1.106   .     S
C432   O488    1.301   .     A
C432   C434    1.470   .     S
C432   O490    1.312   .     A
C433   O491    1.312   .     A
C433   C435    1.470   .     S
C433   O489    1.301   .     A
C435   C270    1.364   1_655 S
C435   O314    1.395   1_655 S
C436   O479    1.383   .     S
C437   O480    1.383   .     S
C437   C658    1.395   .     S
C438   O481    1.377   .     S
C438   C682    1.395   .     S
Cu439  O477    1.985   .     S
Cu439  O488    1.983   .     S
Cu439  O491    1.991   .     S
Cu439  Cu440   2.720   .     S
Cu439  N475    2.044   .     S
Cu439  O487    1.982   .     S
Cu440  O490    1.991   .     S
Cu440  O486    1.982   .     S
Cu440  N476    2.044   .     S
Cu440  O489    1.983   .     S
Cu440  O485    1.985   .     S
H451   C1165   1.107   .     S
H453   C1165   1.109   .     S
H457   C1905   1.109   1_554 S
H458   C1905   1.107   1_554 S
H469   C256    1.114   1_655 S
H470   C256    1.093   1_655 S
O492   C270    1.395   1_655 S
C493   O568    1.313   .     A
C493   C496    1.472   .     S
C493   O559    1.306   .     A
C494   O564    1.377   .     S
C494   C496    1.412   .     A
C495   C520    1.412   .     A
C495   C504    1.472   .     S
C495   C519    1.404   .     A
C496   C518    1.404   .     A
C497   C508    1.529   .     S
C497   N558    1.394   .     A
C497   C1975   1.437   1_554 S
C498   N557    1.394   .     A
C498   C510    1.529   .     S
C498   C1238   1.437   .     S
C499   O565    1.388   .     S
C499   N557    1.378   .     A
C499   C1235   1.437   .     S
C500   N558    1.378   .     A
C500   O566    1.388   .     S
C500   C1974   1.437   1_554 S
C501   O574    1.411   .     S
C501   H545    1.110   .     S
C501   H605    1.093   .     S
C501   H616    1.114   .     S
C502   H553    1.110   .     S
C502   O560    1.411   .     S
C502   H715    1.114   1_455 S
C502   H716    1.093   1_455 S
C503   H554    1.114   .     S
C503   H555    1.109   .     S
C503   H556    1.112   .     S
C503   O561    1.410   .     S
C504   O569    1.313   .     A
C504   O567    1.306   .     A
C505   H524    1.109   .     S
C505   H525    1.114   .     S
C505   O562    1.410   .     S
C505   H526    1.112   .     S
C506   O563    1.412   .     S
C506   H528    1.113   .     S
C506   H527    1.110   .     S
C506   H529    1.114   .     S
C507   O564    1.412   .     S
C507   H530    1.113   .     S
C507   H531    1.110   .     S
C507   H532    1.114   .     S
C508   C509    1.529   .     S
C508   H538    1.094   .     S
C508   H537    1.100   .     S
C509   H536    1.112   .     S
C509   H2009   1.107   1_554 S
C509   H2011   1.109   1_554 S
C510   C511    1.529   .     S
C510   H543    1.100   .     S
C510   H542    1.094   .     S
C511   H541    1.112   .     S
C511   H1277   1.109   .     S
C511   H1278   1.107   .     S
C512   H547    1.106   .     S
C512   H546    1.095   .     S
C512   H544    1.103   .     S
C512   O565    1.415   .     S
C513   O566    1.415   .     S
C513   H548    1.095   .     S
C513   H549    1.103   .     S
C513   H550    1.106   .     S
C514   O570    1.301   .     A
C514   C516    1.470   .     S
C514   O572    1.312   .     A
C515   O573    1.312   .     A
C515   C517    1.470   .     S
C515   O571    1.301   .     A
C516   C681    1.364   1_455 S
C516   O738    1.395   1_455 S
C517   C598    1.364   .     S
C517   O642    1.395   .     S
C518   O561    1.383   .     S
C519   O562    1.383   .     S
C519   C2      1.395   1_565 S
C520   O563    1.377   .     S
C520   C26     1.395   1_565 S
Cu521  O559    1.985   .     S
Cu521  O570    1.983   .     S
Cu521  O573    1.991   .     S
Cu521  Cu522   2.720   .     S
Cu521  N557    2.044   .     S
Cu521  O569    1.982   .     S
Cu522  O572    1.991   .     S
Cu522  O568    1.982   .     S
Cu522  N558    2.044   .     S
Cu522  O571    1.983   .     S
Cu522  O567    1.985   .     S
H523   C665    1.093   1_455 S
H533   C1247   1.107   .     S
H534   C665    1.114   1_455 S
H535   C1247   1.109   .     S
H539   C1987   1.109   1_554 S
H540   C1987   1.107   1_554 S
H551   C584    1.114   .     S
H552   C584    1.093   .     S
O560   C681    1.395   1_455 S
O574   C598    1.395   .     S
C575   O650    1.313   .     A
C575   C578    1.472   .     S
C575   O641    1.306   .     A
C576   O646    1.377   .     S
C576   C578    1.412   .     A
C577   C602    1.412   .     A
C577   C586    1.472   .     S
C577   C601    1.404   .     A
C578   C600    1.404   .     A
C579   C590    1.529   .     S
C579   N640    1.394   .     A
C579   C2057   1.437   1_554 S
C580   N639    1.394   .     A
C580   C592    1.529   .     S
C580   C1320   1.437   .     S
C581   O647    1.388   .     S
C581   N639    1.378   .     A
C581   C1317   1.437   .     S
C582   N640    1.378   .     A
C582   O648    1.388   .     S
C582   C2056   1.437   1_554 S
C583   O656    1.411   .     S
C583   H627    1.110   .     S
C583   H687    1.093   .     S
C583   H698    1.114   .     S
C584   H635    1.110   .     S
C584   O642    1.411   .     S
C585   H636    1.114   .     S
C585   H637    1.109   .     S
C585   H638    1.112   .     S
C585   O643    1.410   .     S
C586   O651    1.313   .     A
C586   O649    1.306   .     A
C587   H606    1.109   .     S
C587   H607    1.114   .     S
C587   O644    1.410   .     S
C587   H608    1.112   .     S
C588   O645    1.412   .     S
C588   H610    1.113   .     S
C588   H609    1.110   .     S
C588   H611    1.114   .     S
C589   O646    1.412   .     S
C589   H612    1.113   .     S
C589   H613    1.110   .     S
C589   H614    1.114   .     S
C590   C591    1.529   .     S
C590   H620    1.094   .     S
C590   H619    1.100   .     S
C591   H618    1.112   .     S
C591   H2091   1.107   1_554 S
C591   H2093   1.109   1_554 S
C592   C593    1.529   .     S
C592   H625    1.100   .     S
C592   H624    1.094   .     S
C593   H623    1.112   .     S
C593   H1359   1.109   .     S
C593   H1360   1.107   .     S
C594   H629    1.106   .     S
C594   H628    1.095   .     S
C594   H626    1.103   .     S
C594   O647    1.415   .     S
C595   O648    1.415   .     S
C595   H630    1.095   .     S
C595   H631    1.103   .     S
C595   H632    1.106   .     S
C596   O652    1.301   .     A
C596   C598    1.470   .     S
C596   O654    1.312   .     A
C597   O655    1.312   .     A
C597   C599    1.470   .     S
C597   O653    1.301   .     A
C599   C680    1.364   .     S
C599   O724    1.395   .     S
C600   O643    1.383   .     S
C601   O644    1.383   .     S
C601   C84     1.395   1_565 S
C602   O645    1.377   .     S
C602   C108    1.395   1_565 S
Cu603  O641    1.985   .     S
Cu603  O652    1.983   .     S
Cu603  O655    1.991   .     S
Cu603  Cu604   2.720   .     S
Cu603  N639    2.044   .     S
Cu603  O651    1.982   .     S
Cu604  O654    1.991   .     S
Cu604  O650    1.982   .     S
Cu604  N640    2.044   .     S
Cu604  O653    1.983   .     S
Cu604  O649    1.985   .     S
H615   C1329   1.107   .     S
H617   C1329   1.109   .     S
H621   C2069   1.109   1_554 S
H622   C2069   1.107   1_554 S
H633   C666    1.114   .     S
H634   C666    1.093   .     S
O656   C680    1.395   .     S
C657   O732    1.313   .     A
C657   C660    1.472   .     S
C657   O723    1.306   .     A
C658   O728    1.377   .     S
C658   C660    1.412   .     A
C659   C684    1.412   .     A
C659   C668    1.472   .     S
C659   C683    1.404   .     A
C660   C682    1.404   .     A
C661   C672    1.529   .     S
C661   N722    1.394   .     A
C661   C2139   1.437   1_554 S
C662   N721    1.394   .     A
C662   C674    1.529   .     S
C662   C1402   1.437   .     S
C663   O729    1.388   .     S
C663   N721    1.378   .     A
C663   C1399   1.437   .     S
C664   N722    1.378   .     A
C664   O730    1.388   .     S
C664   C2138   1.437   1_554 S
C665   O738    1.411   .     S
C665   H709    1.110   .     S
C665   H523    1.093   1_655 S
C665   H534    1.114   1_655 S
C666   H717    1.110   .     S
C666   O724    1.411   .     S
C667   H718    1.114   .     S
C667   H719    1.109   .     S
C667   H720    1.112   .     S
C667   O725    1.410   .     S
C668   O733    1.313   .     A
C668   O731    1.306   .     A
C669   H688    1.109   .     S
C669   H689    1.114   .     S
C669   O726    1.410   .     S
C669   H690    1.112   .     S
C670   O727    1.412   .     S
C670   H692    1.113   .     S
C670   H691    1.110   .     S
C670   H693    1.114   .     S
C671   O728    1.412   .     S
C671   H694    1.113   .     S
C671   H695    1.110   .     S
C671   H696    1.114   .     S
C672   C673    1.529   .     S
C672   H702    1.094   .     S
C672   H701    1.100   .     S
C673   H700    1.112   .     S
C673   H2173   1.107   1_554 S
C673   H2175   1.109   1_554 S
C674   C675    1.529   .     S
C674   H707    1.100   .     S
C674   H706    1.094   .     S
C675   H705    1.112   .     S
C675   H1441   1.109   .     S
C675   H1442   1.107   .     S
C676   H711    1.106   .     S
C676   H710    1.095   .     S
C676   H708    1.103   .     S
C676   O729    1.415   .     S
C677   O730    1.415   .     S
C677   H712    1.095   .     S
C677   H713    1.103   .     S
C677   H714    1.106   .     S
C678   O734    1.301   .     A
C678   C680    1.470   .     S
C678   O736    1.312   .     A
C679   O737    1.312   .     A
C679   C681    1.470   .     S
C679   O735    1.301   .     A
C681   C516    1.364   1_655 S
C681   O560    1.395   1_655 S
C682   O725    1.383   .     S
C683   O726    1.383   .     S
C683   C166    1.395   1_565 S
C684   O727    1.377   .     S
C684   C190    1.395   1_565 S
Cu685  O723    1.985   .     S
Cu685  O734    1.983   .     S
Cu685  O737    1.991   .     S
Cu685  Cu686   2.720   .     S
Cu685  N721    2.044   .     S
Cu685  O733    1.982   .     S
Cu686  O736    1.991   .     S
Cu686  O732    1.982   .     S
Cu686  N722    2.044   .     S
Cu686  O735    1.983   .     S
Cu686  O731    1.985   .     S
H697   C1411   1.107   .     S
H699   C1411   1.109   .     S
H703   C2151   1.109   1_554 S
H704   C2151   1.107   1_554 S
H715   C502    1.114   1_655 S
H716   C502    1.093   1_655 S
O738   C516    1.395   1_655 S
C739   O814    1.313   .     A
C739   C742    1.472   .     S
C739   O805    1.306   .     A
C740   O810    1.377   .     S
C740   C742    1.412   .     A
C740   C1257   1.395   1_545 S
C741   C766    1.412   .     A
C741   C750    1.472   .     S
C741   C765    1.404   .     A
C742   C764    1.404   .     A
C743   C754    1.529   .     S
C743   N804    1.394   .     A
C744   N803    1.394   .     A
C744   C756    1.529   .     S
C744   C1484   1.437   .     S
C745   O811    1.388   .     S
C745   N803    1.378   .     A
C745   C1481   1.437   .     S
C746   N804    1.378   .     A
C746   O812    1.388   .     S
C747   O820    1.411   .     S
C747   H791    1.110   .     S
C747   H851    1.093   .     S
C747   H862    1.114   .     S
C748   H799    1.110   .     S
C748   O806    1.411   .     S
C748   H961    1.114   1_455 S
C748   H962    1.093   1_455 S
C749   H800    1.114   .     S
C749   H801    1.109   .     S
C749   H802    1.112   .     S
C749   O807    1.410   .     S
C750   O815    1.313   .     A
C750   O813    1.306   .     A
C751   H770    1.109   .     S
C751   H771    1.114   .     S
C751   O808    1.410   .     S
C751   H772    1.112   .     S
C752   O809    1.412   .     S
C752   H774    1.113   .     S
C752   H773    1.110   .     S
C752   H775    1.114   .     S
C753   O810    1.412   .     S
C753   H776    1.113   .     S
C753   H777    1.110   .     S
C753   H778    1.114   .     S
C754   C755    1.529   .     S
C754   H784    1.094   .     S
C754   H783    1.100   .     S
C755   H782    1.112   .     S
C756   C757    1.529   .     S
C756   H789    1.100   .     S
C756   H788    1.094   .     S
C757   H787    1.112   .     S
C757   H1523   1.109   .     S
C757   H1524   1.107   .     S
C758   H793    1.106   .     S
C758   H792    1.095   .     S
C758   H790    1.103   .     S
C758   O811    1.415   .     S
C759   O812    1.415   .     S
C759   H794    1.095   .     S
C759   H795    1.103   .     S
C759   H796    1.106   .     S
C760   O816    1.301   .     A
C760   C762    1.470   .     S
C760   O818    1.312   .     A
C761   O819    1.312   .     A
C761   C763    1.470   .     S
C761   O817    1.301   .     A
C762   C927    1.364   1_455 S
C762   O984    1.395   1_455 S
C763   C844    1.364   .     S
C763   O888    1.395   .     S
C764   O807    1.383   .     S
C764   C1258   1.395   1_545 S
C765   O808    1.383   .     S
C765   C986    1.395   .     S
C766   O809    1.377   .     S
C766   C1010   1.395   .     S
Cu767  O805    1.985   .     S
Cu767  O816    1.983   .     S
Cu767  O819    1.991   .     S
Cu767  Cu768   2.720   .     S
Cu767  N803    2.044   .     S
Cu767  O815    1.982   .     S
Cu768  O818    1.991   .     S
Cu768  O814    1.982   .     S
Cu768  N804    2.044   .     S
Cu768  O817    1.983   .     S
Cu768  O813    1.985   .     S
H769   C911    1.093   1_455 S
H779   C1493   1.107   .     S
H780   C911    1.114   1_455 S
H781   C1493   1.109   .     S
H797   C830    1.114   .     S
H798   C830    1.093   .     S
O806   C927    1.395   1_455 S
O820   C844    1.395   .     S
C821   O896    1.313   .     A
C821   C824    1.472   .     S
C821   O887    1.306   .     A
C822   O892    1.377   .     S
C822   C824    1.412   .     A
C822   C1339   1.395   1_545 S
C823   C848    1.412   .     A
C823   C832    1.472   .     S
C823   C847    1.404   .     A
C824   C846    1.404   .     A
C825   C836    1.529   .     S
C825   N886    1.394   .     A
C826   N885    1.394   .     A
C826   C838    1.529   .     S
C826   C1566   1.437   .     S
C827   O893    1.388   .     S
C827   N885    1.378   .     A
C827   C1563   1.437   .     S
C828   N886    1.378   .     A
C828   O894    1.388   .     S
C829   O902    1.411   .     S
C829   H873    1.110   .     S
C829   H933    1.093   .     S
C829   H944    1.114   .     S
C830   H881    1.110   .     S
C830   O888    1.411   .     S
C831   H882    1.114   .     S
C831   H883    1.109   .     S
C831   H884    1.112   .     S
C831   O889    1.410   .     S
C832   O897    1.313   .     A
C832   O895    1.306   .     A
C833   H852    1.109   .     S
C833   H853    1.114   .     S
C833   O890    1.410   .     S
C833   H854    1.112   .     S
C834   O891    1.412   .     S
C834   H856    1.113   .     S
C834   H855    1.110   .     S
C834   H857    1.114   .     S
C835   O892    1.412   .     S
C835   H858    1.113   .     S
C835   H859    1.110   .     S
C835   H860    1.114   .     S
C836   C837    1.529   .     S
C836   H866    1.094   .     S
C836   H865    1.100   .     S
C837   H864    1.112   .     S
C838   C839    1.529   .     S
C838   H871    1.100   .     S
C838   H870    1.094   .     S
C839   H869    1.112   .     S
C839   H1605   1.109   .     S
C839   H1606   1.107   .     S
C840   H875    1.106   .     S
C840   H874    1.095   .     S
C840   H872    1.103   .     S
C840   O893    1.415   .     S
C841   O894    1.415   .     S
C841   H876    1.095   .     S
C841   H877    1.103   .     S
C841   H878    1.106   .     S
C842   O898    1.301   .     A
C842   C844    1.470   .     S
C842   O900    1.312   .     A
C843   O901    1.312   .     A
C843   C845    1.470   .     S
C843   O899    1.301   .     A
C845   C926    1.364   .     S
C845   O970    1.395   .     S
C846   O889    1.383   .     S
C846   C1340   1.395   1_545 S
C847   O890    1.383   .     S
C847   C1068   1.395   .     S
C848   O891    1.377   .     S
C848   C1092   1.395   .     S
Cu849  O887    1.985   .     S
Cu849  O898    1.983   .     S
Cu849  O901    1.991   .     S
Cu849  Cu850   2.720   .     S
Cu849  N885    2.044   .     S
Cu849  O897    1.982   .     S
Cu850  O900    1.991   .     S
Cu850  O896    1.982   .     S
Cu850  N886    2.044   .     S
Cu850  O899    1.983   .     S
Cu850  O895    1.985   .     S
H861   C1575   1.107   .     S
H863   C1575   1.109   .     S
H879   C912    1.114   .     S
H880   C912    1.093   .     S
O902   C926    1.395   .     S
C903   O978    1.313   .     A
C903   C906    1.472   .     S
C903   O969    1.306   .     A
C904   O974    1.377   .     S
C904   C906    1.412   .     A
C904   C1421   1.395   1_545 S
C905   C930    1.412   .     A
C905   C914    1.472   .     S
C905   C929    1.404   .     A
C906   C928    1.404   .     A
C907   C918    1.529   .     S
C907   N968    1.394   .     A
C908   N967    1.394   .     A
C908   C920    1.529   .     S
C908   C1648   1.437   .     S
C909   O975    1.388   .     S
C909   N967    1.378   .     A
C909   C1645   1.437   .     S
C910   N968    1.378   .     A
C910   O976    1.388   .     S
C911   O984    1.411   .     S
C911   H955    1.110   .     S
C911   H769    1.093   1_655 S
C911   H780    1.114   1_655 S
C912   H963    1.110   .     S
C912   O970    1.411   .     S
C913   H964    1.114   .     S
C913   H965    1.109   .     S
C913   H966    1.112   .     S
C913   O971    1.410   .     S
C914   O979    1.313   .     A
C914   O977    1.306   .     A
C915   H934    1.109   .     S
C915   H935    1.114   .     S
C915   O972    1.410   .     S
C915   H936    1.112   .     S
C916   O973    1.412   .     S
C916   H938    1.113   .     S
C916   H937    1.110   .     S
C916   H939    1.114   .     S
C917   O974    1.412   .     S
C917   H940    1.113   .     S
C917   H941    1.110   .     S
C917   H942    1.114   .     S
C918   C919    1.529   .     S
C918   H948    1.094   .     S
C918   H947    1.100   .     S
C919   H946    1.112   .     S
C920   C921    1.529   .     S
C920   H953    1.100   .     S
C920   H952    1.094   .     S
C921   H951    1.112   .     S
C921   H1687   1.109   .     S
C921   H1688   1.107   .     S
C922   H957    1.106   .     S
C922   H956    1.095   .     S
C922   H954    1.103   .     S
C922   O975    1.415   .     S
C923   O976    1.415   .     S
C923   H958    1.095   .     S
C923   H959    1.103   .     S
C923   H960    1.106   .     S
C924   O980    1.301   .     A
C924   C926    1.470   .     S
C924   O982    1.312   .     A
C925   O983    1.312   .     A
C925   C927    1.470   .     S
C925   O981    1.301   .     A
C927   C762    1.364   1_655 S
C927   O806    1.395   1_655 S
C928   O971    1.383   .     S
C928   C1422   1.395   1_545 S
C929   O972    1.383   .     S
C929   C1150   1.395   .     S
C930   O973    1.377   .     S
C930   C1174   1.395   .     S
Cu931  O969    1.985   .     S
Cu931  O980    1.983   .     S
Cu931  O983    1.991   .     S
Cu931  Cu932   2.720   .     S
Cu931  N967    2.044   .     S
Cu931  O979    1.982   .     S
Cu932  O982    1.991   .     S
Cu932  O978    1.982   .     S
Cu932  N968    2.044   .     S
Cu932  O981    1.983   .     S
Cu932  O977    1.985   .     S
H943   C1657   1.107   .     S
H945   C1657   1.109   .     S
H961   C748    1.114   1_655 S
H962   C748    1.093   1_655 S
O984   C762    1.395   1_655 S
C985   O1060   1.313   .     A
C985   C988    1.472   .     S
C985   O1051   1.306   .     A
C986   O1056   1.377   .     S
C986   C988    1.412   .     A
C987   C1012   1.412   .     A
C987   C996    1.472   .     S
C987   C1011   1.404   .     A
C988   C1010   1.404   .     A
C989   C1000   1.529   .     S
C989   N1050   1.394   .     A
C990   N1049   1.394   .     A
C990   C1002   1.529   .     S
C990   C1730   1.437   .     S
C991   O1057   1.388   .     S
C991   N1049   1.378   .     A
C991   C1727   1.437   .     S
C992   N1050   1.378   .     A
C992   O1058   1.388   .     S
C993   O1066   1.411   .     S
C993   H1037   1.110   .     S
C993   H1097   1.093   .     S
C993   H1108   1.114   .     S
C994   H1045   1.110   .     S
C994   O1052   1.411   .     S
C994   H1207   1.114   1_455 S
C994   H1208   1.093   1_455 S
C995   H1046   1.114   .     S
C995   H1047   1.109   .     S
C995   H1048   1.112   .     S
C995   O1053   1.410   .     S
C996   O1061   1.313   .     A
C996   O1059   1.306   .     A
C997   H1016   1.109   .     S
C997   H1017   1.114   .     S
C997   O1054   1.410   .     S
C997   H1018   1.112   .     S
C998   O1055   1.412   .     S
C998   H1020   1.113   .     S
C998   H1019   1.110   .     S
C998   H1021   1.114   .     S
C999   O1056   1.412   .     S
C999   H1022   1.113   .     S
C999   H1023   1.110   .     S
C999   H1024   1.114   .     S
C1000  C1001   1.529   .     S
C1000  H1030   1.094   .     S
C1000  H1029   1.100   .     S
C1001  H1028   1.112   .     S
C1002  C1003   1.529   .     S
C1002  H1035   1.100   .     S
C1002  H1034   1.094   .     S
C1003  H1033   1.112   .     S
C1003  H1769   1.109   .     S
C1003  H1770   1.107   .     S
C1004  H1039   1.106   .     S
C1004  H1038   1.095   .     S
C1004  H1036   1.103   .     S
C1004  O1057   1.415   .     S
C1005  O1058   1.415   .     S
C1005  H1040   1.095   .     S
C1005  H1041   1.103   .     S
C1005  H1042   1.106   .     S
C1006  O1062   1.301   .     A
C1006  C1008   1.470   .     S
C1006  O1064   1.312   .     A
C1007  O1065   1.312   .     A
C1007  C1009   1.470   .     S
C1007  O1063   1.301   .     A
C1008  C1173   1.364   1_455 S
C1008  O1230   1.395   1_455 S
C1009  C1090   1.364   .     S
C1009  O1134   1.395   .     S
C1010  O1053   1.383   .     S
C1011  O1054   1.383   .     S
C1011  C1232   1.395   .     S
C1012  O1055   1.377   .     S
C1012  C1256   1.395   .     S
Cu1013 O1051   1.985   .     S
Cu1013 O1062   1.983   .     S
Cu1013 O1065   1.991   .     S
Cu1013 Cu1014  2.720   .     S
Cu1013 N1049   2.044   .     S
Cu1013 O1061   1.982   .     S
Cu1014 O1064   1.991   .     S
Cu1014 O1060   1.982   .     S
Cu1014 N1050   2.044   .     S
Cu1014 O1063   1.983   .     S
Cu1014 O1059   1.985   .     S
H1015  C1157   1.093   1_455 S
H1025  C1739   1.107   .     S
H1026  C1157   1.114   1_455 S
H1027  C1739   1.109   .     S
H1043  C1076   1.114   .     S
H1044  C1076   1.093   .     S
O1052  C1173   1.395   1_455 S
O1066  C1090   1.395   .     S
C1067  O1142   1.313   .     A
C1067  C1070   1.472   .     S
C1067  O1133   1.306   .     A
C1068  O1138   1.377   .     S
C1068  C1070   1.412   .     A
C1069  C1094   1.412   .     A
C1069  C1078   1.472   .     S
C1069  C1093   1.404   .     A
C1070  C1092   1.404   .     A
C1071  C1082   1.529   .     S
C1071  N1132   1.394   .     A
C1072  N1131   1.394   .     A
C1072  C1084   1.529   .     S
C1072  C1812   1.437   .     S
C1073  O1139   1.388   .     S
C1073  N1131   1.378   .     A
C1073  C1809   1.437   .     S
C1074  N1132   1.378   .     A
C1074  O1140   1.388   .     S
C1075  O1148   1.411   .     S
C1075  H1119   1.110   .     S
C1075  H1179   1.093   .     S
C1075  H1190   1.114   .     S
C1076  H1127   1.110   .     S
C1076  O1134   1.411   .     S
C1077  H1128   1.114   .     S
C1077  H1129   1.109   .     S
C1077  H1130   1.112   .     S
C1077  O1135   1.410   .     S
C1078  O1143   1.313   .     A
C1078  O1141   1.306   .     A
C1079  H1098   1.109   .     S
C1079  H1099   1.114   .     S
C1079  O1136   1.410   .     S
C1079  H1100   1.112   .     S
C1080  O1137   1.412   .     S
C1080  H1102   1.113   .     S
C1080  H1101   1.110   .     S
C1080  H1103   1.114   .     S
C1081  O1138   1.412   .     S
C1081  H1104   1.113   .     S
C1081  H1105   1.110   .     S
C1081  H1106   1.114   .     S
C1082  C1083   1.529   .     S
C1082  H1112   1.094   .     S
C1082  H1111   1.100   .     S
C1083  H1110   1.112   .     S
C1084  C1085   1.529   .     S
C1084  H1117   1.100   .     S
C1084  H1116   1.094   .     S
C1085  H1115   1.112   .     S
C1085  H1851   1.109   .     S
C1085  H1852   1.107   .     S
C1086  H1121   1.106   .     S
C1086  H1120   1.095   .     S
C1086  H1118   1.103   .     S
C1086  O1139   1.415   .     S
C1087  O1140   1.415   .     S
C1087  H1122   1.095   .     S
C1087  H1123   1.103   .     S
C1087  H1124   1.106   .     S
C1088  O1144   1.301   .     A
C1088  C1090   1.470   .     S
C1088  O1146   1.312   .     A
C1089  O1147   1.312   .     A
C1089  C1091   1.470   .     S
C1089  O1145   1.301   .     A
C1091  C1172   1.364   .     S
C1091  O1216   1.395   .     S
C1092  O1135   1.383   .     S
C1093  O1136   1.383   .     S
C1093  C1314   1.395   .     S
C1094  O1137   1.377   .     S
C1094  C1338   1.395   .     S
Cu1095 O1133   1.985   .     S
Cu1095 O1144   1.983   .     S
Cu1095 O1147   1.991   .     S
Cu1095 Cu1096  2.720   .     S
Cu1095 N1131   2.044   .     S
Cu1095 O1143   1.982   .     S
Cu1096 O1146   1.991   .     S
Cu1096 O1142   1.982   .     S
Cu1096 N1132   2.044   .     S
Cu1096 O1145   1.983   .     S
Cu1096 O1141   1.985   .     S
H1107  C1821   1.107   .     S
H1109  C1821   1.109   .     S
H1125  C1158   1.114   .     S
H1126  C1158   1.093   .     S
O1148  C1172   1.395   .     S
C1149  O1224   1.313   .     A
C1149  C1152   1.472   .     S
C1149  O1215   1.306   .     A
C1150  O1220   1.377   .     S
C1150  C1152   1.412   .     A
C1151  C1176   1.412   .     A
C1151  C1160   1.472   .     S
C1151  C1175   1.404   .     A
C1152  C1174   1.404   .     A
C1153  C1164   1.529   .     S
C1153  N1214   1.394   .     A
C1154  N1213   1.394   .     A
C1154  C1166   1.529   .     S
C1154  C1894   1.437   .     S
C1155  O1221   1.388   .     S
C1155  N1213   1.378   .     A
C1155  C1891   1.437   .     S
C1156  N1214   1.378   .     A
C1156  O1222   1.388   .     S
C1157  O1230   1.411   .     S
C1157  H1201   1.110   .     S
C1157  H1015   1.093   1_655 S
C1157  H1026   1.114   1_655 S
C1158  H1209   1.110   .     S
C1158  O1216   1.411   .     S
C1159  H1210   1.114   .     S
C1159  H1211   1.109   .     S
C1159  H1212   1.112   .     S
C1159  O1217   1.410   .     S
C1160  O1225   1.313   .     A
C1160  O1223   1.306   .     A
C1161  H1180   1.109   .     S
C1161  H1181   1.114   .     S
C1161  O1218   1.410   .     S
C1161  H1182   1.112   .     S
C1162  O1219   1.412   .     S
C1162  H1184   1.113   .     S
C1162  H1183   1.110   .     S
C1162  H1185   1.114   .     S
C1163  O1220   1.412   .     S
C1163  H1186   1.113   .     S
C1163  H1187   1.110   .     S
C1163  H1188   1.114   .     S
C1164  C1165   1.529   .     S
C1164  H1194   1.094   .     S
C1164  H1193   1.100   .     S
C1165  H1192   1.112   .     S
C1166  C1167   1.529   .     S
C1166  H1199   1.100   .     S
C1166  H1198   1.094   .     S
C1167  H1197   1.112   .     S
C1167  H1933   1.109   .     S
C1167  H1934   1.107   .     S
C1168  H1203   1.106   .     S
C1168  H1202   1.095   .     S
C1168  H1200   1.103   .     S
C1168  O1221   1.415   .     S
C1169  O1222   1.415   .     S
C1169  H1204   1.095   .     S
C1169  H1205   1.103   .     S
C1169  H1206   1.106   .     S
C1170  O1226   1.301   .     A
C1170  C1172   1.470   .     S
C1170  O1228   1.312   .     A
C1171  O1229   1.312   .     A
C1171  C1173   1.470   .     S
C1171  O1227   1.301   .     A
C1173  C1008   1.364   1_655 S
C1173  O1052   1.395   1_655 S
C1174  O1217   1.383   .     S
C1175  O1218   1.383   .     S
C1175  C1396   1.395   .     S
C1176  O1219   1.377   .     S
C1176  C1420   1.395   .     S
Cu1177 O1215   1.985   .     S
Cu1177 O1226   1.983   .     S
Cu1177 O1229   1.991   .     S
Cu1177 Cu1178  2.720   .     S
Cu1177 N1213   2.044   .     S
Cu1177 O1225   1.982   .     S
Cu1178 O1228   1.991   .     S
Cu1178 O1224   1.982   .     S
Cu1178 N1214   2.044   .     S
Cu1178 O1227   1.983   .     S
Cu1178 O1223   1.985   .     S
H1189  C1903   1.107   .     S
H1191  C1903   1.109   .     S
H1207  C994    1.114   1_655 S
H1208  C994    1.093   1_655 S
O1230  C1008   1.395   1_655 S
C1231  O1306   1.313   .     A
C1231  C1234   1.472   .     S
C1231  O1297   1.306   .     A
C1232  O1302   1.377   .     S
C1232  C1234   1.412   .     A
C1233  C1258   1.412   .     A
C1233  C1242   1.472   .     S
C1233  C1257   1.404   .     A
C1234  C1256   1.404   .     A
C1235  C1246   1.529   .     S
C1235  N1296   1.394   .     A
C1236  N1295   1.394   .     A
C1236  C1248   1.529   .     S
C1236  C1976   1.437   .     S
C1237  O1303   1.388   .     S
C1237  N1295   1.378   .     A
C1237  C1973   1.437   .     S
C1238  N1296   1.378   .     A
C1238  O1304   1.388   .     S
C1239  O1312   1.411   .     S
C1239  H1283   1.110   .     S
C1239  H1343   1.093   .     S
C1239  H1354   1.114   .     S
C1240  H1291   1.110   .     S
C1240  O1298   1.411   .     S
C1240  H1453   1.114   1_455 S
C1240  H1454   1.093   1_455 S
C1241  H1292   1.114   .     S
C1241  H1293   1.109   .     S
C1241  H1294   1.112   .     S
C1241  O1299   1.410   .     S
C1242  O1307   1.313   .     A
C1242  O1305   1.306   .     A
C1243  H1262   1.109   .     S
C1243  H1263   1.114   .     S
C1243  O1300   1.410   .     S
C1243  H1264   1.112   .     S
C1244  O1301   1.412   .     S
C1244  H1266   1.113   .     S
C1244  H1265   1.110   .     S
C1244  H1267   1.114   .     S
C1245  O1302   1.412   .     S
C1245  H1268   1.113   .     S
C1245  H1269   1.110   .     S
C1245  H1270   1.114   .     S
C1246  C1247   1.529   .     S
C1246  H1276   1.094   .     S
C1246  H1275   1.100   .     S
C1247  H1274   1.112   .     S
C1248  C1249   1.529   .     S
C1248  H1281   1.100   .     S
C1248  H1280   1.094   .     S
C1249  H1279   1.112   .     S
C1249  H2015   1.109   .     S
C1249  H2016   1.107   .     S
C1250  H1285   1.106   .     S
C1250  H1284   1.095   .     S
C1250  H1282   1.103   .     S
C1250  O1303   1.415   .     S
C1251  O1304   1.415   .     S
C1251  H1286   1.095   .     S
C1251  H1287   1.103   .     S
C1251  H1288   1.106   .     S
C1252  O1308   1.301   .     A
C1252  C1254   1.470   .     S
C1252  O1310   1.312   .     A
C1253  O1311   1.312   .     A
C1253  C1255   1.470   .     S
C1253  O1309   1.301   .     A
C1254  C1419   1.364   1_455 S
C1254  O1476   1.395   1_455 S
C1255  C1336   1.364   .     S
C1255  O1380   1.395   .     S
C1256  O1299   1.383   .     S
C1257  O1300   1.383   .     S
C1257  C740    1.395   1_565 S
C1258  O1301   1.377   .     S
C1258  C764    1.395   1_565 S
Cu1259 O1297   1.985   .     S
Cu1259 O1308   1.983   .     S
Cu1259 O1311   1.991   .     S
Cu1259 Cu1260  2.720   .     S
Cu1259 N1295   2.044   .     S
Cu1259 O1307   1.982   .     S
Cu1260 O1310   1.991   .     S
Cu1260 O1306   1.982   .     S
Cu1260 N1296   2.044   .     S
Cu1260 O1309   1.983   .     S
Cu1260 O1305   1.985   .     S
H1261  C1403   1.093   1_455 S
H1271  C1985   1.107   .     S
H1272  C1403   1.114   1_455 S
H1273  C1985   1.109   .     S
H1289  C1322   1.114   .     S
H1290  C1322   1.093   .     S
O1298  C1419   1.395   1_455 S
O1312  C1336   1.395   .     S
C1313  O1388   1.313   .     A
C1313  C1316   1.472   .     S
C1313  O1379   1.306   .     A
C1314  O1384   1.377   .     S
C1314  C1316   1.412   .     A
C1315  C1340   1.412   .     A
C1315  C1324   1.472   .     S
C1315  C1339   1.404   .     A
C1316  C1338   1.404   .     A
C1317  C1328   1.529   .     S
C1317  N1378   1.394   .     A
C1318  N1377   1.394   .     A
C1318  C1330   1.529   .     S
C1318  C2058   1.437   .     S
C1319  O1385   1.388   .     S
C1319  N1377   1.378   .     A
C1319  C2055   1.437   .     S
C1320  N1378   1.378   .     A
C1320  O1386   1.388   .     S
C1321  O1394   1.411   .     S
C1321  H1365   1.110   .     S
C1321  H1425   1.093   .     S
C1321  H1436   1.114   .     S
C1322  H1373   1.110   .     S
C1322  O1380   1.411   .     S
C1323  H1374   1.114   .     S
C1323  H1375   1.109   .     S
C1323  H1376   1.112   .     S
C1323  O1381   1.410   .     S
C1324  O1389   1.313   .     A
C1324  O1387   1.306   .     A
C1325  H1344   1.109   .     S
C1325  H1345   1.114   .     S
C1325  O1382   1.410   .     S
C1325  H1346   1.112   .     S
C1326  O1383   1.412   .     S
C1326  H1348   1.113   .     S
C1326  H1347   1.110   .     S
C1326  H1349   1.114   .     S
C1327  O1384   1.412   .     S
C1327  H1350   1.113   .     S
C1327  H1351   1.110   .     S
C1327  H1352   1.114   .     S
C1328  C1329   1.529   .     S
C1328  H1358   1.094   .     S
C1328  H1357   1.100   .     S
C1329  H1356   1.112   .     S
C1330  C1331   1.529   .     S
C1330  H1363   1.100   .     S
C1330  H1362   1.094   .     S
C1331  H1361   1.112   .     S
C1331  H2097   1.109   .     S
C1331  H2098   1.107   .     S
C1332  H1367   1.106   .     S
C1332  H1366   1.095   .     S
C1332  H1364   1.103   .     S
C1332  O1385   1.415   .     S
C1333  O1386   1.415   .     S
C1333  H1368   1.095   .     S
C1333  H1369   1.103   .     S
C1333  H1370   1.106   .     S
C1334  O1390   1.301   .     A
C1334  C1336   1.470   .     S
C1334  O1392   1.312   .     A
C1335  O1393   1.312   .     A
C1335  C1337   1.470   .     S
C1335  O1391   1.301   .     A
C1337  C1418   1.364   .     S
C1337  O1462   1.395   .     S
C1338  O1381   1.383   .     S
C1339  O1382   1.383   .     S
C1339  C822    1.395   1_565 S
C1340  O1383   1.377   .     S
C1340  C846    1.395   1_565 S
Cu1341 O1379   1.985   .     S
Cu1341 O1390   1.983   .     S
Cu1341 O1393   1.991   .     S
Cu1341 Cu1342  2.720   .     S
Cu1341 N1377   2.044   .     S
Cu1341 O1389   1.982   .     S
Cu1342 O1392   1.991   .     S
Cu1342 O1388   1.982   .     S
Cu1342 N1378   2.044   .     S
Cu1342 O1391   1.983   .     S
Cu1342 O1387   1.985   .     S
H1353  C2067   1.107   .     S
H1355  C2067   1.109   .     S
H1371  C1404   1.114   .     S
H1372  C1404   1.093   .     S
O1394  C1418   1.395   .     S
C1395  O1470   1.313   .     A
C1395  C1398   1.472   .     S
C1395  O1461   1.306   .     A
C1396  O1466   1.377   .     S
C1396  C1398   1.412   .     A
C1397  C1422   1.412   .     A
C1397  C1406   1.472   .     S
C1397  C1421   1.404   .     A
C1398  C1420   1.404   .     A
C1399  C1410   1.529   .     S
C1399  N1460   1.394   .     A
C1400  N1459   1.394   .     A
C1400  C1412   1.529   .     S
C1400  C2140   1.437   .     S
C1401  O1467   1.388   .     S
C1401  N1459   1.378   .     A
C1401  C2137   1.437   .     S
C1402  N1460   1.378   .     A
C1402  O1468   1.388   .     S
C1403  O1476   1.411   .     S
C1403  H1447   1.110   .     S
C1403  H1261   1.093   1_655 S
C1403  H1272   1.114   1_655 S
C1404  H1455   1.110   .     S
C1404  O1462   1.411   .     S
C1405  H1456   1.114   .     S
C1405  H1457   1.109   .     S
C1405  H1458   1.112   .     S
C1405  O1463   1.410   .     S
C1406  O1471   1.313   .     A
C1406  O1469   1.306   .     A
C1407  H1426   1.109   .     S
C1407  H1427   1.114   .     S
C1407  O1464   1.410   .     S
C1407  H1428   1.112   .     S
C1408  O1465   1.412   .     S
C1408  H1430   1.113   .     S
C1408  H1429   1.110   .     S
C1408  H1431   1.114   .     S
C1409  O1466   1.412   .     S
C1409  H1432   1.113   .     S
C1409  H1433   1.110   .     S
C1409  H1434   1.114   .     S
C1410  C1411   1.529   .     S
C1410  H1440   1.094   .     S
C1410  H1439   1.100   .     S
C1411  H1438   1.112   .     S
C1412  C1413   1.529   .     S
C1412  H1445   1.100   .     S
C1412  H1444   1.094   .     S
C1413  H1443   1.112   .     S
C1413  H2179   1.109   .     S
C1413  H2180   1.107   .     S
C1414  H1449   1.106   .     S
C1414  H1448   1.095   .     S
C1414  H1446   1.103   .     S
C1414  O1467   1.415   .     S
C1415  O1468   1.415   .     S
C1415  H1450   1.095   .     S
C1415  H1451   1.103   .     S
C1415  H1452   1.106   .     S
C1416  O1472   1.301   .     A
C1416  C1418   1.470   .     S
C1416  O1474   1.312   .     A
C1417  O1475   1.312   .     A
C1417  C1419   1.470   .     S
C1417  O1473   1.301   .     A
C1419  C1254   1.364   1_655 S
C1419  O1298   1.395   1_655 S
C1420  O1463   1.383   .     S
C1421  O1464   1.383   .     S
C1421  C904    1.395   1_565 S
C1422  O1465   1.377   .     S
C1422  C928    1.395   1_565 S
Cu1423 O1461   1.985   .     S
Cu1423 O1472   1.983   .     S
Cu1423 O1475   1.991   .     S
Cu1423 Cu1424  2.720   .     S
Cu1423 N1459   2.044   .     S
Cu1423 O1471   1.982   .     S
Cu1424 O1474   1.991   .     S
Cu1424 O1470   1.982   .     S
Cu1424 N1460   2.044   .     S
Cu1424 O1473   1.983   .     S
Cu1424 O1469   1.985   .     S
H1435  C2149   1.107   .     S
H1437  C2149   1.109   .     S
H1453  C1240   1.114   1_655 S
H1454  C1240   1.093   1_655 S
O1476  C1254   1.395   1_655 S
C1477  O1552   1.313   .     A
C1477  C1480   1.472   .     S
C1477  O1543   1.306   .     A
C1478  O1548   1.377   .     S
C1478  C1480   1.412   .     A
C1478  C1995   1.395   1_545 S
C1479  C1504   1.412   .     A
C1479  C1488   1.472   .     S
C1479  C1503   1.404   .     A
C1480  C1502   1.404   .     A
C1481  C1492   1.529   .     S
C1481  N1542   1.394   .     A
C1482  N1541   1.394   .     A
C1482  C1494   1.529   .     S
C1482  C8      1.437   1_556 S
C1483  O1549   1.388   .     S
C1483  N1541   1.378   .     A
C1483  C5      1.437   1_556 S
C1484  N1542   1.378   .     A
C1484  O1550   1.388   .     S
C1485  O1558   1.411   .     S
C1485  H1529   1.110   .     S
C1485  H1589   1.093   .     S
C1485  H1600   1.114   .     S
C1486  H1537   1.110   .     S
C1486  O1544   1.411   .     S
C1486  H1699   1.114   1_455 S
C1486  H1700   1.093   1_455 S
C1487  H1538   1.114   .     S
C1487  H1539   1.109   .     S
C1487  H1540   1.112   .     S
C1487  O1545   1.410   .     S
C1488  O1553   1.313   .     A
C1488  O1551   1.306   .     A
C1489  H1508   1.109   .     S
C1489  H1509   1.114   .     S
C1489  O1546   1.410   .     S
C1489  H1510   1.112   .     S
C1490  O1547   1.412   .     S
C1490  H1512   1.113   .     S
C1490  H1511   1.110   .     S
C1490  H1513   1.114   .     S
C1491  O1548   1.412   .     S
C1491  H1514   1.113   .     S
C1491  H1515   1.110   .     S
C1491  H1516   1.114   .     S
C1492  C1493   1.529   .     S
C1492  H1522   1.094   .     S
C1492  H1521   1.100   .     S
C1493  H1520   1.112   .     S
C1494  C1495   1.529   .     S
C1494  H1527   1.100   .     S
C1494  H1526   1.094   .     S
C1495  H1525   1.112   .     S
C1495  H47     1.109   1_556 S
C1495  H48     1.107   1_556 S
C1496  H1531   1.106   .     S
C1496  H1530   1.095   .     S
C1496  H1528   1.103   .     S
C1496  O1549   1.415   .     S
C1497  O1550   1.415   .     S
C1497  H1532   1.095   .     S
C1497  H1533   1.103   .     S
C1497  H1534   1.106   .     S
C1498  O1554   1.301   .     A
C1498  C1500   1.470   .     S
C1498  O1556   1.312   .     A
C1499  O1557   1.312   .     A
C1499  C1501   1.470   .     S
C1499  O1555   1.301   .     A
C1500  C1665   1.364   1_455 S
C1500  O1722   1.395   1_455 S
C1501  C1582   1.364   .     S
C1501  O1626   1.395   .     S
C1502  O1545   1.383   .     S
C1502  C1996   1.395   1_545 S
C1503  O1546   1.383   .     S
C1503  C1724   1.395   .     S
C1504  O1547   1.377   .     S
C1504  C1748   1.395   .     S
Cu1505 O1543   1.985   .     S
Cu1505 O1554   1.983   .     S
Cu1505 O1557   1.991   .     S
Cu1505 Cu1506  2.720   .     S
Cu1505 N1541   2.044   .     S
Cu1505 O1553   1.982   .     S
Cu1506 O1556   1.991   .     S
Cu1506 O1552   1.982   .     S
Cu1506 N1542   2.044   .     S
Cu1506 O1555   1.983   .     S
Cu1506 O1551   1.985   .     S
H1507  C1649   1.093   1_455 S
H1517  C17     1.107   1_556 S
H1518  C1649   1.114   1_455 S
H1519  C17     1.109   1_556 S
H1535  C1568   1.114   .     S
H1536  C1568   1.093   .     S
O1544  C1665   1.395   1_455 S
O1558  C1582   1.395   .     S
C1559  O1634   1.313   .     A
C1559  C1562   1.472   .     S
C1559  O1625   1.306   .     A
C1560  O1630   1.377   .     S
C1560  C1562   1.412   .     A
C1560  C2077   1.395   1_545 S
C1561  C1586   1.412   .     A
C1561  C1570   1.472   .     S
C1561  C1585   1.404   .     A
C1562  C1584   1.404   .     A
C1563  C1574   1.529   .     S
C1563  N1624   1.394   .     A
C1564  N1623   1.394   .     A
C1564  C1576   1.529   .     S
C1564  C90     1.437   1_556 S
C1565  O1631   1.388   .     S
C1565  N1623   1.378   .     A
C1565  C87     1.437   1_556 S
C1566  N1624   1.378   .     A
C1566  O1632   1.388   .     S
C1567  O1640   1.411   .     S
C1567  H1611   1.110   .     S
C1567  H1671   1.093   .     S
C1567  H1682   1.114   .     S
C1568  H1619   1.110   .     S
C1568  O1626   1.411   .     S
C1569  H1620   1.114   .     S
C1569  H1621   1.109   .     S
C1569  H1622   1.112   .     S
C1569  O1627   1.410   .     S
C1570  O1635   1.313   .     A
C1570  O1633   1.306   .     A
C1571  H1590   1.109   .     S
C1571  H1591   1.114   .     S
C1571  O1628   1.410   .     S
C1571  H1592   1.112   .     S
C1572  O1629   1.412   .     S
C1572  H1594   1.113   .     S
C1572  H1593   1.110   .     S
C1572  H1595   1.114   .     S
C1573  O1630   1.412   .     S
C1573  H1596   1.113   .     S
C1573  H1597   1.110   .     S
C1573  H1598   1.114   .     S
C1574  C1575   1.529   .     S
C1574  H1604   1.094   .     S
C1574  H1603   1.100   .     S
C1575  H1602   1.112   .     S
C1576  C1577   1.529   .     S
C1576  H1609   1.100   .     S
C1576  H1608   1.094   .     S
C1577  H1607   1.112   .     S
C1577  H129    1.109   1_556 S
C1577  H130    1.107   1_556 S
C1578  H1613   1.106   .     S
C1578  H1612   1.095   .     S
C1578  H1610   1.103   .     S
C1578  O1631   1.415   .     S
C1579  O1632   1.415   .     S
C1579  H1614   1.095   .     S
C1579  H1615   1.103   .     S
C1579  H1616   1.106   .     S
C1580  O1636   1.301   .     A
C1580  C1582   1.470   .     S
C1580  O1638   1.312   .     A
C1581  O1639   1.312   .     A
C1581  C1583   1.470   .     S
C1581  O1637   1.301   .     A
C1583  C1664   1.364   .     S
C1583  O1708   1.395   .     S
C1584  O1627   1.383   .     S
C1584  C2078   1.395   1_545 S
C1585  O1628   1.383   .     S
C1585  C1806   1.395   .     S
C1586  O1629   1.377   .     S
C1586  C1830   1.395   .     S
Cu1587 O1625   1.985   .     S
Cu1587 O1636   1.983   .     S
Cu1587 O1639   1.991   .     S
Cu1587 Cu1588  2.720   .     S
Cu1587 N1623   2.044   .     S
Cu1587 O1635   1.982   .     S
Cu1588 O1638   1.991   .     S
Cu1588 O1634   1.982   .     S
Cu1588 N1624   2.044   .     S
Cu1588 O1637   1.983   .     S
Cu1588 O1633   1.985   .     S
H1599  C99     1.107   1_556 S
H1601  C99     1.109   1_556 S
H1617  C1650   1.114   .     S
H1618  C1650   1.093   .     S
O1640  C1664   1.395   .     S
C1641  O1716   1.313   .     A
C1641  C1644   1.472   .     S
C1641  O1707   1.306   .     A
C1642  O1712   1.377   .     S
C1642  C1644   1.412   .     A
C1642  C2159   1.395   1_545 S
C1643  C1668   1.412   .     A
C1643  C1652   1.472   .     S
C1643  C1667   1.404   .     A
C1644  C1666   1.404   .     A
C1645  C1656   1.529   .     S
C1645  N1706   1.394   .     A
C1646  N1705   1.394   .     A
C1646  C1658   1.529   .     S
C1646  C172    1.437   1_556 S
C1647  O1713   1.388   .     S
C1647  N1705   1.378   .     A
C1647  C169    1.437   1_556 S
C1648  N1706   1.378   .     A
C1648  O1714   1.388   .     S
C1649  O1722   1.411   .     S
C1649  H1693   1.110   .     S
C1649  H1507   1.093   1_655 S
C1649  H1518   1.114   1_655 S
C1650  H1701   1.110   .     S
C1650  O1708   1.411   .     S
C1651  H1702   1.114   .     S
C1651  H1703   1.109   .     S
C1651  H1704   1.112   .     S
C1651  O1709   1.410   .     S
C1652  O1717   1.313   .     A
C1652  O1715   1.306   .     A
C1653  H1672   1.109   .     S
C1653  H1673   1.114   .     S
C1653  O1710   1.410   .     S
C1653  H1674   1.112   .     S
C1654  O1711   1.412   .     S
C1654  H1676   1.113   .     S
C1654  H1675   1.110   .     S
C1654  H1677   1.114   .     S
C1655  O1712   1.412   .     S
C1655  H1678   1.113   .     S
C1655  H1679   1.110   .     S
C1655  H1680   1.114   .     S
C1656  C1657   1.529   .     S
C1656  H1686   1.094   .     S
C1656  H1685   1.100   .     S
C1657  H1684   1.112   .     S
C1658  C1659   1.529   .     S
C1658  H1691   1.100   .     S
C1658  H1690   1.094   .     S
C1659  H1689   1.112   .     S
C1659  H211    1.109   1_556 S
C1659  H212    1.107   1_556 S
C1660  H1695   1.106   .     S
C1660  H1694   1.095   .     S
C1660  H1692   1.103   .     S
C1660  O1713   1.415   .     S
C1661  O1714   1.415   .     S
C1661  H1696   1.095   .     S
C1661  H1697   1.103   .     S
C1661  H1698   1.106   .     S
C1662  O1718   1.301   .     A
C1662  C1664   1.470   .     S
C1662  O1720   1.312   .     A
C1663  O1721   1.312   .     A
C1663  C1665   1.470   .     S
C1663  O1719   1.301   .     A
C1665  C1500   1.364   1_655 S
C1665  O1544   1.395   1_655 S
C1666  O1709   1.383   .     S
C1666  C2160   1.395   1_545 S
C1667  O1710   1.383   .     S
C1667  C1888   1.395   .     S
C1668  O1711   1.377   .     S
C1668  C1912   1.395   .     S
Cu1669 O1707   1.985   .     S
Cu1669 O1718   1.983   .     S
Cu1669 O1721   1.991   .     S
Cu1669 Cu1670  2.720   .     S
Cu1669 N1705   2.044   .     S
Cu1669 O1717   1.982   .     S
Cu1670 O1720   1.991   .     S
Cu1670 O1716   1.982   .     S
Cu1670 N1706   2.044   .     S
Cu1670 O1719   1.983   .     S
Cu1670 O1715   1.985   .     S
H1681  C181    1.107   1_556 S
H1683  C181    1.109   1_556 S
H1699  C1486   1.114   1_655 S
H1700  C1486   1.093   1_655 S
O1722  C1500   1.395   1_655 S
C1723  O1798   1.313   .     A
C1723  C1726   1.472   .     S
C1723  O1789   1.306   .     A
C1724  O1794   1.377   .     S
C1724  C1726   1.412   .     A
C1725  C1750   1.412   .     A
C1725  C1734   1.472   .     S
C1725  C1749   1.404   .     A
C1726  C1748   1.404   .     A
C1727  C1738   1.529   .     S
C1727  N1788   1.394   .     A
C1728  N1787   1.394   .     A
C1728  C1740   1.529   .     S
C1728  C254    1.437   1_556 S
C1729  O1795   1.388   .     S
C1729  N1787   1.378   .     A
C1729  C251    1.437   1_556 S
C1730  N1788   1.378   .     A
C1730  O1796   1.388   .     S
C1731  O1804   1.411   .     S
C1731  H1775   1.110   .     S
C1731  H1835   1.093   .     S
C1731  H1846   1.114   .     S
C1732  H1783   1.110   .     S
C1732  O1790   1.411   .     S
C1732  H1945   1.114   1_455 S
C1732  H1946   1.093   1_455 S
C1733  H1784   1.114   .     S
C1733  H1785   1.109   .     S
C1733  H1786   1.112   .     S
C1733  O1791   1.410   .     S
C1734  O1799   1.313   .     A
C1734  O1797   1.306   .     A
C1735  H1754   1.109   .     S
C1735  H1755   1.114   .     S
C1735  O1792   1.410   .     S
C1735  H1756   1.112   .     S
C1736  O1793   1.412   .     S
C1736  H1758   1.113   .     S
C1736  H1757   1.110   .     S
C1736  H1759   1.114   .     S
C1737  O1794   1.412   .     S
C1737  H1760   1.113   .     S
C1737  H1761   1.110   .     S
C1737  H1762   1.114   .     S
C1738  C1739   1.529   .     S
C1738  H1768   1.094   .     S
C1738  H1767   1.100   .     S
C1739  H1766   1.112   .     S
C1740  C1741   1.529   .     S
C1740  H1773   1.100   .     S
C1740  H1772   1.094   .     S
C1741  H1771   1.112   .     S
C1741  H293    1.109   1_556 S
C1741  H294    1.107   1_556 S
C1742  H1777   1.106   .     S
C1742  H1776   1.095   .     S
C1742  H1774   1.103   .     S
C1742  O1795   1.415   .     S
C1743  O1796   1.415   .     S
C1743  H1778   1.095   .     S
C1743  H1779   1.103   .     S
C1743  H1780   1.106   .     S
C1744  O1800   1.301   .     A
C1744  C1746   1.470   .     S
C1744  O1802   1.312   .     A
C1745  O1803   1.312   .     A
C1745  C1747   1.470   .     S
C1745  O1801   1.301   .     A
C1746  C1911   1.364   1_455 S
C1746  O1968   1.395   1_455 S
C1747  C1828   1.364   .     S
C1747  O1872   1.395   .     S
C1748  O1791   1.383   .     S
C1749  O1792   1.383   .     S
C1749  C1970   1.395   .     S
C1750  O1793   1.377   .     S
C1750  C1994   1.395   .     S
Cu1751 O1789   1.985   .     S
Cu1751 O1800   1.983   .     S
Cu1751 O1803   1.991   .     S
Cu1751 Cu1752  2.720   .     S
Cu1751 N1787   2.044   .     S
Cu1751 O1799   1.982   .     S
Cu1752 O1802   1.991   .     S
Cu1752 O1798   1.982   .     S
Cu1752 N1788   2.044   .     S
Cu1752 O1801   1.983   .     S
Cu1752 O1797   1.985   .     S
H1753  C1895   1.093   1_455 S
H1763  C263    1.107   1_556 S
H1764  C1895   1.114   1_455 S
H1765  C263    1.109   1_556 S
H1781  C1814   1.114   .     S
H1782  C1814   1.093   .     S
O1790  C1911   1.395   1_455 S
O1804  C1828   1.395   .     S
C1805  O1880   1.313   .     A
C1805  C1808   1.472   .     S
C1805  O1871   1.306   .     A
C1806  O1876   1.377   .     S
C1806  C1808   1.412   .     A
C1807  C1832   1.412   .     A
C1807  C1816   1.472   .     S
C1807  C1831   1.404   .     A
C1808  C1830   1.404   .     A
C1809  C1820   1.529   .     S
C1809  N1870   1.394   .     A
C1810  N1869   1.394   .     A
C1810  C1822   1.529   .     S
C1810  C336    1.437   1_556 S
C1811  O1877   1.388   .     S
C1811  N1869   1.378   .     A
C1811  C333    1.437   1_556 S
C1812  N1870   1.378   .     A
C1812  O1878   1.388   .     S
C1813  O1886   1.411   .     S
C1813  H1857   1.110   .     S
C1813  H1917   1.093   .     S
C1813  H1928   1.114   .     S
C1814  H1865   1.110   .     S
C1814  O1872   1.411   .     S
C1815  H1866   1.114   .     S
C1815  H1867   1.109   .     S
C1815  H1868   1.112   .     S
C1815  O1873   1.410   .     S
C1816  O1881   1.313   .     A
C1816  O1879   1.306   .     A
C1817  H1836   1.109   .     S
C1817  H1837   1.114   .     S
C1817  O1874   1.410   .     S
C1817  H1838   1.112   .     S
C1818  O1875   1.412   .     S
C1818  H1840   1.113   .     S
C1818  H1839   1.110   .     S
C1818  H1841   1.114   .     S
C1819  O1876   1.412   .     S
C1819  H1842   1.113   .     S
C1819  H1843   1.110   .     S
C1819  H1844   1.114   .     S
C1820  C1821   1.529   .     S
C1820  H1850   1.094   .     S
C1820  H1849   1.100   .     S
C1821  H1848   1.112   .     S
C1822  C1823   1.529   .     S
C1822  H1855   1.100   .     S
C1822  H1854   1.094   .     S
C1823  H1853   1.112   .     S
C1823  H375    1.109   1_556 S
C1823  H376    1.107   1_556 S
C1824  H1859   1.106   .     S
C1824  H1858   1.095   .     S
C1824  H1856   1.103   .     S
C1824  O1877   1.415   .     S
C1825  O1878   1.415   .     S
C1825  H1860   1.095   .     S
C1825  H1861   1.103   .     S
C1825  H1862   1.106   .     S
C1826  O1882   1.301   .     A
C1826  C1828   1.470   .     S
C1826  O1884   1.312   .     A
C1827  O1885   1.312   .     A
C1827  C1829   1.470   .     S
C1827  O1883   1.301   .     A
C1829  C1910   1.364   .     S
C1829  O1954   1.395   .     S
C1830  O1873   1.383   .     S
C1831  O1874   1.383   .     S
C1831  C2052   1.395   .     S
C1832  O1875   1.377   .     S
C1832  C2076   1.395   .     S
Cu1833 O1871   1.985   .     S
Cu1833 O1882   1.983   .     S
Cu1833 O1885   1.991   .     S
Cu1833 Cu1834  2.720   .     S
Cu1833 N1869   2.044   .     S
Cu1833 O1881   1.982   .     S
Cu1834 O1884   1.991   .     S
Cu1834 O1880   1.982   .     S
Cu1834 N1870   2.044   .     S
Cu1834 O1883   1.983   .     S
Cu1834 O1879   1.985   .     S
H1845  C345    1.107   1_556 S
H1847  C345    1.109   1_556 S
H1863  C1896   1.114   .     S
H1864  C1896   1.093   .     S
O1886  C1910   1.395   .     S
C1887  O1962   1.313   .     A
C1887  C1890   1.472   .     S
C1887  O1953   1.306   .     A
C1888  O1958   1.377   .     S
C1888  C1890   1.412   .     A
C1889  C1914   1.412   .     A
C1889  C1898   1.472   .     S
C1889  C1913   1.404   .     A
C1890  C1912   1.404   .     A
C1891  C1902   1.529   .     S
C1891  N1952   1.394   .     A
C1892  N1951   1.394   .     A
C1892  C1904   1.529   .     S
C1892  C418    1.437   1_556 S
C1893  O1959   1.388   .     S
C1893  N1951   1.378   .     A
C1893  C415    1.437   1_556 S
C1894  N1952   1.378   .     A
C1894  O1960   1.388   .     S
C1895  O1968   1.411   .     S
C1895  H1939   1.110   .     S
C1895  H1753   1.093   1_655 S
C1895  H1764   1.114   1_655 S
C1896  H1947   1.110   .     S
C1896  O1954   1.411   .     S
C1897  H1948   1.114   .     S
C1897  H1949   1.109   .     S
C1897  H1950   1.112   .     S
C1897  O1955   1.410   .     S
C1898  O1963   1.313   .     A
C1898  O1961   1.306   .     A
C1899  H1918   1.109   .     S
C1899  H1919   1.114   .     S
C1899  O1956   1.410   .     S
C1899  H1920   1.112   .     S
C1900  O1957   1.412   .     S
C1900  H1922   1.113   .     S
C1900  H1921   1.110   .     S
C1900  H1923   1.114   .     S
C1901  O1958   1.412   .     S
C1901  H1924   1.113   .     S
C1901  H1925   1.110   .     S
C1901  H1926   1.114   .     S
C1902  C1903   1.529   .     S
C1902  H1932   1.094   .     S
C1902  H1931   1.100   .     S
C1903  H1930   1.112   .     S
C1904  C1905   1.529   .     S
C1904  H1937   1.100   .     S
C1904  H1936   1.094   .     S
C1905  H1935   1.112   .     S
C1905  H457    1.109   1_556 S
C1905  H458    1.107   1_556 S
C1906  H1941   1.106   .     S
C1906  H1940   1.095   .     S
C1906  H1938   1.103   .     S
C1906  O1959   1.415   .     S
C1907  O1960   1.415   .     S
C1907  H1942   1.095   .     S
C1907  H1943   1.103   .     S
C1907  H1944   1.106   .     S
C1908  O1964   1.301   .     A
C1908  C1910   1.470   .     S
C1908  O1966   1.312   .     A
C1909  O1967   1.312   .     A
C1909  C1911   1.470   .     S
C1909  O1965   1.301   .     A
C1911  C1746   1.364   1_655 S
C1911  O1790   1.395   1_655 S
C1912  O1955   1.383   .     S
C1913  O1956   1.383   .     S
C1913  C2134   1.395   .     S
C1914  O1957   1.377   .     S
C1914  C2158   1.395   .     S
Cu1915 O1953   1.985   .     S
Cu1915 O1964   1.983   .     S
Cu1915 O1967   1.991   .     S
Cu1915 Cu1916  2.720   .     S
Cu1915 N1951   2.044   .     S
Cu1915 O1963   1.982   .     S
Cu1916 O1966   1.991   .     S
Cu1916 O1962   1.982   .     S
Cu1916 N1952   2.044   .     S
Cu1916 O1965   1.983   .     S
Cu1916 O1961   1.985   .     S
H1927  C427    1.107   1_556 S
H1929  C427    1.109   1_556 S
H1945  C1732   1.114   1_655 S
H1946  C1732   1.093   1_655 S
O1968  C1746   1.395   1_655 S
C1969  O2044   1.313   .     A
C1969  C1972   1.472   .     S
C1969  O2035   1.306   .     A
C1970  O2040   1.377   .     S
C1970  C1972   1.412   .     A
C1971  C1996   1.412   .     A
C1971  C1980   1.472   .     S
C1971  C1995   1.404   .     A
C1972  C1994   1.404   .     A
C1973  C1984   1.529   .     S
C1973  N2034   1.394   .     A
C1974  N2033   1.394   .     A
C1974  C1986   1.529   .     S
C1974  C500    1.437   1_556 S
C1975  O2041   1.388   .     S
C1975  N2033   1.378   .     A
C1975  C497    1.437   1_556 S
C1976  N2034   1.378   .     A
C1976  O2042   1.388   .     S
C1977  O2050   1.411   .     S
C1977  H2021   1.110   .     S
C1977  H2081   1.093   .     S
C1977  H2092   1.114   .     S
C1978  H2029   1.110   .     S
C1978  O2036   1.411   .     S
C1978  H2191   1.114   1_455 S
C1978  H2192   1.093   1_455 S
C1979  H2030   1.114   .     S
C1979  H2031   1.109   .     S
C1979  H2032   1.112   .     S
C1979  O2037   1.410   .     S
C1980  O2045   1.313   .     A
C1980  O2043   1.306   .     A
C1981  H2000   1.109   .     S
C1981  H2001   1.114   .     S
C1981  O2038   1.410   .     S
C1981  H2002   1.112   .     S
C1982  O2039   1.412   .     S
C1982  H2004   1.113   .     S
C1982  H2003   1.110   .     S
C1982  H2005   1.114   .     S
C1983  O2040   1.412   .     S
C1983  H2006   1.113   .     S
C1983  H2007   1.110   .     S
C1983  H2008   1.114   .     S
C1984  C1985   1.529   .     S
C1984  H2014   1.094   .     S
C1984  H2013   1.100   .     S
C1985  H2012   1.112   .     S
C1986  C1987   1.529   .     S
C1986  H2019   1.100   .     S
C1986  H2018   1.094   .     S
C1987  H2017   1.112   .     S
C1987  H539    1.109   1_556 S
C1987  H540    1.107   1_556 S
C1988  H2023   1.106   .     S
C1988  H2022   1.095   .     S
C1988  H2020   1.103   .     S
C1988  O2041   1.415   .     S
C1989  O2042   1.415   .     S
C1989  H2024   1.095   .     S
C1989  H2025   1.103   .     S
C1989  H2026   1.106   .     S
C1990  O2046   1.301   .     A
C1990  C1992   1.470   .     S
C1990  O2048   1.312   .     A
C1991  O2049   1.312   .     A
C1991  C1993   1.470   .     S
C1991  O2047   1.301   .     A
C1992  C2157   1.364   1_455 S
C1992  O2214   1.395   1_455 S
C1993  C2074   1.364   .     S
C1993  O2118   1.395   .     S
C1994  O2037   1.383   .     S
C1995  O2038   1.383   .     S
C1995  C1478   1.395   1_565 S
C1996  O2039   1.377   .     S
C1996  C1502   1.395   1_565 S
Cu1997 O2035   1.985   .     S
Cu1997 O2046   1.983   .     S
Cu1997 O2049   1.991   .     S
Cu1997 Cu1998  2.720   .     S
Cu1997 N2033   2.044   .     S
Cu1997 O2045   1.982   .     S
Cu1998 O2048   1.991   .     S
Cu1998 O2044   1.982   .     S
Cu1998 N2034   2.044   .     S
Cu1998 O2047   1.983   .     S
Cu1998 O2043   1.985   .     S
H1999  C2141   1.093   1_455 S
H2009  C509    1.107   1_556 S
H2010  C2141   1.114   1_455 S
H2011  C509    1.109   1_556 S
H2027  C2060   1.114   .     S
H2028  C2060   1.093   .     S
O2036  C2157   1.395   1_455 S
O2050  C2074   1.395   .     S
C2051  O2126   1.313   .     A
C2051  C2054   1.472   .     S
C2051  O2117   1.306   .     A
C2052  O2122   1.377   .     S
C2052  C2054   1.412   .     A
C2053  C2078   1.412   .     A
C2053  C2062   1.472   .     S
C2053  C2077   1.404   .     A
C2054  C2076   1.404   .     A
C2055  C2066   1.529   .     S
C2055  N2116   1.394   .     A
C2056  N2115   1.394   .     A
C2056  C2068   1.529   .     S
C2056  C582    1.437   1_556 S
C2057  O2123   1.388   .     S
C2057  N2115   1.378   .     A
C2057  C579    1.437   1_556 S
C2058  N2116   1.378   .     A
C2058  O2124   1.388   .     S
C2059  O2132   1.411   .     S
C2059  H2103   1.110   .     S
C2059  H2163   1.093   .     S
C2059  H2174   1.114   .     S
C2060  H2111   1.110   .     S
C2060  O2118   1.411   .     S
C2061  H2112   1.114   .     S
C2061  H2113   1.109   .     S
C2061  H2114   1.112   .     S
C2061  O2119   1.410   .     S
C2062  O2127   1.313   .     A
C2062  O2125   1.306   .     A
C2063  H2082   1.109   .     S
C2063  H2083   1.114   .     S
C2063  O2120   1.410   .     S
C2063  H2084   1.112   .     S
C2064  O2121   1.412   .     S
C2064  H2086   1.113   .     S
C2064  H2085   1.110   .     S
C2064  H2087   1.114   .     S
C2065  O2122   1.412   .     S
C2065  H2088   1.113   .     S
C2065  H2089   1.110   .     S
C2065  H2090   1.114   .     S
C2066  C2067   1.529   .     S
C2066  H2096   1.094   .     S
C2066  H2095   1.100   .     S
C2067  H2094   1.112   .     S
C2068  C2069   1.529   .     S
C2068  H2101   1.100   .     S
C2068  H2100   1.094   .     S
C2069  H2099   1.112   .     S
C2069  H621    1.109   1_556 S
C2069  H622    1.107   1_556 S
C2070  H2105   1.106   .     S
C2070  H2104   1.095   .     S
C2070  H2102   1.103   .     S
C2070  O2123   1.415   .     S
C2071  O2124   1.415   .     S
C2071  H2106   1.095   .     S
C2071  H2107   1.103   .     S
C2071  H2108   1.106   .     S
C2072  O2128   1.301   .     A
C2072  C2074   1.470   .     S
C2072  O2130   1.312   .     A
C2073  O2131   1.312   .     A
C2073  C2075   1.470   .     S
C2073  O2129   1.301   .     A
C2075  C2156   1.364   .     S
C2075  O2200   1.395   .     S
C2076  O2119   1.383   .     S
C2077  O2120   1.383   .     S
C2077  C1560   1.395   1_565 S
C2078  O2121   1.377   .     S
C2078  C1584   1.395   1_565 S
Cu2079 O2117   1.985   .     S
Cu2079 O2128   1.983   .     S
Cu2079 O2131   1.991   .     S
Cu2079 Cu2080  2.720   .     S
Cu2079 N2115   2.044   .     S
Cu2079 O2127   1.982   .     S
Cu2080 O2130   1.991   .     S
Cu2080 O2126   1.982   .     S
Cu2080 N2116   2.044   .     S
Cu2080 O2129   1.983   .     S
Cu2080 O2125   1.985   .     S
H2091  C591    1.107   1_556 S
H2093  C591    1.109   1_556 S
H2109  C2142   1.114   .     S
H2110  C2142   1.093   .     S
O2132  C2156   1.395   .     S
C2133  O2208   1.313   .     A
C2133  C2136   1.472   .     S
C2133  O2199   1.306   .     A
C2134  O2204   1.377   .     S
C2134  C2136   1.412   .     A
C2135  C2160   1.412   .     A
C2135  C2144   1.472   .     S
C2135  C2159   1.404   .     A
C2136  C2158   1.404   .     A
C2137  C2148   1.529   .     S
C2137  N2198   1.394   .     A
C2138  N2197   1.394   .     A
C2138  C2150   1.529   .     S
C2138  C664    1.437   1_556 S
C2139  O2205   1.388   .     S
C2139  N2197   1.378   .     A
C2139  C661    1.437   1_556 S
C2140  N2198   1.378   .     A
C2140  O2206   1.388   .     S
C2141  O2214   1.411   .     S
C2141  H2185   1.110   .     S
C2141  H1999   1.093   1_655 S
C2141  H2010   1.114   1_655 S
C2142  H2193   1.110   .     S
C2142  O2200   1.411   .     S
C2143  H2194   1.114   .     S
C2143  H2195   1.109   .     S
C2143  H2196   1.112   .     S
C2143  O2201   1.410   .     S
C2144  O2209   1.313   .     A
C2144  O2207   1.306   .     A
C2145  H2164   1.109   .     S
C2145  H2165   1.114   .     S
C2145  O2202   1.410   .     S
C2145  H2166   1.112   .     S
C2146  O2203   1.412   .     S
C2146  H2168   1.113   .     S
C2146  H2167   1.110   .     S
C2146  H2169   1.114   .     S
C2147  O2204   1.412   .     S
C2147  H2170   1.113   .     S
C2147  H2171   1.110   .     S
C2147  H2172   1.114   .     S
C2148  C2149   1.529   .     S
C2148  H2178   1.094   .     S
C2148  H2177   1.100   .     S
C2149  H2176   1.112   .     S
C2150  C2151   1.529   .     S
C2150  H2183   1.100   .     S
C2150  H2182   1.094   .     S
C2151  H2181   1.112   .     S
C2151  H703    1.109   1_556 S
C2151  H704    1.107   1_556 S
C2152  H2187   1.106   .     S
C2152  H2186   1.095   .     S
C2152  H2184   1.103   .     S
C2152  O2205   1.415   .     S
C2153  O2206   1.415   .     S
C2153  H2188   1.095   .     S
C2153  H2189   1.103   .     S
C2153  H2190   1.106   .     S
C2154  O2210   1.301   .     A
C2154  C2156   1.470   .     S
C2154  O2212   1.312   .     A
C2155  O2213   1.312   .     A
C2155  C2157   1.470   .     S
C2155  O2211   1.301   .     A
C2157  C1992   1.364   1_655 S
C2157  O2036   1.395   1_655 S
C2158  O2201   1.383   .     S
C2159  O2202   1.383   .     S
C2159  C1642   1.395   1_565 S
C2160  O2203   1.377   .     S
C2160  C1666   1.395   1_565 S
Cu2161 O2199   1.985   .     S
Cu2161 O2210   1.983   .     S
Cu2161 O2213   1.991   .     S
Cu2161 Cu2162  2.720   .     S
Cu2161 N2197   2.044   .     S
Cu2161 O2209   1.982   .     S
Cu2162 O2212   1.991   .     S
Cu2162 O2208   1.982   .     S
Cu2162 N2198   2.044   .     S
Cu2162 O2211   1.983   .     S
Cu2162 O2207   1.985   .     S
H2173  C673    1.107   1_556 S
H2175  C673    1.109   1_556 S
H2191  C1978   1.114   1_655 S
H2192  C1978   1.093   1_655 S
O2214  C1992   1.395   1_655 S
