data_str_m2_o1_o18_pcu_sym.72
_audit_creation_date              2020-01-03
_audit_creation_method            'Materials Studio'
_symmetry_space_group_name_H-M    'P1'
_symmetry_Int_Tables_number       1
_symmetry_cell_setting            triclinic
loop_
_symmetry_equiv_pos_as_xyz
  x,y,z
_cell_length_a                    28.8158
_cell_length_b                    32.4033
_cell_length_c                    31.3244
_cell_angle_alpha                 87.6996
_cell_angle_beta                  73.2834
_cell_angle_gamma                 91.4465
loop_
_atom_site_label
_atom_site_type_symbol
_atom_site_fract_x
_atom_site_fract_y
_atom_site_fract_z
_atom_site_U_iso_or_equiv
_atom_site_adp_type
_atom_site_occupancy
C1     C     0.00037   0.08764   0.24780   0.00000  Uiso   1.00
C2     C     0.03833   0.02235   0.21651   0.00000  Uiso   1.00
C3     C     0.00017   0.29037   0.25134   0.00000  Uiso   1.00
C4     C     0.00056   0.04299   0.24637   0.00000  Uiso   1.00
C5     C     0.18059   0.13973   0.27829   0.00000  Uiso   1.00
C6     C     0.15235   0.19436   0.22236   0.00000  Uiso   1.00
C7     C     0.13131   0.14109   0.27849   0.00000  Uiso   1.00
C8     C     0.20155   0.19369   0.22294   0.00000  Uiso   1.00
C9     C     0.30578   0.16672   0.33586   0.00000  Uiso   1.00
C10    C     0.02750   0.16557   0.16425   0.00000  Uiso   1.00
C11    C     0.29044   0.16640   0.38478   0.00000  Uiso   1.00
C12    C     0.00010   0.24576   0.25081   0.00000  Uiso   1.00
C13    C     0.04281   0.15945   0.11618   0.00000  Uiso   1.00
C14    C     0.30861   0.17329   0.45494   0.00000  Uiso   1.00
C15    C     0.02656   0.13511   0.04970   0.00000  Uiso   1.00
C16    C     0.32416   0.17265   0.40861   0.00000  Uiso   1.00
C17    C     0.01004   0.14469   0.09437   0.00000  Uiso   1.00
C18    C     0.24130   0.15993   0.40777   0.00000  Uiso   1.00
C19    C     0.09192   0.16470   0.09293   0.00000  Uiso   1.00
C20    C     0.22496   0.15856   0.45459   0.00000  Uiso   1.00
C21    C     0.10972   0.15361   0.04847   0.00000  Uiso   1.00
C22    C     0.25937   0.16658   0.47805   0.00000  Uiso   1.00
C23    C     0.19564   0.16239   0.04762   0.00000  Uiso   1.00
C24    C     0.07597   0.14000   0.02644   0.00000  Uiso   1.00
C25    C     0.17525   0.15088   0.47860   0.00000  Uiso   1.00
C26    C     0.16003   0.15609   0.02532   0.00000  Uiso   1.00
C27    C     0.25355   0.28811   0.31491   0.00000  Uiso   1.00
C28    C     0.20987   0.28099   0.29686   0.00000  Uiso   1.00
C29    C     0.17156   0.25168   0.32811   0.00000  Uiso   1.00
C30    C     0.07893   0.04404   0.17970   0.00000  Uiso   1.00
C31    C     0.07214   0.03747   0.13358   0.00000  Uiso   1.00
C32    C     0.11680   0.05325   0.09640   0.00000  Uiso   1.00
C33    C     0.18975   0.11118   0.31432   0.00000  Uiso   1.00
C34    C     0.14049   0.13714   0.45780   0.00000  Uiso   1.00
C35    C     0.17130   0.06614   0.31409   0.00000  Uiso   1.00
C36    C     0.16771   0.04319   0.35864   0.00000  Uiso   1.00
C37    C     0.13945   0.23000   0.19520   0.00000  Uiso   1.00
C38    C     0.17669   0.23994   0.14936   0.00000  Uiso   1.00
C39    C     0.15605   0.26812   0.11961   0.00000  Uiso   1.00
C40    C     0.24432   0.16775   0.02433   0.00000  Uiso   1.00
C41    C     0.09191   0.13116   0.48156   0.00000  Uiso   1.00
C42    C     0.29639   0.02054   0.27764   0.00000  Uiso   1.00
C43    C     0.03789   0.31267   0.22025   0.00000  Uiso   1.00
C44    C     0.29510   0.31088   0.28021   0.00000  Uiso   1.00
Cu45   Cu    0.04689   0.16667   0.25000   0.00000  Uiso   1.00
Cu46   Cu    0.28645   0.16666   0.25000   0.00000  Uiso   1.00
H47    H     0.27024   0.17328   0.04276   0.00000  Uiso   1.00
H48    H     0.14998   0.12913   0.42348   0.00000  Uiso   1.00
H49    H     0.26877   0.03677   0.30108   0.00000  Uiso   1.00
H50    H     0.06637   0.29631   0.19764   0.00000  Uiso   1.00
H51    H     0.10332   0.12251   0.30245   0.00000  Uiso   1.00
H52    H     0.22860   0.21553   0.20267   0.00000  Uiso   1.00
H53    H     0.18685   0.22095   0.33123   0.00000  Uiso   1.00
H54    H     0.15854   0.26443   0.36169   0.00000  Uiso   1.00
H55    H     0.14029   0.24761   0.31443   0.00000  Uiso   1.00
H56    H     0.19342   0.31085   0.29268   0.00000  Uiso   1.00
H57    H     0.22129   0.26795   0.26343   0.00000  Uiso   1.00
H58    H     0.06656   0.12012   0.46447   0.00000  Uiso   1.00
H59    H     0.26553   0.25825   0.32598   0.00000  Uiso   1.00
H60    H     0.24224   0.30622   0.34536   0.00000  Uiso   1.00
H61    H     0.12671   0.08553   0.10167   0.00000  Uiso   1.00
H62    H     0.14804   0.03367   0.09575   0.00000  Uiso   1.00
H63    H     0.10919   0.05220   0.06366   0.00000  Uiso   1.00
H64    H     0.06571   0.00414   0.12925   0.00000  Uiso   1.00
H65    H     0.04007   0.05440   0.13049   0.00000  Uiso   1.00
H66    H     0.08164   0.07771   0.18332   0.00000  Uiso   1.00
H67    H     0.11406   0.03161   0.18132   0.00000  Uiso   1.00
H68    H     0.20341   0.04352   0.36549   0.00000  Uiso   1.00
H69    H     0.11564   0.17771   0.11028   0.00000  Uiso   1.00
H70    H     0.14115   0.05799   0.38624   0.00000  Uiso   1.00
H71    H     0.15487   0.01073   0.35815   0.00000  Uiso   1.00
H72    H     0.13493   0.06381   0.30889   0.00000  Uiso   1.00
H73    H     0.19635   0.05057   0.28620   0.00000  Uiso   1.00
H74    H     0.22790   0.10958   0.31285   0.00000  Uiso   1.00
H75    H     0.17072   0.12414   0.34664   0.00000  Uiso   1.00
H76    H     0.12337   0.25337   0.11376   0.00000  Uiso   1.00
H77    H     0.14625   0.29791   0.13554   0.00000  Uiso   1.00
H78    H     0.18370   0.27443   0.08688   0.00000  Uiso   1.00
H79    H     0.20934   0.25626   0.15349   0.00000  Uiso   1.00
H80    H     0.21620   0.15726   0.38836   0.00000  Uiso   1.00
H81    H     0.18791   0.21093   0.13242   0.00000  Uiso   1.00
H82    H     0.10492   0.22391   0.18862   0.00000  Uiso   1.00
H83    H     0.13577   0.25804   0.21507   0.00000  Uiso   1.00
H84    H     0.30524   0.13975   0.11201   0.00000  Uiso   1.00
H85    H     0.02905   0.17787   0.39147   0.00000  Uiso   1.00
H86    H     0.00174   0.17933   0.47267   0.00000  Uiso   1.00
H87    H     0.00083   0.12334   0.03343   0.00000  Uiso   1.00
H88    H     0.18709   0.16153   0.08340   0.00000  Uiso   1.00
N89    N     0.11736   0.16668   0.24999   0.00000  Uiso   1.00
N90    N     0.21597   0.16666   0.25001   0.00000  Uiso   1.00
O91    O     0.03958   0.10655   0.25000   0.00000  Uiso   1.00
O92    O     0.29375   0.22678   0.25000   0.00000  Uiso   1.00
O93    O     0.29372   0.10654   0.25000   0.00000  Uiso   1.00
O94    O     0.03961   0.22679   0.24999   0.00000  Uiso   1.00
O95    O     0.01852   0.16668   0.31491   0.00000  Uiso   1.00
O96    O     0.31481   0.16666   0.18508   0.00000  Uiso   1.00
O97    O     0.27267   0.16667   0.31492   0.00000  Uiso   1.00
O98    O     0.06067   0.16667   0.18508   0.00000  Uiso   1.00
C99    C     0.33371   0.08764   0.24780   0.00000  Uiso   1.00
C100   C     0.37166   0.02235   0.21651   0.00000  Uiso   1.00
C101   C     0.33350   0.29037   0.25134   0.00000  Uiso   1.00
C102   C     0.33390   0.04299   0.24637   0.00000  Uiso   1.00
C103   C     0.51393   0.13973   0.27829   0.00000  Uiso   1.00
C104   C     0.48568   0.19436   0.22236   0.00000  Uiso   1.00
C105   C     0.46464   0.14109   0.27849   0.00000  Uiso   1.00
C106   C     0.53489   0.19369   0.22294   0.00000  Uiso   1.00
C107   C     0.63912   0.16672   0.33586   0.00000  Uiso   1.00
C108   C     0.36083   0.16557   0.16425   0.00000  Uiso   1.00
C109   C     0.62377   0.16640   0.38478   0.00000  Uiso   1.00
C110   C     0.33343   0.24576   0.25081   0.00000  Uiso   1.00
C111   C     0.37614   0.15945   0.11618   0.00000  Uiso   1.00
C112   C     0.64194   0.17329   0.45494   0.00000  Uiso   1.00
C113   C     0.35989   0.13511   0.04970   0.00000  Uiso   1.00
C114   C     0.65749   0.17265   0.40861   0.00000  Uiso   1.00
C115   C     0.34337   0.14469   0.09437   0.00000  Uiso   1.00
C116   C     0.57464   0.15993   0.40777   0.00000  Uiso   1.00
C117   C     0.42525   0.16470   0.09293   0.00000  Uiso   1.00
C118   C     0.55829   0.15856   0.45459   0.00000  Uiso   1.00
C119   C     0.44306   0.15361   0.04847   0.00000  Uiso   1.00
C120   C     0.59270   0.16658   0.47805   0.00000  Uiso   1.00
C121   C     0.52897   0.16239   0.04762   0.00000  Uiso   1.00
C122   C     0.40930   0.14000   0.02644   0.00000  Uiso   1.00
C123   C     0.50858   0.15088   0.47860   0.00000  Uiso   1.00
C124   C     0.49337   0.15609   0.02532   0.00000  Uiso   1.00
C125   C     0.58689   0.28811   0.31491   0.00000  Uiso   1.00
C126   C     0.54320   0.28099   0.29686   0.00000  Uiso   1.00
C127   C     0.50489   0.25168   0.32811   0.00000  Uiso   1.00
C128   C     0.41226   0.04404   0.17970   0.00000  Uiso   1.00
C129   C     0.40547   0.03747   0.13358   0.00000  Uiso   1.00
C130   C     0.45013   0.05325   0.09640   0.00000  Uiso   1.00
C131   C     0.52308   0.11118   0.31432   0.00000  Uiso   1.00
C132   C     0.47382   0.13714   0.45780   0.00000  Uiso   1.00
C133   C     0.50463   0.06614   0.31409   0.00000  Uiso   1.00
C134   C     0.50104   0.04319   0.35864   0.00000  Uiso   1.00
C135   C     0.47279   0.23000   0.19520   0.00000  Uiso   1.00
C136   C     0.51002   0.23994   0.14936   0.00000  Uiso   1.00
C137   C     0.48938   0.26812   0.11961   0.00000  Uiso   1.00
C138   C     0.57766   0.16775   0.02433   0.00000  Uiso   1.00
C139   C     0.42524   0.13116   0.48156   0.00000  Uiso   1.00
C140   C     0.62972   0.02054   0.27764   0.00000  Uiso   1.00
C141   C     0.37122   0.31267   0.22025   0.00000  Uiso   1.00
C142   C     0.62843   0.31088   0.28021   0.00000  Uiso   1.00
Cu143  Cu    0.38022   0.16667   0.25000   0.00000  Uiso   1.00
Cu144  Cu    0.61978   0.16666   0.25000   0.00000  Uiso   1.00
H145   H     0.60358   0.17328   0.04276   0.00000  Uiso   1.00
H146   H     0.48331   0.12913   0.42348   0.00000  Uiso   1.00
H147   H     0.60210   0.03677   0.30108   0.00000  Uiso   1.00
H148   H     0.39971   0.29631   0.19764   0.00000  Uiso   1.00
H149   H     0.43665   0.12251   0.30245   0.00000  Uiso   1.00
H150   H     0.56193   0.21553   0.20267   0.00000  Uiso   1.00
H151   H     0.52018   0.22095   0.33123   0.00000  Uiso   1.00
H152   H     0.49187   0.26443   0.36169   0.00000  Uiso   1.00
H153   H     0.47363   0.24761   0.31443   0.00000  Uiso   1.00
H154   H     0.52676   0.31085   0.29268   0.00000  Uiso   1.00
H155   H     0.55462   0.26795   0.26343   0.00000  Uiso   1.00
H156   H     0.39989   0.12012   0.46447   0.00000  Uiso   1.00
H157   H     0.59886   0.25825   0.32598   0.00000  Uiso   1.00
H158   H     0.57557   0.30622   0.34536   0.00000  Uiso   1.00
H159   H     0.46004   0.08553   0.10167   0.00000  Uiso   1.00
H160   H     0.48137   0.03367   0.09575   0.00000  Uiso   1.00
H161   H     0.44252   0.05220   0.06366   0.00000  Uiso   1.00
H162   H     0.39904   0.00414   0.12925   0.00000  Uiso   1.00
H163   H     0.37340   0.05440   0.13049   0.00000  Uiso   1.00
H164   H     0.41497   0.07771   0.18332   0.00000  Uiso   1.00
H165   H     0.44739   0.03161   0.18132   0.00000  Uiso   1.00
H166   H     0.53674   0.04352   0.36549   0.00000  Uiso   1.00
H167   H     0.44897   0.17771   0.11028   0.00000  Uiso   1.00
H168   H     0.47449   0.05799   0.38624   0.00000  Uiso   1.00
H169   H     0.48820   0.01073   0.35815   0.00000  Uiso   1.00
H170   H     0.46827   0.06381   0.30889   0.00000  Uiso   1.00
H171   H     0.52968   0.05057   0.28620   0.00000  Uiso   1.00
H172   H     0.56123   0.10958   0.31285   0.00000  Uiso   1.00
H173   H     0.50405   0.12414   0.34664   0.00000  Uiso   1.00
H174   H     0.45670   0.25337   0.11376   0.00000  Uiso   1.00
H175   H     0.47958   0.29791   0.13554   0.00000  Uiso   1.00
H176   H     0.51704   0.27443   0.08688   0.00000  Uiso   1.00
H177   H     0.54268   0.25626   0.15349   0.00000  Uiso   1.00
H178   H     0.54954   0.15726   0.38836   0.00000  Uiso   1.00
H179   H     0.52125   0.21093   0.13242   0.00000  Uiso   1.00
H180   H     0.43826   0.22391   0.18862   0.00000  Uiso   1.00
H181   H     0.46910   0.25804   0.21507   0.00000  Uiso   1.00
H182   H     0.63857   0.13975   0.11201   0.00000  Uiso   1.00
H183   H     0.36239   0.17787   0.39147   0.00000  Uiso   1.00
H184   H     0.33507   0.17933   0.47267   0.00000  Uiso   1.00
H185   H     0.33417   0.12334   0.03343   0.00000  Uiso   1.00
H186   H     0.52042   0.16153   0.08340   0.00000  Uiso   1.00
N187   N     0.45069   0.16668   0.24999   0.00000  Uiso   1.00
N188   N     0.54931   0.16666   0.25001   0.00000  Uiso   1.00
O189   O     0.37291   0.10655   0.25000   0.00000  Uiso   1.00
O190   O     0.62709   0.22678   0.25000   0.00000  Uiso   1.00
O191   O     0.62706   0.10654   0.25000   0.00000  Uiso   1.00
O192   O     0.37294   0.22679   0.24999   0.00000  Uiso   1.00
O193   O     0.35186   0.16668   0.31491   0.00000  Uiso   1.00
O194   O     0.64814   0.16666   0.18508   0.00000  Uiso   1.00
O195   O     0.60600   0.16667   0.31492   0.00000  Uiso   1.00
O196   O     0.39400   0.16667   0.18508   0.00000  Uiso   1.00
C197   C     0.66704   0.08764   0.24780   0.00000  Uiso   1.00
C198   C     0.70500   0.02235   0.21651   0.00000  Uiso   1.00
C199   C     0.66683   0.29037   0.25134   0.00000  Uiso   1.00
C200   C     0.66723   0.04299   0.24637   0.00000  Uiso   1.00
C201   C     0.84726   0.13973   0.27829   0.00000  Uiso   1.00
C202   C     0.81902   0.19436   0.22236   0.00000  Uiso   1.00
C203   C     0.79797   0.14109   0.27849   0.00000  Uiso   1.00
C204   C     0.86822   0.19369   0.22294   0.00000  Uiso   1.00
C205   C     0.97245   0.16672   0.33586   0.00000  Uiso   1.00
C206   C     0.69416   0.16557   0.16425   0.00000  Uiso   1.00
C207   C     0.95710   0.16640   0.38478   0.00000  Uiso   1.00
C208   C     0.66676   0.24576   0.25081   0.00000  Uiso   1.00
C209   C     0.70948   0.15945   0.11618   0.00000  Uiso   1.00
C210   C     0.97528   0.17329   0.45494   0.00000  Uiso   1.00
C211   C     0.69323   0.13511   0.04970   0.00000  Uiso   1.00
C212   C     0.99083   0.17265   0.40861   0.00000  Uiso   1.00
C213   C     0.67670   0.14469   0.09437   0.00000  Uiso   1.00
C214   C     0.90797   0.15993   0.40777   0.00000  Uiso   1.00
C215   C     0.75858   0.16470   0.09293   0.00000  Uiso   1.00
C216   C     0.89162   0.15856   0.45459   0.00000  Uiso   1.00
C217   C     0.77639   0.15361   0.04847   0.00000  Uiso   1.00
C218   C     0.92603   0.16658   0.47805   0.00000  Uiso   1.00
C219   C     0.86231   0.16239   0.04762   0.00000  Uiso   1.00
C220   C     0.74263   0.14000   0.02644   0.00000  Uiso   1.00
C221   C     0.84191   0.15088   0.47860   0.00000  Uiso   1.00
C222   C     0.82670   0.15609   0.02532   0.00000  Uiso   1.00
C223   C     0.92022   0.28811   0.31491   0.00000  Uiso   1.00
C224   C     0.87653   0.28099   0.29686   0.00000  Uiso   1.00
C225   C     0.83823   0.25168   0.32811   0.00000  Uiso   1.00
C226   C     0.74559   0.04404   0.17970   0.00000  Uiso   1.00
C227   C     0.73881   0.03747   0.13358   0.00000  Uiso   1.00
C228   C     0.78347   0.05325   0.09640   0.00000  Uiso   1.00
C229   C     0.85641   0.11118   0.31432   0.00000  Uiso   1.00
C230   C     0.80716   0.13714   0.45780   0.00000  Uiso   1.00
C231   C     0.83796   0.06614   0.31409   0.00000  Uiso   1.00
C232   C     0.83437   0.04319   0.35864   0.00000  Uiso   1.00
C233   C     0.80612   0.23000   0.19520   0.00000  Uiso   1.00
C234   C     0.84335   0.23994   0.14936   0.00000  Uiso   1.00
C235   C     0.82271   0.26812   0.11961   0.00000  Uiso   1.00
C236   C     0.91099   0.16775   0.02433   0.00000  Uiso   1.00
C237   C     0.75857   0.13116   0.48156   0.00000  Uiso   1.00
C238   C     0.96305   0.02054   0.27764   0.00000  Uiso   1.00
C239   C     0.70455   0.31267   0.22025   0.00000  Uiso   1.00
C240   C     0.96177   0.31088   0.28021   0.00000  Uiso   1.00
Cu241  Cu    0.71355   0.16667   0.25000   0.00000  Uiso   1.00
Cu242  Cu    0.95311   0.16666   0.25000   0.00000  Uiso   1.00
H243   H     0.93691   0.17328   0.04276   0.00000  Uiso   1.00
H244   H     0.81665   0.12913   0.42348   0.00000  Uiso   1.00
H245   H     0.93543   0.03677   0.30108   0.00000  Uiso   1.00
H246   H     0.73304   0.29631   0.19764   0.00000  Uiso   1.00
H247   H     0.76998   0.12251   0.30245   0.00000  Uiso   1.00
H248   H     0.89526   0.21553   0.20267   0.00000  Uiso   1.00
H249   H     0.85351   0.22095   0.33123   0.00000  Uiso   1.00
H250   H     0.82520   0.26443   0.36169   0.00000  Uiso   1.00
H251   H     0.80696   0.24761   0.31443   0.00000  Uiso   1.00
H252   H     0.86009   0.31085   0.29268   0.00000  Uiso   1.00
H253   H     0.88795   0.26795   0.26343   0.00000  Uiso   1.00
H254   H     0.73322   0.12012   0.46447   0.00000  Uiso   1.00
H255   H     0.93219   0.25825   0.32598   0.00000  Uiso   1.00
H256   H     0.90891   0.30622   0.34536   0.00000  Uiso   1.00
H257   H     0.79338   0.08553   0.10167   0.00000  Uiso   1.00
H258   H     0.81471   0.03367   0.09575   0.00000  Uiso   1.00
H259   H     0.77585   0.05220   0.06366   0.00000  Uiso   1.00
H260   H     0.73238   0.00414   0.12925   0.00000  Uiso   1.00
H261   H     0.70674   0.05440   0.13049   0.00000  Uiso   1.00
H262   H     0.74831   0.07771   0.18332   0.00000  Uiso   1.00
H263   H     0.78072   0.03161   0.18132   0.00000  Uiso   1.00
H264   H     0.87008   0.04352   0.36549   0.00000  Uiso   1.00
H265   H     0.78231   0.17771   0.11028   0.00000  Uiso   1.00
H266   H     0.80782   0.05799   0.38624   0.00000  Uiso   1.00
H267   H     0.82154   0.01073   0.35815   0.00000  Uiso   1.00
H268   H     0.80160   0.06381   0.30889   0.00000  Uiso   1.00
H269   H     0.86302   0.05057   0.28620   0.00000  Uiso   1.00
H270   H     0.89457   0.10958   0.31285   0.00000  Uiso   1.00
H271   H     0.83738   0.12414   0.34664   0.00000  Uiso   1.00
H272   H     0.79003   0.25337   0.11376   0.00000  Uiso   1.00
H273   H     0.81292   0.29791   0.13554   0.00000  Uiso   1.00
H274   H     0.85037   0.27443   0.08688   0.00000  Uiso   1.00
H275   H     0.87601   0.25626   0.15349   0.00000  Uiso   1.00
H276   H     0.88287   0.15726   0.38836   0.00000  Uiso   1.00
H277   H     0.85458   0.21093   0.13242   0.00000  Uiso   1.00
H278   H     0.77159   0.22391   0.18862   0.00000  Uiso   1.00
H279   H     0.80243   0.25804   0.21507   0.00000  Uiso   1.00
H280   H     0.97190   0.13975   0.11201   0.00000  Uiso   1.00
H281   H     0.69572   0.17787   0.39147   0.00000  Uiso   1.00
H282   H     0.66841   0.17933   0.47267   0.00000  Uiso   1.00
H283   H     0.66750   0.12334   0.03343   0.00000  Uiso   1.00
H284   H     0.85376   0.16153   0.08340   0.00000  Uiso   1.00
N285   N     0.78403   0.16668   0.24999   0.00000  Uiso   1.00
N286   N     0.88264   0.16666   0.25001   0.00000  Uiso   1.00
O287   O     0.70625   0.10655   0.25000   0.00000  Uiso   1.00
O288   O     0.96042   0.22678   0.25000   0.00000  Uiso   1.00
O289   O     0.96039   0.10654   0.25000   0.00000  Uiso   1.00
O290   O     0.70628   0.22679   0.24999   0.00000  Uiso   1.00
O291   O     0.68519   0.16668   0.31491   0.00000  Uiso   1.00
O292   O     0.98148   0.16666   0.18508   0.00000  Uiso   1.00
O293   O     0.93933   0.16667   0.31492   0.00000  Uiso   1.00
O294   O     0.72733   0.16667   0.18508   0.00000  Uiso   1.00
C295   C     0.00037   0.42098   0.24780   0.00000  Uiso   1.00
C296   C     0.03833   0.35569   0.21651   0.00000  Uiso   1.00
C297   C     0.00017   0.62371   0.25134   0.00000  Uiso   1.00
C298   C     0.00056   0.37632   0.24637   0.00000  Uiso   1.00
C299   C     0.18059   0.47307   0.27829   0.00000  Uiso   1.00
C300   C     0.15235   0.52769   0.22236   0.00000  Uiso   1.00
C301   C     0.13131   0.47442   0.27849   0.00000  Uiso   1.00
C302   C     0.20155   0.52702   0.22294   0.00000  Uiso   1.00
C303   C     0.30578   0.50005   0.33586   0.00000  Uiso   1.00
C304   C     0.02750   0.49890   0.16425   0.00000  Uiso   1.00
C305   C     0.29044   0.49973   0.38478   0.00000  Uiso   1.00
C306   C     0.00010   0.57909   0.25081   0.00000  Uiso   1.00
C307   C     0.04281   0.49279   0.11618   0.00000  Uiso   1.00
C308   C     0.30861   0.50663   0.45494   0.00000  Uiso   1.00
C309   C     0.02656   0.46844   0.04970   0.00000  Uiso   1.00
C310   C     0.32416   0.50599   0.40861   0.00000  Uiso   1.00
C311   C     0.01004   0.47802   0.09437   0.00000  Uiso   1.00
C312   C     0.24130   0.49327   0.40777   0.00000  Uiso   1.00
C313   C     0.09192   0.49803   0.09293   0.00000  Uiso   1.00
C314   C     0.22496   0.49190   0.45459   0.00000  Uiso   1.00
C315   C     0.10972   0.48695   0.04847   0.00000  Uiso   1.00
C316   C     0.25937   0.49991   0.47805   0.00000  Uiso   1.00
C317   C     0.19564   0.49572   0.04762   0.00000  Uiso   1.00
C318   C     0.07597   0.47333   0.02644   0.00000  Uiso   1.00
C319   C     0.17525   0.48422   0.47860   0.00000  Uiso   1.00
C320   C     0.16003   0.48943   0.02532   0.00000  Uiso   1.00
C321   C     0.25355   0.62144   0.31491   0.00000  Uiso   1.00
C322   C     0.20987   0.61432   0.29686   0.00000  Uiso   1.00
C323   C     0.17156   0.58501   0.32811   0.00000  Uiso   1.00
C324   C     0.07893   0.37737   0.17970   0.00000  Uiso   1.00
C325   C     0.07214   0.37080   0.13358   0.00000  Uiso   1.00
C326   C     0.11680   0.38658   0.09640   0.00000  Uiso   1.00
C327   C     0.18975   0.44452   0.31432   0.00000  Uiso   1.00
C328   C     0.14049   0.47047   0.45780   0.00000  Uiso   1.00
C329   C     0.17130   0.39948   0.31409   0.00000  Uiso   1.00
C330   C     0.16771   0.37652   0.35864   0.00000  Uiso   1.00
C331   C     0.13945   0.56334   0.19520   0.00000  Uiso   1.00
C332   C     0.17669   0.57327   0.14936   0.00000  Uiso   1.00
C333   C     0.15605   0.60146   0.11961   0.00000  Uiso   1.00
C334   C     0.24432   0.50108   0.02433   0.00000  Uiso   1.00
C335   C     0.09191   0.46450   0.48156   0.00000  Uiso   1.00
C336   C     0.29639   0.35387   0.27764   0.00000  Uiso   1.00
C337   C     0.03789   0.64600   0.22025   0.00000  Uiso   1.00
C338   C     0.29510   0.64421   0.28021   0.00000  Uiso   1.00
Cu339  Cu    0.04689   0.50001   0.25000   0.00000  Uiso   1.00
Cu340  Cu    0.28645   0.49999   0.25000   0.00000  Uiso   1.00
H341   H     0.27024   0.50662   0.04276   0.00000  Uiso   1.00
H342   H     0.14998   0.46246   0.42348   0.00000  Uiso   1.00
H343   H     0.26877   0.37010   0.30108   0.00000  Uiso   1.00
H344   H     0.06637   0.62964   0.19764   0.00000  Uiso   1.00
H345   H     0.10332   0.45584   0.30245   0.00000  Uiso   1.00
H346   H     0.22860   0.54886   0.20267   0.00000  Uiso   1.00
H347   H     0.18685   0.55428   0.33123   0.00000  Uiso   1.00
H348   H     0.15854   0.59776   0.36169   0.00000  Uiso   1.00
H349   H     0.14029   0.58094   0.31443   0.00000  Uiso   1.00
H350   H     0.19342   0.64418   0.29268   0.00000  Uiso   1.00
H351   H     0.22129   0.60129   0.26343   0.00000  Uiso   1.00
H352   H     0.06656   0.45345   0.46447   0.00000  Uiso   1.00
H353   H     0.26553   0.59158   0.32598   0.00000  Uiso   1.00
H354   H     0.24224   0.63955   0.34536   0.00000  Uiso   1.00
H355   H     0.12671   0.41886   0.10167   0.00000  Uiso   1.00
H356   H     0.14804   0.36700   0.09575   0.00000  Uiso   1.00
H357   H     0.10919   0.38553   0.06366   0.00000  Uiso   1.00
H358   H     0.06571   0.33747   0.12925   0.00000  Uiso   1.00
H359   H     0.04007   0.38773   0.13049   0.00000  Uiso   1.00
H360   H     0.08164   0.41104   0.18332   0.00000  Uiso   1.00
H361   H     0.11406   0.36495   0.18132   0.00000  Uiso   1.00
H362   H     0.20341   0.37685   0.36549   0.00000  Uiso   1.00
H363   H     0.11564   0.51104   0.11028   0.00000  Uiso   1.00
H364   H     0.14115   0.39133   0.38624   0.00000  Uiso   1.00
H365   H     0.15487   0.34407   0.35815   0.00000  Uiso   1.00
H366   H     0.13493   0.39715   0.30889   0.00000  Uiso   1.00
H367   H     0.19635   0.38390   0.28620   0.00000  Uiso   1.00
H368   H     0.22790   0.44292   0.31285   0.00000  Uiso   1.00
H369   H     0.17072   0.45748   0.34664   0.00000  Uiso   1.00
H370   H     0.12337   0.58671   0.11376   0.00000  Uiso   1.00
H371   H     0.14625   0.63124   0.13554   0.00000  Uiso   1.00
H372   H     0.18370   0.60776   0.08688   0.00000  Uiso   1.00
H373   H     0.20934   0.58960   0.15349   0.00000  Uiso   1.00
H374   H     0.21620   0.49059   0.38836   0.00000  Uiso   1.00
H375   H     0.18791   0.54427   0.13242   0.00000  Uiso   1.00
H376   H     0.10492   0.55725   0.18862   0.00000  Uiso   1.00
H377   H     0.13577   0.59137   0.21507   0.00000  Uiso   1.00
H378   H     0.30524   0.47309   0.11201   0.00000  Uiso   1.00
H379   H     0.02905   0.51120   0.39147   0.00000  Uiso   1.00
H380   H     0.00174   0.51266   0.47267   0.00000  Uiso   1.00
H381   H     0.00083   0.45668   0.03343   0.00000  Uiso   1.00
H382   H     0.18709   0.49487   0.08340   0.00000  Uiso   1.00
N383   N     0.11736   0.50001   0.24999   0.00000  Uiso   1.00
N384   N     0.21597   0.49999   0.25001   0.00000  Uiso   1.00
O385   O     0.03958   0.43989   0.25000   0.00000  Uiso   1.00
O386   O     0.29375   0.56011   0.25000   0.00000  Uiso   1.00
O387   O     0.29372   0.43988   0.25000   0.00000  Uiso   1.00
O388   O     0.03961   0.56012   0.24999   0.00000  Uiso   1.00
O389   O     0.01852   0.50001   0.31491   0.00000  Uiso   1.00
O390   O     0.31481   0.49999   0.18508   0.00000  Uiso   1.00
O391   O     0.27267   0.50000   0.31492   0.00000  Uiso   1.00
O392   O     0.06067   0.50000   0.18508   0.00000  Uiso   1.00
C393   C     0.33371   0.42098   0.24780   0.00000  Uiso   1.00
C394   C     0.37166   0.35569   0.21651   0.00000  Uiso   1.00
C395   C     0.33350   0.62371   0.25134   0.00000  Uiso   1.00
C396   C     0.33390   0.37632   0.24637   0.00000  Uiso   1.00
C397   C     0.51393   0.47307   0.27829   0.00000  Uiso   1.00
C398   C     0.48568   0.52769   0.22236   0.00000  Uiso   1.00
C399   C     0.46464   0.47442   0.27849   0.00000  Uiso   1.00
C400   C     0.53489   0.52702   0.22294   0.00000  Uiso   1.00
C401   C     0.63912   0.50005   0.33586   0.00000  Uiso   1.00
C402   C     0.36083   0.49890   0.16425   0.00000  Uiso   1.00
C403   C     0.62377   0.49973   0.38478   0.00000  Uiso   1.00
C404   C     0.33343   0.57909   0.25081   0.00000  Uiso   1.00
C405   C     0.37614   0.49279   0.11618   0.00000  Uiso   1.00
C406   C     0.64194   0.50663   0.45494   0.00000  Uiso   1.00
C407   C     0.35989   0.46844   0.04970   0.00000  Uiso   1.00
C408   C     0.65749   0.50599   0.40861   0.00000  Uiso   1.00
C409   C     0.34337   0.47802   0.09437   0.00000  Uiso   1.00
C410   C     0.57464   0.49327   0.40777   0.00000  Uiso   1.00
C411   C     0.42525   0.49803   0.09293   0.00000  Uiso   1.00
C412   C     0.55829   0.49190   0.45459   0.00000  Uiso   1.00
C413   C     0.44306   0.48695   0.04847   0.00000  Uiso   1.00
C414   C     0.59270   0.49991   0.47805   0.00000  Uiso   1.00
C415   C     0.52897   0.49572   0.04762   0.00000  Uiso   1.00
C416   C     0.40930   0.47333   0.02644   0.00000  Uiso   1.00
C417   C     0.50858   0.48422   0.47860   0.00000  Uiso   1.00
C418   C     0.49337   0.48943   0.02532   0.00000  Uiso   1.00
C419   C     0.58689   0.62144   0.31491   0.00000  Uiso   1.00
C420   C     0.54320   0.61432   0.29686   0.00000  Uiso   1.00
C421   C     0.50489   0.58501   0.32811   0.00000  Uiso   1.00
C422   C     0.41226   0.37737   0.17970   0.00000  Uiso   1.00
C423   C     0.40547   0.37080   0.13358   0.00000  Uiso   1.00
C424   C     0.45013   0.38658   0.09640   0.00000  Uiso   1.00
C425   C     0.52308   0.44452   0.31432   0.00000  Uiso   1.00
C426   C     0.47382   0.47047   0.45780   0.00000  Uiso   1.00
C427   C     0.50463   0.39948   0.31409   0.00000  Uiso   1.00
C428   C     0.50104   0.37652   0.35864   0.00000  Uiso   1.00
C429   C     0.47279   0.56334   0.19520   0.00000  Uiso   1.00
C430   C     0.51002   0.57327   0.14936   0.00000  Uiso   1.00
C431   C     0.48938   0.60146   0.11961   0.00000  Uiso   1.00
C432   C     0.57766   0.50108   0.02433   0.00000  Uiso   1.00
C433   C     0.42524   0.46450   0.48156   0.00000  Uiso   1.00
C434   C     0.62972   0.35387   0.27764   0.00000  Uiso   1.00
C435   C     0.37122   0.64600   0.22025   0.00000  Uiso   1.00
C436   C     0.62843   0.64421   0.28021   0.00000  Uiso   1.00
Cu437  Cu    0.38022   0.50001   0.25000   0.00000  Uiso   1.00
Cu438  Cu    0.61978   0.49999   0.25000   0.00000  Uiso   1.00
H439   H     0.60358   0.50662   0.04276   0.00000  Uiso   1.00
H440   H     0.48331   0.46246   0.42348   0.00000  Uiso   1.00
H441   H     0.60210   0.37010   0.30108   0.00000  Uiso   1.00
H442   H     0.39971   0.62964   0.19764   0.00000  Uiso   1.00
H443   H     0.43665   0.45584   0.30245   0.00000  Uiso   1.00
H444   H     0.56193   0.54886   0.20267   0.00000  Uiso   1.00
H445   H     0.52018   0.55428   0.33123   0.00000  Uiso   1.00
H446   H     0.49187   0.59776   0.36169   0.00000  Uiso   1.00
H447   H     0.47363   0.58094   0.31443   0.00000  Uiso   1.00
H448   H     0.52676   0.64418   0.29268   0.00000  Uiso   1.00
H449   H     0.55462   0.60129   0.26343   0.00000  Uiso   1.00
H450   H     0.39989   0.45345   0.46447   0.00000  Uiso   1.00
H451   H     0.59886   0.59158   0.32598   0.00000  Uiso   1.00
H452   H     0.57557   0.63955   0.34536   0.00000  Uiso   1.00
H453   H     0.46004   0.41886   0.10167   0.00000  Uiso   1.00
H454   H     0.48137   0.36700   0.09575   0.00000  Uiso   1.00
H455   H     0.44252   0.38553   0.06366   0.00000  Uiso   1.00
H456   H     0.39904   0.33747   0.12925   0.00000  Uiso   1.00
H457   H     0.37340   0.38773   0.13049   0.00000  Uiso   1.00
H458   H     0.41497   0.41104   0.18332   0.00000  Uiso   1.00
H459   H     0.44739   0.36495   0.18132   0.00000  Uiso   1.00
H460   H     0.53674   0.37685   0.36549   0.00000  Uiso   1.00
H461   H     0.44897   0.51104   0.11028   0.00000  Uiso   1.00
H462   H     0.47449   0.39133   0.38624   0.00000  Uiso   1.00
H463   H     0.48820   0.34407   0.35815   0.00000  Uiso   1.00
H464   H     0.46827   0.39715   0.30889   0.00000  Uiso   1.00
H465   H     0.52968   0.38390   0.28620   0.00000  Uiso   1.00
H466   H     0.56123   0.44292   0.31285   0.00000  Uiso   1.00
H467   H     0.50405   0.45748   0.34664   0.00000  Uiso   1.00
H468   H     0.45670   0.58671   0.11376   0.00000  Uiso   1.00
H469   H     0.47958   0.63124   0.13554   0.00000  Uiso   1.00
H470   H     0.51704   0.60776   0.08688   0.00000  Uiso   1.00
H471   H     0.54268   0.58960   0.15349   0.00000  Uiso   1.00
H472   H     0.54954   0.49059   0.38836   0.00000  Uiso   1.00
H473   H     0.52125   0.54427   0.13242   0.00000  Uiso   1.00
H474   H     0.43826   0.55725   0.18862   0.00000  Uiso   1.00
H475   H     0.46910   0.59137   0.21507   0.00000  Uiso   1.00
H476   H     0.63857   0.47309   0.11201   0.00000  Uiso   1.00
H477   H     0.36239   0.51120   0.39147   0.00000  Uiso   1.00
H478   H     0.33507   0.51266   0.47267   0.00000  Uiso   1.00
H479   H     0.33417   0.45668   0.03343   0.00000  Uiso   1.00
H480   H     0.52042   0.49487   0.08340   0.00000  Uiso   1.00
N481   N     0.45069   0.50001   0.24999   0.00000  Uiso   1.00
N482   N     0.54931   0.49999   0.25001   0.00000  Uiso   1.00
O483   O     0.37291   0.43989   0.25000   0.00000  Uiso   1.00
O484   O     0.62709   0.56011   0.25000   0.00000  Uiso   1.00
O485   O     0.62706   0.43988   0.25000   0.00000  Uiso   1.00
O486   O     0.37294   0.56012   0.24999   0.00000  Uiso   1.00
O487   O     0.35186   0.50001   0.31491   0.00000  Uiso   1.00
O488   O     0.64814   0.49999   0.18508   0.00000  Uiso   1.00
O489   O     0.60600   0.50000   0.31492   0.00000  Uiso   1.00
O490   O     0.39400   0.50000   0.18508   0.00000  Uiso   1.00
C491   C     0.66704   0.42098   0.24780   0.00000  Uiso   1.00
C492   C     0.70500   0.35569   0.21651   0.00000  Uiso   1.00
C493   C     0.66683   0.62371   0.25134   0.00000  Uiso   1.00
C494   C     0.66723   0.37632   0.24637   0.00000  Uiso   1.00
C495   C     0.84726   0.47307   0.27829   0.00000  Uiso   1.00
C496   C     0.81902   0.52769   0.22236   0.00000  Uiso   1.00
C497   C     0.79797   0.47442   0.27849   0.00000  Uiso   1.00
C498   C     0.86822   0.52702   0.22294   0.00000  Uiso   1.00
C499   C     0.97245   0.50005   0.33586   0.00000  Uiso   1.00
C500   C     0.69416   0.49890   0.16425   0.00000  Uiso   1.00
C501   C     0.95710   0.49973   0.38478   0.00000  Uiso   1.00
C502   C     0.66676   0.57909   0.25081   0.00000  Uiso   1.00
C503   C     0.70948   0.49279   0.11618   0.00000  Uiso   1.00
C504   C     0.97528   0.50663   0.45494   0.00000  Uiso   1.00
C505   C     0.69323   0.46844   0.04970   0.00000  Uiso   1.00
C506   C     0.99083   0.50599   0.40861   0.00000  Uiso   1.00
C507   C     0.67670   0.47802   0.09437   0.00000  Uiso   1.00
C508   C     0.90797   0.49327   0.40777   0.00000  Uiso   1.00
C509   C     0.75858   0.49803   0.09293   0.00000  Uiso   1.00
C510   C     0.89162   0.49190   0.45459   0.00000  Uiso   1.00
C511   C     0.77639   0.48695   0.04847   0.00000  Uiso   1.00
C512   C     0.92603   0.49991   0.47805   0.00000  Uiso   1.00
C513   C     0.86231   0.49572   0.04762   0.00000  Uiso   1.00
C514   C     0.74263   0.47333   0.02644   0.00000  Uiso   1.00
C515   C     0.84191   0.48422   0.47860   0.00000  Uiso   1.00
C516   C     0.82670   0.48943   0.02532   0.00000  Uiso   1.00
C517   C     0.92022   0.62144   0.31491   0.00000  Uiso   1.00
C518   C     0.87653   0.61432   0.29686   0.00000  Uiso   1.00
C519   C     0.83823   0.58501   0.32811   0.00000  Uiso   1.00
C520   C     0.74559   0.37737   0.17970   0.00000  Uiso   1.00
C521   C     0.73881   0.37080   0.13358   0.00000  Uiso   1.00
C522   C     0.78347   0.38658   0.09640   0.00000  Uiso   1.00
C523   C     0.85641   0.44452   0.31432   0.00000  Uiso   1.00
C524   C     0.80716   0.47047   0.45780   0.00000  Uiso   1.00
C525   C     0.83796   0.39948   0.31409   0.00000  Uiso   1.00
C526   C     0.83437   0.37652   0.35864   0.00000  Uiso   1.00
C527   C     0.80612   0.56334   0.19520   0.00000  Uiso   1.00
C528   C     0.84335   0.57327   0.14936   0.00000  Uiso   1.00
C529   C     0.82271   0.60146   0.11961   0.00000  Uiso   1.00
C530   C     0.91099   0.50108   0.02433   0.00000  Uiso   1.00
C531   C     0.75857   0.46450   0.48156   0.00000  Uiso   1.00
C532   C     0.96305   0.35387   0.27764   0.00000  Uiso   1.00
C533   C     0.70455   0.64600   0.22025   0.00000  Uiso   1.00
C534   C     0.96177   0.64421   0.28021   0.00000  Uiso   1.00
Cu535  Cu    0.71355   0.50001   0.25000   0.00000  Uiso   1.00
Cu536  Cu    0.95311   0.49999   0.25000   0.00000  Uiso   1.00
H537   H     0.93691   0.50662   0.04276   0.00000  Uiso   1.00
H538   H     0.81665   0.46246   0.42348   0.00000  Uiso   1.00
H539   H     0.93543   0.37010   0.30108   0.00000  Uiso   1.00
H540   H     0.73304   0.62964   0.19764   0.00000  Uiso   1.00
H541   H     0.76998   0.45584   0.30245   0.00000  Uiso   1.00
H542   H     0.89526   0.54886   0.20267   0.00000  Uiso   1.00
H543   H     0.85351   0.55428   0.33123   0.00000  Uiso   1.00
H544   H     0.82520   0.59776   0.36169   0.00000  Uiso   1.00
H545   H     0.80696   0.58094   0.31443   0.00000  Uiso   1.00
H546   H     0.86009   0.64418   0.29268   0.00000  Uiso   1.00
H547   H     0.88795   0.60129   0.26343   0.00000  Uiso   1.00
H548   H     0.73322   0.45345   0.46447   0.00000  Uiso   1.00
H549   H     0.93219   0.59158   0.32598   0.00000  Uiso   1.00
H550   H     0.90891   0.63955   0.34536   0.00000  Uiso   1.00
H551   H     0.79338   0.41886   0.10167   0.00000  Uiso   1.00
H552   H     0.81471   0.36700   0.09575   0.00000  Uiso   1.00
H553   H     0.77585   0.38553   0.06366   0.00000  Uiso   1.00
H554   H     0.73238   0.33747   0.12925   0.00000  Uiso   1.00
H555   H     0.70674   0.38773   0.13049   0.00000  Uiso   1.00
H556   H     0.74831   0.41104   0.18332   0.00000  Uiso   1.00
H557   H     0.78072   0.36495   0.18132   0.00000  Uiso   1.00
H558   H     0.87008   0.37685   0.36549   0.00000  Uiso   1.00
H559   H     0.78231   0.51104   0.11028   0.00000  Uiso   1.00
H560   H     0.80782   0.39133   0.38624   0.00000  Uiso   1.00
H561   H     0.82154   0.34407   0.35815   0.00000  Uiso   1.00
H562   H     0.80160   0.39715   0.30889   0.00000  Uiso   1.00
H563   H     0.86302   0.38390   0.28620   0.00000  Uiso   1.00
H564   H     0.89457   0.44292   0.31285   0.00000  Uiso   1.00
H565   H     0.83738   0.45748   0.34664   0.00000  Uiso   1.00
H566   H     0.79003   0.58671   0.11376   0.00000  Uiso   1.00
H567   H     0.81292   0.63124   0.13554   0.00000  Uiso   1.00
H568   H     0.85037   0.60776   0.08688   0.00000  Uiso   1.00
H569   H     0.87601   0.58960   0.15349   0.00000  Uiso   1.00
H570   H     0.88287   0.49059   0.38836   0.00000  Uiso   1.00
H571   H     0.85458   0.54427   0.13242   0.00000  Uiso   1.00
H572   H     0.77159   0.55725   0.18862   0.00000  Uiso   1.00
H573   H     0.80243   0.59137   0.21507   0.00000  Uiso   1.00
H574   H     0.97190   0.47309   0.11201   0.00000  Uiso   1.00
H575   H     0.69572   0.51120   0.39147   0.00000  Uiso   1.00
H576   H     0.66841   0.51266   0.47267   0.00000  Uiso   1.00
H577   H     0.66750   0.45668   0.03343   0.00000  Uiso   1.00
H578   H     0.85376   0.49487   0.08340   0.00000  Uiso   1.00
N579   N     0.78403   0.50001   0.24999   0.00000  Uiso   1.00
N580   N     0.88264   0.49999   0.25001   0.00000  Uiso   1.00
O581   O     0.70625   0.43989   0.25000   0.00000  Uiso   1.00
O582   O     0.96042   0.56011   0.25000   0.00000  Uiso   1.00
O583   O     0.96039   0.43988   0.25000   0.00000  Uiso   1.00
O584   O     0.70628   0.56012   0.24999   0.00000  Uiso   1.00
O585   O     0.68519   0.50001   0.31491   0.00000  Uiso   1.00
O586   O     0.98148   0.49999   0.18508   0.00000  Uiso   1.00
O587   O     0.93933   0.50000   0.31492   0.00000  Uiso   1.00
O588   O     0.72733   0.50000   0.18508   0.00000  Uiso   1.00
C589   C     0.00037   0.75431   0.24780   0.00000  Uiso   1.00
C590   C     0.03833   0.68902   0.21651   0.00000  Uiso   1.00
C591   C     0.00017   0.95704   0.25134   0.00000  Uiso   1.00
C592   C     0.00056   0.70966   0.24637   0.00000  Uiso   1.00
C593   C     0.18059   0.80640   0.27829   0.00000  Uiso   1.00
C594   C     0.15235   0.86103   0.22236   0.00000  Uiso   1.00
C595   C     0.13131   0.80775   0.27849   0.00000  Uiso   1.00
C596   C     0.20155   0.86036   0.22294   0.00000  Uiso   1.00
C597   C     0.30578   0.83339   0.33586   0.00000  Uiso   1.00
C598   C     0.02750   0.83224   0.16425   0.00000  Uiso   1.00
C599   C     0.29044   0.83306   0.38478   0.00000  Uiso   1.00
C600   C     0.00010   0.91242   0.25081   0.00000  Uiso   1.00
C601   C     0.04281   0.82612   0.11618   0.00000  Uiso   1.00
C602   C     0.30861   0.83996   0.45494   0.00000  Uiso   1.00
C603   C     0.02656   0.80178   0.04970   0.00000  Uiso   1.00
C604   C     0.32416   0.83932   0.40861   0.00000  Uiso   1.00
C605   C     0.01004   0.81135   0.09437   0.00000  Uiso   1.00
C606   C     0.24130   0.82660   0.40777   0.00000  Uiso   1.00
C607   C     0.09192   0.83136   0.09293   0.00000  Uiso   1.00
C608   C     0.22496   0.82523   0.45459   0.00000  Uiso   1.00
C609   C     0.10972   0.82028   0.04847   0.00000  Uiso   1.00
C610   C     0.25937   0.83324   0.47805   0.00000  Uiso   1.00
C611   C     0.19564   0.82906   0.04762   0.00000  Uiso   1.00
C612   C     0.07597   0.80667   0.02644   0.00000  Uiso   1.00
C613   C     0.17525   0.81755   0.47860   0.00000  Uiso   1.00
C614   C     0.16003   0.82276   0.02532   0.00000  Uiso   1.00
C615   C     0.25355   0.95477   0.31491   0.00000  Uiso   1.00
C616   C     0.20987   0.94766   0.29686   0.00000  Uiso   1.00
C617   C     0.17156   0.91835   0.32811   0.00000  Uiso   1.00
C618   C     0.07893   0.71070   0.17970   0.00000  Uiso   1.00
C619   C     0.07214   0.70414   0.13358   0.00000  Uiso   1.00
C620   C     0.11680   0.71991   0.09640   0.00000  Uiso   1.00
C621   C     0.18975   0.77785   0.31432   0.00000  Uiso   1.00
C622   C     0.14049   0.80380   0.45780   0.00000  Uiso   1.00
C623   C     0.17130   0.73281   0.31409   0.00000  Uiso   1.00
C624   C     0.16771   0.70986   0.35864   0.00000  Uiso   1.00
C625   C     0.13945   0.89667   0.19520   0.00000  Uiso   1.00
C626   C     0.17669   0.90660   0.14936   0.00000  Uiso   1.00
C627   C     0.15605   0.93479   0.11961   0.00000  Uiso   1.00
C628   C     0.24432   0.83442   0.02433   0.00000  Uiso   1.00
C629   C     0.09191   0.79783   0.48156   0.00000  Uiso   1.00
C630   C     0.29639   0.68720   0.27764   0.00000  Uiso   1.00
C631   C     0.03789   0.97933   0.22025   0.00000  Uiso   1.00
C632   C     0.29510   0.97755   0.28021   0.00000  Uiso   1.00
Cu633  Cu    0.04689   0.83334   0.25000   0.00000  Uiso   1.00
Cu634  Cu    0.28645   0.83333   0.25000   0.00000  Uiso   1.00
H635   H     0.27024   0.83995   0.04276   0.00000  Uiso   1.00
H636   H     0.14998   0.79580   0.42348   0.00000  Uiso   1.00
H637   H     0.26877   0.70344   0.30108   0.00000  Uiso   1.00
H638   H     0.06637   0.96297   0.19764   0.00000  Uiso   1.00
H639   H     0.10332   0.78918   0.30245   0.00000  Uiso   1.00
H640   H     0.22860   0.88220   0.20267   0.00000  Uiso   1.00
H641   H     0.18685   0.88761   0.33123   0.00000  Uiso   1.00
H642   H     0.15854   0.93110   0.36169   0.00000  Uiso   1.00
H643   H     0.14029   0.91428   0.31443   0.00000  Uiso   1.00
H644   H     0.19342   0.97751   0.29268   0.00000  Uiso   1.00
H645   H     0.22129   0.93462   0.26343   0.00000  Uiso   1.00
H646   H     0.06656   0.78678   0.46447   0.00000  Uiso   1.00
H647   H     0.26553   0.92491   0.32598   0.00000  Uiso   1.00
H648   H     0.24224   0.97288   0.34536   0.00000  Uiso   1.00
H649   H     0.12671   0.75220   0.10167   0.00000  Uiso   1.00
H650   H     0.14804   0.70034   0.09575   0.00000  Uiso   1.00
H651   H     0.10919   0.71887   0.06366   0.00000  Uiso   1.00
H652   H     0.06571   0.67081   0.12925   0.00000  Uiso   1.00
H653   H     0.04007   0.72106   0.13049   0.00000  Uiso   1.00
H654   H     0.08164   0.74437   0.18332   0.00000  Uiso   1.00
H655   H     0.11406   0.69828   0.18132   0.00000  Uiso   1.00
H656   H     0.20341   0.71019   0.36549   0.00000  Uiso   1.00
H657   H     0.11564   0.84437   0.11028   0.00000  Uiso   1.00
H658   H     0.14115   0.72466   0.38624   0.00000  Uiso   1.00
H659   H     0.15487   0.67740   0.35815   0.00000  Uiso   1.00
H660   H     0.13493   0.73048   0.30889   0.00000  Uiso   1.00
H661   H     0.19635   0.71724   0.28620   0.00000  Uiso   1.00
H662   H     0.22790   0.77625   0.31285   0.00000  Uiso   1.00
H663   H     0.17072   0.79081   0.34664   0.00000  Uiso   1.00
H664   H     0.12337   0.92004   0.11376   0.00000  Uiso   1.00
H665   H     0.14625   0.96458   0.13554   0.00000  Uiso   1.00
H666   H     0.18370   0.94110   0.08688   0.00000  Uiso   1.00
H667   H     0.20934   0.92293   0.15349   0.00000  Uiso   1.00
H668   H     0.21620   0.82392   0.38836   0.00000  Uiso   1.00
H669   H     0.18791   0.87760   0.13242   0.00000  Uiso   1.00
H670   H     0.10492   0.89058   0.18862   0.00000  Uiso   1.00
H671   H     0.13577   0.92470   0.21507   0.00000  Uiso   1.00
H672   H     0.30524   0.80642   0.11201   0.00000  Uiso   1.00
H673   H     0.02905   0.84454   0.39147   0.00000  Uiso   1.00
H674   H     0.00174   0.84599   0.47267   0.00000  Uiso   1.00
H675   H     0.00083   0.79001   0.03343   0.00000  Uiso   1.00
H676   H     0.18709   0.82820   0.08340   0.00000  Uiso   1.00
N677   N     0.11736   0.83334   0.24999   0.00000  Uiso   1.00
N678   N     0.21597   0.83332   0.25001   0.00000  Uiso   1.00
O679   O     0.03958   0.77322   0.25000   0.00000  Uiso   1.00
O680   O     0.29375   0.89345   0.25000   0.00000  Uiso   1.00
O681   O     0.29372   0.77321   0.25000   0.00000  Uiso   1.00
O682   O     0.03961   0.89346   0.24999   0.00000  Uiso   1.00
O683   O     0.01852   0.83334   0.31491   0.00000  Uiso   1.00
O684   O     0.31481   0.83332   0.18508   0.00000  Uiso   1.00
O685   O     0.27267   0.83333   0.31492   0.00000  Uiso   1.00
O686   O     0.06067   0.83333   0.18508   0.00000  Uiso   1.00
C687   C     0.33371   0.75431   0.24780   0.00000  Uiso   1.00
C688   C     0.37166   0.68902   0.21651   0.00000  Uiso   1.00
C689   C     0.33350   0.95704   0.25134   0.00000  Uiso   1.00
C690   C     0.33390   0.70966   0.24637   0.00000  Uiso   1.00
C691   C     0.51393   0.80640   0.27829   0.00000  Uiso   1.00
C692   C     0.48568   0.86103   0.22236   0.00000  Uiso   1.00
C693   C     0.46464   0.80775   0.27849   0.00000  Uiso   1.00
C694   C     0.53489   0.86036   0.22294   0.00000  Uiso   1.00
C695   C     0.63912   0.83339   0.33586   0.00000  Uiso   1.00
C696   C     0.36083   0.83224   0.16425   0.00000  Uiso   1.00
C697   C     0.62377   0.83306   0.38478   0.00000  Uiso   1.00
C698   C     0.33343   0.91242   0.25081   0.00000  Uiso   1.00
C699   C     0.37614   0.82612   0.11618   0.00000  Uiso   1.00
C700   C     0.64194   0.83996   0.45494   0.00000  Uiso   1.00
C701   C     0.35989   0.80178   0.04970   0.00000  Uiso   1.00
C702   C     0.65749   0.83932   0.40861   0.00000  Uiso   1.00
C703   C     0.34337   0.81135   0.09437   0.00000  Uiso   1.00
C704   C     0.57464   0.82660   0.40777   0.00000  Uiso   1.00
C705   C     0.42525   0.83136   0.09293   0.00000  Uiso   1.00
C706   C     0.55829   0.82523   0.45459   0.00000  Uiso   1.00
C707   C     0.44306   0.82028   0.04847   0.00000  Uiso   1.00
C708   C     0.59270   0.83324   0.47805   0.00000  Uiso   1.00
C709   C     0.52897   0.82906   0.04762   0.00000  Uiso   1.00
C710   C     0.40930   0.80667   0.02644   0.00000  Uiso   1.00
C711   C     0.50858   0.81755   0.47860   0.00000  Uiso   1.00
C712   C     0.49337   0.82276   0.02532   0.00000  Uiso   1.00
C713   C     0.58689   0.95477   0.31491   0.00000  Uiso   1.00
C714   C     0.54320   0.94766   0.29686   0.00000  Uiso   1.00
C715   C     0.50489   0.91835   0.32811   0.00000  Uiso   1.00
C716   C     0.41226   0.71070   0.17970   0.00000  Uiso   1.00
C717   C     0.40547   0.70414   0.13358   0.00000  Uiso   1.00
C718   C     0.45013   0.71991   0.09640   0.00000  Uiso   1.00
C719   C     0.52308   0.77785   0.31432   0.00000  Uiso   1.00
C720   C     0.47382   0.80380   0.45780   0.00000  Uiso   1.00
C721   C     0.50463   0.73281   0.31409   0.00000  Uiso   1.00
C722   C     0.50104   0.70986   0.35864   0.00000  Uiso   1.00
C723   C     0.47279   0.89667   0.19520   0.00000  Uiso   1.00
C724   C     0.51002   0.90660   0.14936   0.00000  Uiso   1.00
C725   C     0.48938   0.93479   0.11961   0.00000  Uiso   1.00
C726   C     0.57766   0.83442   0.02433   0.00000  Uiso   1.00
C727   C     0.42524   0.79783   0.48156   0.00000  Uiso   1.00
C728   C     0.62972   0.68720   0.27764   0.00000  Uiso   1.00
C729   C     0.37122   0.97933   0.22025   0.00000  Uiso   1.00
C730   C     0.62843   0.97755   0.28021   0.00000  Uiso   1.00
Cu731  Cu    0.38022   0.83334   0.25000   0.00000  Uiso   1.00
Cu732  Cu    0.61978   0.83333   0.25000   0.00000  Uiso   1.00
H733   H     0.60358   0.83995   0.04276   0.00000  Uiso   1.00
H734   H     0.48331   0.79580   0.42348   0.00000  Uiso   1.00
H735   H     0.60210   0.70344   0.30108   0.00000  Uiso   1.00
H736   H     0.39971   0.96297   0.19764   0.00000  Uiso   1.00
H737   H     0.43665   0.78918   0.30245   0.00000  Uiso   1.00
H738   H     0.56193   0.88220   0.20267   0.00000  Uiso   1.00
H739   H     0.52018   0.88761   0.33123   0.00000  Uiso   1.00
H740   H     0.49187   0.93110   0.36169   0.00000  Uiso   1.00
H741   H     0.47363   0.91428   0.31443   0.00000  Uiso   1.00
H742   H     0.52676   0.97751   0.29268   0.00000  Uiso   1.00
H743   H     0.55462   0.93462   0.26343   0.00000  Uiso   1.00
H744   H     0.39989   0.78678   0.46447   0.00000  Uiso   1.00
H745   H     0.59886   0.92491   0.32598   0.00000  Uiso   1.00
H746   H     0.57557   0.97288   0.34536   0.00000  Uiso   1.00
H747   H     0.46004   0.75220   0.10167   0.00000  Uiso   1.00
H748   H     0.48137   0.70034   0.09575   0.00000  Uiso   1.00
H749   H     0.44252   0.71887   0.06366   0.00000  Uiso   1.00
H750   H     0.39904   0.67081   0.12925   0.00000  Uiso   1.00
H751   H     0.37340   0.72106   0.13049   0.00000  Uiso   1.00
H752   H     0.41497   0.74437   0.18332   0.00000  Uiso   1.00
H753   H     0.44739   0.69828   0.18132   0.00000  Uiso   1.00
H754   H     0.53674   0.71019   0.36549   0.00000  Uiso   1.00
H755   H     0.44897   0.84437   0.11028   0.00000  Uiso   1.00
H756   H     0.47449   0.72466   0.38624   0.00000  Uiso   1.00
H757   H     0.48820   0.67740   0.35815   0.00000  Uiso   1.00
H758   H     0.46827   0.73048   0.30889   0.00000  Uiso   1.00
H759   H     0.52968   0.71724   0.28620   0.00000  Uiso   1.00
H760   H     0.56123   0.77625   0.31285   0.00000  Uiso   1.00
H761   H     0.50405   0.79081   0.34664   0.00000  Uiso   1.00
H762   H     0.45670   0.92004   0.11376   0.00000  Uiso   1.00
H763   H     0.47958   0.96458   0.13554   0.00000  Uiso   1.00
H764   H     0.51704   0.94110   0.08688   0.00000  Uiso   1.00
H765   H     0.54268   0.92293   0.15349   0.00000  Uiso   1.00
H766   H     0.54954   0.82392   0.38836   0.00000  Uiso   1.00
H767   H     0.52125   0.87760   0.13242   0.00000  Uiso   1.00
H768   H     0.43826   0.89058   0.18862   0.00000  Uiso   1.00
H769   H     0.46910   0.92470   0.21507   0.00000  Uiso   1.00
H770   H     0.63857   0.80642   0.11201   0.00000  Uiso   1.00
H771   H     0.36239   0.84454   0.39147   0.00000  Uiso   1.00
H772   H     0.33507   0.84599   0.47267   0.00000  Uiso   1.00
H773   H     0.33417   0.79001   0.03343   0.00000  Uiso   1.00
H774   H     0.52042   0.82820   0.08340   0.00000  Uiso   1.00
N775   N     0.45069   0.83334   0.24999   0.00000  Uiso   1.00
N776   N     0.54931   0.83332   0.25001   0.00000  Uiso   1.00
O777   O     0.37291   0.77322   0.25000   0.00000  Uiso   1.00
O778   O     0.62709   0.89345   0.25000   0.00000  Uiso   1.00
O779   O     0.62706   0.77321   0.25000   0.00000  Uiso   1.00
O780   O     0.37294   0.89346   0.24999   0.00000  Uiso   1.00
O781   O     0.35186   0.83334   0.31491   0.00000  Uiso   1.00
O782   O     0.64814   0.83332   0.18508   0.00000  Uiso   1.00
O783   O     0.60600   0.83333   0.31492   0.00000  Uiso   1.00
O784   O     0.39400   0.83333   0.18508   0.00000  Uiso   1.00
C785   C     0.66704   0.75431   0.24780   0.00000  Uiso   1.00
C786   C     0.70500   0.68902   0.21651   0.00000  Uiso   1.00
C787   C     0.66683   0.95704   0.25134   0.00000  Uiso   1.00
C788   C     0.66723   0.70966   0.24637   0.00000  Uiso   1.00
C789   C     0.84726   0.80640   0.27829   0.00000  Uiso   1.00
C790   C     0.81902   0.86103   0.22236   0.00000  Uiso   1.00
C791   C     0.79797   0.80775   0.27849   0.00000  Uiso   1.00
C792   C     0.86822   0.86036   0.22294   0.00000  Uiso   1.00
C793   C     0.97245   0.83339   0.33586   0.00000  Uiso   1.00
C794   C     0.69416   0.83224   0.16425   0.00000  Uiso   1.00
C795   C     0.95710   0.83306   0.38478   0.00000  Uiso   1.00
C796   C     0.66676   0.91242   0.25081   0.00000  Uiso   1.00
C797   C     0.70948   0.82612   0.11618   0.00000  Uiso   1.00
C798   C     0.97528   0.83996   0.45494   0.00000  Uiso   1.00
C799   C     0.69323   0.80178   0.04970   0.00000  Uiso   1.00
C800   C     0.99083   0.83932   0.40861   0.00000  Uiso   1.00
C801   C     0.67670   0.81135   0.09437   0.00000  Uiso   1.00
C802   C     0.90797   0.82660   0.40777   0.00000  Uiso   1.00
C803   C     0.75858   0.83136   0.09293   0.00000  Uiso   1.00
C804   C     0.89162   0.82523   0.45459   0.00000  Uiso   1.00
C805   C     0.77639   0.82028   0.04847   0.00000  Uiso   1.00
C806   C     0.92603   0.83324   0.47805   0.00000  Uiso   1.00
C807   C     0.86231   0.82906   0.04762   0.00000  Uiso   1.00
C808   C     0.74263   0.80667   0.02644   0.00000  Uiso   1.00
C809   C     0.84191   0.81755   0.47860   0.00000  Uiso   1.00
C810   C     0.82670   0.82276   0.02532   0.00000  Uiso   1.00
C811   C     0.92022   0.95477   0.31491   0.00000  Uiso   1.00
C812   C     0.87653   0.94766   0.29686   0.00000  Uiso   1.00
C813   C     0.83823   0.91835   0.32811   0.00000  Uiso   1.00
C814   C     0.74559   0.71070   0.17970   0.00000  Uiso   1.00
C815   C     0.73881   0.70414   0.13358   0.00000  Uiso   1.00
C816   C     0.78347   0.71991   0.09640   0.00000  Uiso   1.00
C817   C     0.85641   0.77785   0.31432   0.00000  Uiso   1.00
C818   C     0.80716   0.80380   0.45780   0.00000  Uiso   1.00
C819   C     0.83796   0.73281   0.31409   0.00000  Uiso   1.00
C820   C     0.83437   0.70986   0.35864   0.00000  Uiso   1.00
C821   C     0.80612   0.89667   0.19520   0.00000  Uiso   1.00
C822   C     0.84335   0.90660   0.14936   0.00000  Uiso   1.00
C823   C     0.82271   0.93479   0.11961   0.00000  Uiso   1.00
C824   C     0.91099   0.83442   0.02433   0.00000  Uiso   1.00
C825   C     0.75857   0.79783   0.48156   0.00000  Uiso   1.00
C826   C     0.96305   0.68720   0.27764   0.00000  Uiso   1.00
C827   C     0.70455   0.97933   0.22025   0.00000  Uiso   1.00
C828   C     0.96177   0.97755   0.28021   0.00000  Uiso   1.00
Cu829  Cu    0.71355   0.83334   0.25000   0.00000  Uiso   1.00
Cu830  Cu    0.95311   0.83333   0.25000   0.00000  Uiso   1.00
H831   H     0.93691   0.83995   0.04276   0.00000  Uiso   1.00
H832   H     0.81665   0.79580   0.42348   0.00000  Uiso   1.00
H833   H     0.93543   0.70344   0.30108   0.00000  Uiso   1.00
H834   H     0.73304   0.96297   0.19764   0.00000  Uiso   1.00
H835   H     0.76998   0.78918   0.30245   0.00000  Uiso   1.00
H836   H     0.89526   0.88220   0.20267   0.00000  Uiso   1.00
H837   H     0.85351   0.88761   0.33123   0.00000  Uiso   1.00
H838   H     0.82520   0.93110   0.36169   0.00000  Uiso   1.00
H839   H     0.80696   0.91428   0.31443   0.00000  Uiso   1.00
H840   H     0.86009   0.97751   0.29268   0.00000  Uiso   1.00
H841   H     0.88795   0.93462   0.26343   0.00000  Uiso   1.00
H842   H     0.73322   0.78678   0.46447   0.00000  Uiso   1.00
H843   H     0.93219   0.92491   0.32598   0.00000  Uiso   1.00
H844   H     0.90891   0.97288   0.34536   0.00000  Uiso   1.00
H845   H     0.79338   0.75220   0.10167   0.00000  Uiso   1.00
H846   H     0.81471   0.70034   0.09575   0.00000  Uiso   1.00
H847   H     0.77585   0.71887   0.06366   0.00000  Uiso   1.00
H848   H     0.73238   0.67081   0.12925   0.00000  Uiso   1.00
H849   H     0.70674   0.72106   0.13049   0.00000  Uiso   1.00
H850   H     0.74831   0.74437   0.18332   0.00000  Uiso   1.00
H851   H     0.78072   0.69828   0.18132   0.00000  Uiso   1.00
H852   H     0.87008   0.71019   0.36549   0.00000  Uiso   1.00
H853   H     0.78231   0.84437   0.11028   0.00000  Uiso   1.00
H854   H     0.80782   0.72466   0.38624   0.00000  Uiso   1.00
H855   H     0.82154   0.67740   0.35815   0.00000  Uiso   1.00
H856   H     0.80160   0.73048   0.30889   0.00000  Uiso   1.00
H857   H     0.86302   0.71724   0.28620   0.00000  Uiso   1.00
H858   H     0.89457   0.77625   0.31285   0.00000  Uiso   1.00
H859   H     0.83738   0.79081   0.34664   0.00000  Uiso   1.00
H860   H     0.79003   0.92004   0.11376   0.00000  Uiso   1.00
H861   H     0.81292   0.96458   0.13554   0.00000  Uiso   1.00
H862   H     0.85037   0.94110   0.08688   0.00000  Uiso   1.00
H863   H     0.87601   0.92293   0.15349   0.00000  Uiso   1.00
H864   H     0.88287   0.82392   0.38836   0.00000  Uiso   1.00
H865   H     0.85458   0.87760   0.13242   0.00000  Uiso   1.00
H866   H     0.77159   0.89058   0.18862   0.00000  Uiso   1.00
H867   H     0.80243   0.92470   0.21507   0.00000  Uiso   1.00
H868   H     0.97190   0.80642   0.11201   0.00000  Uiso   1.00
H869   H     0.69572   0.84454   0.39147   0.00000  Uiso   1.00
H870   H     0.66841   0.84599   0.47267   0.00000  Uiso   1.00
H871   H     0.66750   0.79001   0.03343   0.00000  Uiso   1.00
H872   H     0.85376   0.82820   0.08340   0.00000  Uiso   1.00
N873   N     0.78403   0.83334   0.24999   0.00000  Uiso   1.00
N874   N     0.88264   0.83332   0.25001   0.00000  Uiso   1.00
O875   O     0.70625   0.77322   0.25000   0.00000  Uiso   1.00
O876   O     0.96042   0.89345   0.25000   0.00000  Uiso   1.00
O877   O     0.96039   0.77321   0.25000   0.00000  Uiso   1.00
O878   O     0.70628   0.89346   0.24999   0.00000  Uiso   1.00
O879   O     0.68519   0.83334   0.31491   0.00000  Uiso   1.00
O880   O     0.98148   0.83332   0.18508   0.00000  Uiso   1.00
O881   O     0.93933   0.83333   0.31492   0.00000  Uiso   1.00
O882   O     0.72733   0.83333   0.18508   0.00000  Uiso   1.00
C883   C     0.00037   0.08764   0.74780   0.00000  Uiso   1.00
C884   C     0.03833   0.02235   0.71651   0.00000  Uiso   1.00
C885   C     0.00017   0.29037   0.75134   0.00000  Uiso   1.00
C886   C     0.00056   0.04299   0.74637   0.00000  Uiso   1.00
C887   C     0.18059   0.13973   0.77829   0.00000  Uiso   1.00
C888   C     0.15235   0.19436   0.72236   0.00000  Uiso   1.00
C889   C     0.13131   0.14109   0.77849   0.00000  Uiso   1.00
C890   C     0.20155   0.19369   0.72294   0.00000  Uiso   1.00
C891   C     0.30578   0.16672   0.83586   0.00000  Uiso   1.00
C892   C     0.02750   0.16557   0.66425   0.00000  Uiso   1.00
C893   C     0.29044   0.16640   0.88478   0.00000  Uiso   1.00
C894   C     0.00010   0.24576   0.75081   0.00000  Uiso   1.00
C895   C     0.04281   0.15945   0.61618   0.00000  Uiso   1.00
C896   C     0.30861   0.17329   0.95494   0.00000  Uiso   1.00
C897   C     0.02656   0.13511   0.54970   0.00000  Uiso   1.00
C898   C     0.32416   0.17265   0.90861   0.00000  Uiso   1.00
C899   C     0.01004   0.14469   0.59437   0.00000  Uiso   1.00
C900   C     0.24130   0.15993   0.90777   0.00000  Uiso   1.00
C901   C     0.09192   0.16470   0.59293   0.00000  Uiso   1.00
C902   C     0.22496   0.15856   0.95459   0.00000  Uiso   1.00
C903   C     0.10972   0.15361   0.54847   0.00000  Uiso   1.00
C904   C     0.25937   0.16658   0.97805   0.00000  Uiso   1.00
C905   C     0.19564   0.16239   0.54762   0.00000  Uiso   1.00
C906   C     0.07597   0.14000   0.52644   0.00000  Uiso   1.00
C907   C     0.17525   0.15088   0.97860   0.00000  Uiso   1.00
C908   C     0.16003   0.15609   0.52532   0.00000  Uiso   1.00
C909   C     0.25355   0.28811   0.81491   0.00000  Uiso   1.00
C910   C     0.20987   0.28099   0.79686   0.00000  Uiso   1.00
C911   C     0.17156   0.25168   0.82811   0.00000  Uiso   1.00
C912   C     0.07893   0.04404   0.67970   0.00000  Uiso   1.00
C913   C     0.07214   0.03747   0.63358   0.00000  Uiso   1.00
C914   C     0.11680   0.05325   0.59640   0.00000  Uiso   1.00
C915   C     0.18975   0.11118   0.81432   0.00000  Uiso   1.00
C916   C     0.14049   0.13714   0.95780   0.00000  Uiso   1.00
C917   C     0.17130   0.06614   0.81409   0.00000  Uiso   1.00
C918   C     0.16771   0.04319   0.85864   0.00000  Uiso   1.00
C919   C     0.13945   0.23000   0.69520   0.00000  Uiso   1.00
C920   C     0.17669   0.23994   0.64936   0.00000  Uiso   1.00
C921   C     0.15605   0.26812   0.61961   0.00000  Uiso   1.00
C922   C     0.24432   0.16775   0.52433   0.00000  Uiso   1.00
C923   C     0.09191   0.13116   0.98156   0.00000  Uiso   1.00
C924   C     0.29639   0.02054   0.77764   0.00000  Uiso   1.00
C925   C     0.03789   0.31267   0.72025   0.00000  Uiso   1.00
C926   C     0.29510   0.31088   0.78021   0.00000  Uiso   1.00
Cu927  Cu    0.04689   0.16667   0.75000   0.00000  Uiso   1.00
Cu928  Cu    0.28645   0.16666   0.75000   0.00000  Uiso   1.00
H929   H     0.27024   0.17328   0.54276   0.00000  Uiso   1.00
H930   H     0.14998   0.12913   0.92348   0.00000  Uiso   1.00
H931   H     0.26877   0.03677   0.80108   0.00000  Uiso   1.00
H932   H     0.06637   0.29631   0.69764   0.00000  Uiso   1.00
H933   H     0.10332   0.12251   0.80245   0.00000  Uiso   1.00
H934   H     0.22860   0.21553   0.70267   0.00000  Uiso   1.00
H935   H     0.18685   0.22095   0.83123   0.00000  Uiso   1.00
H936   H     0.15854   0.26443   0.86169   0.00000  Uiso   1.00
H937   H     0.14029   0.24761   0.81443   0.00000  Uiso   1.00
H938   H     0.19342   0.31085   0.79268   0.00000  Uiso   1.00
H939   H     0.22129   0.26795   0.76343   0.00000  Uiso   1.00
H940   H     0.06656   0.12012   0.96447   0.00000  Uiso   1.00
H941   H     0.26553   0.25825   0.82598   0.00000  Uiso   1.00
H942   H     0.24224   0.30622   0.84536   0.00000  Uiso   1.00
H943   H     0.12671   0.08553   0.60167   0.00000  Uiso   1.00
H944   H     0.14804   0.03367   0.59575   0.00000  Uiso   1.00
H945   H     0.10919   0.05220   0.56366   0.00000  Uiso   1.00
H946   H     0.06571   0.00414   0.62925   0.00000  Uiso   1.00
H947   H     0.04007   0.05440   0.63049   0.00000  Uiso   1.00
H948   H     0.08164   0.07771   0.68332   0.00000  Uiso   1.00
H949   H     0.11406   0.03161   0.68132   0.00000  Uiso   1.00
H950   H     0.20341   0.04352   0.86549   0.00000  Uiso   1.00
H951   H     0.11564   0.17771   0.61028   0.00000  Uiso   1.00
H952   H     0.14115   0.05799   0.88624   0.00000  Uiso   1.00
H953   H     0.15487   0.01073   0.85815   0.00000  Uiso   1.00
H954   H     0.13493   0.06381   0.80889   0.00000  Uiso   1.00
H955   H     0.19635   0.05057   0.78620   0.00000  Uiso   1.00
H956   H     0.22790   0.10958   0.81285   0.00000  Uiso   1.00
H957   H     0.17072   0.12414   0.84664   0.00000  Uiso   1.00
H958   H     0.12337   0.25337   0.61376   0.00000  Uiso   1.00
H959   H     0.14625   0.29791   0.63554   0.00000  Uiso   1.00
H960   H     0.18370   0.27443   0.58688   0.00000  Uiso   1.00
H961   H     0.20934   0.25626   0.65349   0.00000  Uiso   1.00
H962   H     0.21620   0.15726   0.88836   0.00000  Uiso   1.00
H963   H     0.18791   0.21093   0.63242   0.00000  Uiso   1.00
H964   H     0.10492   0.22391   0.68862   0.00000  Uiso   1.00
H965   H     0.13577   0.25804   0.71507   0.00000  Uiso   1.00
H966   H     0.30524   0.13975   0.61201   0.00000  Uiso   1.00
H967   H     0.02905   0.17787   0.89147   0.00000  Uiso   1.00
H968   H     0.00174   0.17933   0.97267   0.00000  Uiso   1.00
H969   H     0.00083   0.12334   0.53343   0.00000  Uiso   1.00
H970   H     0.18709   0.16153   0.58340   0.00000  Uiso   1.00
N971   N     0.11736   0.16668   0.74999   0.00000  Uiso   1.00
N972   N     0.21597   0.16666   0.75001   0.00000  Uiso   1.00
O973   O     0.03958   0.10655   0.75000   0.00000  Uiso   1.00
O974   O     0.29375   0.22678   0.75000   0.00000  Uiso   1.00
O975   O     0.29372   0.10654   0.75000   0.00000  Uiso   1.00
O976   O     0.03961   0.22679   0.74999   0.00000  Uiso   1.00
O977   O     0.01852   0.16668   0.81491   0.00000  Uiso   1.00
O978   O     0.31481   0.16666   0.68508   0.00000  Uiso   1.00
O979   O     0.27267   0.16667   0.81492   0.00000  Uiso   1.00
O980   O     0.06067   0.16667   0.68508   0.00000  Uiso   1.00
C981   C     0.33371   0.08764   0.74780   0.00000  Uiso   1.00
C982   C     0.37166   0.02235   0.71651   0.00000  Uiso   1.00
C983   C     0.33350   0.29037   0.75134   0.00000  Uiso   1.00
C984   C     0.33390   0.04299   0.74637   0.00000  Uiso   1.00
C985   C     0.51393   0.13973   0.77829   0.00000  Uiso   1.00
C986   C     0.48568   0.19436   0.72236   0.00000  Uiso   1.00
C987   C     0.46464   0.14109   0.77849   0.00000  Uiso   1.00
C988   C     0.53489   0.19369   0.72294   0.00000  Uiso   1.00
C989   C     0.63912   0.16672   0.83586   0.00000  Uiso   1.00
C990   C     0.36083   0.16557   0.66425   0.00000  Uiso   1.00
C991   C     0.62377   0.16640   0.88478   0.00000  Uiso   1.00
C992   C     0.33343   0.24576   0.75081   0.00000  Uiso   1.00
C993   C     0.37614   0.15945   0.61618   0.00000  Uiso   1.00
C994   C     0.64194   0.17329   0.95494   0.00000  Uiso   1.00
C995   C     0.35989   0.13511   0.54970   0.00000  Uiso   1.00
C996   C     0.65749   0.17265   0.90861   0.00000  Uiso   1.00
C997   C     0.34337   0.14469   0.59437   0.00000  Uiso   1.00
C998   C     0.57464   0.15993   0.90777   0.00000  Uiso   1.00
C999   C     0.42525   0.16470   0.59293   0.00000  Uiso   1.00
C1000  C     0.55829   0.15856   0.95459   0.00000  Uiso   1.00
C1001  C     0.44306   0.15361   0.54847   0.00000  Uiso   1.00
C1002  C     0.59270   0.16658   0.97805   0.00000  Uiso   1.00
C1003  C     0.52897   0.16239   0.54762   0.00000  Uiso   1.00
C1004  C     0.40930   0.14000   0.52644   0.00000  Uiso   1.00
C1005  C     0.50858   0.15088   0.97860   0.00000  Uiso   1.00
C1006  C     0.49337   0.15609   0.52532   0.00000  Uiso   1.00
C1007  C     0.58689   0.28811   0.81491   0.00000  Uiso   1.00
C1008  C     0.54320   0.28099   0.79686   0.00000  Uiso   1.00
C1009  C     0.50489   0.25168   0.82811   0.00000  Uiso   1.00
C1010  C     0.41226   0.04404   0.67970   0.00000  Uiso   1.00
C1011  C     0.40547   0.03747   0.63358   0.00000  Uiso   1.00
C1012  C     0.45013   0.05325   0.59640   0.00000  Uiso   1.00
C1013  C     0.52308   0.11118   0.81432   0.00000  Uiso   1.00
C1014  C     0.47382   0.13714   0.95780   0.00000  Uiso   1.00
C1015  C     0.50463   0.06614   0.81409   0.00000  Uiso   1.00
C1016  C     0.50104   0.04319   0.85864   0.00000  Uiso   1.00
C1017  C     0.47279   0.23000   0.69520   0.00000  Uiso   1.00
C1018  C     0.51002   0.23994   0.64936   0.00000  Uiso   1.00
C1019  C     0.48938   0.26812   0.61961   0.00000  Uiso   1.00
C1020  C     0.57766   0.16775   0.52433   0.00000  Uiso   1.00
C1021  C     0.42524   0.13116   0.98156   0.00000  Uiso   1.00
C1022  C     0.62972   0.02054   0.77764   0.00000  Uiso   1.00
C1023  C     0.37122   0.31267   0.72025   0.00000  Uiso   1.00
C1024  C     0.62843   0.31088   0.78021   0.00000  Uiso   1.00
Cu1025 Cu    0.38022   0.16667   0.75000   0.00000  Uiso   1.00
Cu1026 Cu    0.61978   0.16666   0.75000   0.00000  Uiso   1.00
H1027  H     0.60358   0.17328   0.54276   0.00000  Uiso   1.00
H1028  H     0.48331   0.12913   0.92348   0.00000  Uiso   1.00
H1029  H     0.60210   0.03677   0.80108   0.00000  Uiso   1.00
H1030  H     0.39971   0.29631   0.69764   0.00000  Uiso   1.00
H1031  H     0.43665   0.12251   0.80245   0.00000  Uiso   1.00
H1032  H     0.56193   0.21553   0.70267   0.00000  Uiso   1.00
H1033  H     0.52018   0.22095   0.83123   0.00000  Uiso   1.00
H1034  H     0.49187   0.26443   0.86169   0.00000  Uiso   1.00
H1035  H     0.47363   0.24761   0.81443   0.00000  Uiso   1.00
H1036  H     0.52676   0.31085   0.79268   0.00000  Uiso   1.00
H1037  H     0.55462   0.26795   0.76343   0.00000  Uiso   1.00
H1038  H     0.39989   0.12012   0.96447   0.00000  Uiso   1.00
H1039  H     0.59886   0.25825   0.82598   0.00000  Uiso   1.00
H1040  H     0.57557   0.30622   0.84536   0.00000  Uiso   1.00
H1041  H     0.46004   0.08553   0.60167   0.00000  Uiso   1.00
H1042  H     0.48137   0.03367   0.59575   0.00000  Uiso   1.00
H1043  H     0.44252   0.05220   0.56366   0.00000  Uiso   1.00
H1044  H     0.39904   0.00414   0.62925   0.00000  Uiso   1.00
H1045  H     0.37340   0.05440   0.63049   0.00000  Uiso   1.00
H1046  H     0.41497   0.07771   0.68332   0.00000  Uiso   1.00
H1047  H     0.44739   0.03161   0.68132   0.00000  Uiso   1.00
H1048  H     0.53674   0.04352   0.86549   0.00000  Uiso   1.00
H1049  H     0.44897   0.17771   0.61028   0.00000  Uiso   1.00
H1050  H     0.47449   0.05799   0.88624   0.00000  Uiso   1.00
H1051  H     0.48820   0.01073   0.85815   0.00000  Uiso   1.00
H1052  H     0.46827   0.06381   0.80889   0.00000  Uiso   1.00
H1053  H     0.52968   0.05057   0.78620   0.00000  Uiso   1.00
H1054  H     0.56123   0.10958   0.81285   0.00000  Uiso   1.00
H1055  H     0.50405   0.12414   0.84664   0.00000  Uiso   1.00
H1056  H     0.45670   0.25337   0.61376   0.00000  Uiso   1.00
H1057  H     0.47958   0.29791   0.63554   0.00000  Uiso   1.00
H1058  H     0.51704   0.27443   0.58688   0.00000  Uiso   1.00
H1059  H     0.54268   0.25626   0.65349   0.00000  Uiso   1.00
H1060  H     0.54954   0.15726   0.88836   0.00000  Uiso   1.00
H1061  H     0.52125   0.21093   0.63242   0.00000  Uiso   1.00
H1062  H     0.43826   0.22391   0.68862   0.00000  Uiso   1.00
H1063  H     0.46910   0.25804   0.71507   0.00000  Uiso   1.00
H1064  H     0.63857   0.13975   0.61201   0.00000  Uiso   1.00
H1065  H     0.36239   0.17787   0.89147   0.00000  Uiso   1.00
H1066  H     0.33507   0.17933   0.97267   0.00000  Uiso   1.00
H1067  H     0.33417   0.12334   0.53343   0.00000  Uiso   1.00
H1068  H     0.52042   0.16153   0.58340   0.00000  Uiso   1.00
N1069  N     0.45069   0.16668   0.74999   0.00000  Uiso   1.00
N1070  N     0.54931   0.16666   0.75001   0.00000  Uiso   1.00
O1071  O     0.37291   0.10655   0.75000   0.00000  Uiso   1.00
O1072  O     0.62709   0.22678   0.75000   0.00000  Uiso   1.00
O1073  O     0.62706   0.10654   0.75000   0.00000  Uiso   1.00
O1074  O     0.37294   0.22679   0.74999   0.00000  Uiso   1.00
O1075  O     0.35186   0.16668   0.81491   0.00000  Uiso   1.00
O1076  O     0.64814   0.16666   0.68508   0.00000  Uiso   1.00
O1077  O     0.60600   0.16667   0.81492   0.00000  Uiso   1.00
O1078  O     0.39400   0.16667   0.68508   0.00000  Uiso   1.00
C1079  C     0.66704   0.08764   0.74780   0.00000  Uiso   1.00
C1080  C     0.70500   0.02235   0.71651   0.00000  Uiso   1.00
C1081  C     0.66683   0.29037   0.75134   0.00000  Uiso   1.00
C1082  C     0.66723   0.04299   0.74637   0.00000  Uiso   1.00
C1083  C     0.84726   0.13973   0.77829   0.00000  Uiso   1.00
C1084  C     0.81902   0.19436   0.72236   0.00000  Uiso   1.00
C1085  C     0.79797   0.14109   0.77849   0.00000  Uiso   1.00
C1086  C     0.86822   0.19369   0.72294   0.00000  Uiso   1.00
C1087  C     0.97245   0.16672   0.83586   0.00000  Uiso   1.00
C1088  C     0.69416   0.16557   0.66425   0.00000  Uiso   1.00
C1089  C     0.95710   0.16640   0.88478   0.00000  Uiso   1.00
C1090  C     0.66676   0.24576   0.75081   0.00000  Uiso   1.00
C1091  C     0.70948   0.15945   0.61618   0.00000  Uiso   1.00
C1092  C     0.97528   0.17329   0.95494   0.00000  Uiso   1.00
C1093  C     0.69323   0.13511   0.54970   0.00000  Uiso   1.00
C1094  C     0.99083   0.17265   0.90861   0.00000  Uiso   1.00
C1095  C     0.67670   0.14469   0.59437   0.00000  Uiso   1.00
C1096  C     0.90797   0.15993   0.90777   0.00000  Uiso   1.00
C1097  C     0.75858   0.16470   0.59293   0.00000  Uiso   1.00
C1098  C     0.89162   0.15856   0.95459   0.00000  Uiso   1.00
C1099  C     0.77639   0.15361   0.54847   0.00000  Uiso   1.00
C1100  C     0.92603   0.16658   0.97805   0.00000  Uiso   1.00
C1101  C     0.86231   0.16239   0.54762   0.00000  Uiso   1.00
C1102  C     0.74263   0.14000   0.52644   0.00000  Uiso   1.00
C1103  C     0.84191   0.15088   0.97860   0.00000  Uiso   1.00
C1104  C     0.82670   0.15609   0.52532   0.00000  Uiso   1.00
C1105  C     0.92022   0.28811   0.81491   0.00000  Uiso   1.00
C1106  C     0.87653   0.28099   0.79686   0.00000  Uiso   1.00
C1107  C     0.83823   0.25168   0.82811   0.00000  Uiso   1.00
C1108  C     0.74559   0.04404   0.67970   0.00000  Uiso   1.00
C1109  C     0.73881   0.03747   0.63358   0.00000  Uiso   1.00
C1110  C     0.78347   0.05325   0.59640   0.00000  Uiso   1.00
C1111  C     0.85641   0.11118   0.81432   0.00000  Uiso   1.00
C1112  C     0.80716   0.13714   0.95780   0.00000  Uiso   1.00
C1113  C     0.83796   0.06614   0.81409   0.00000  Uiso   1.00
C1114  C     0.83437   0.04319   0.85864   0.00000  Uiso   1.00
C1115  C     0.80612   0.23000   0.69520   0.00000  Uiso   1.00
C1116  C     0.84335   0.23994   0.64936   0.00000  Uiso   1.00
C1117  C     0.82271   0.26812   0.61961   0.00000  Uiso   1.00
C1118  C     0.91099   0.16775   0.52433   0.00000  Uiso   1.00
C1119  C     0.75857   0.13116   0.98156   0.00000  Uiso   1.00
C1120  C     0.96305   0.02054   0.77764   0.00000  Uiso   1.00
C1121  C     0.70455   0.31267   0.72025   0.00000  Uiso   1.00
C1122  C     0.96177   0.31088   0.78021   0.00000  Uiso   1.00
Cu1123 Cu    0.71355   0.16667   0.75000   0.00000  Uiso   1.00
Cu1124 Cu    0.95311   0.16666   0.75000   0.00000  Uiso   1.00
H1125  H     0.93691   0.17328   0.54276   0.00000  Uiso   1.00
H1126  H     0.81665   0.12913   0.92348   0.00000  Uiso   1.00
H1127  H     0.93543   0.03677   0.80108   0.00000  Uiso   1.00
H1128  H     0.73304   0.29631   0.69764   0.00000  Uiso   1.00
H1129  H     0.76998   0.12251   0.80245   0.00000  Uiso   1.00
H1130  H     0.89526   0.21553   0.70267   0.00000  Uiso   1.00
H1131  H     0.85351   0.22095   0.83123   0.00000  Uiso   1.00
H1132  H     0.82520   0.26443   0.86169   0.00000  Uiso   1.00
H1133  H     0.80696   0.24761   0.81443   0.00000  Uiso   1.00
H1134  H     0.86009   0.31085   0.79268   0.00000  Uiso   1.00
H1135  H     0.88795   0.26795   0.76343   0.00000  Uiso   1.00
H1136  H     0.73322   0.12012   0.96447   0.00000  Uiso   1.00
H1137  H     0.93219   0.25825   0.82598   0.00000  Uiso   1.00
H1138  H     0.90891   0.30622   0.84536   0.00000  Uiso   1.00
H1139  H     0.79338   0.08553   0.60167   0.00000  Uiso   1.00
H1140  H     0.81471   0.03367   0.59575   0.00000  Uiso   1.00
H1141  H     0.77585   0.05220   0.56366   0.00000  Uiso   1.00
H1142  H     0.73238   0.00414   0.62925   0.00000  Uiso   1.00
H1143  H     0.70674   0.05440   0.63049   0.00000  Uiso   1.00
H1144  H     0.74831   0.07771   0.68332   0.00000  Uiso   1.00
H1145  H     0.78072   0.03161   0.68132   0.00000  Uiso   1.00
H1146  H     0.87008   0.04352   0.86549   0.00000  Uiso   1.00
H1147  H     0.78231   0.17771   0.61028   0.00000  Uiso   1.00
H1148  H     0.80782   0.05799   0.88624   0.00000  Uiso   1.00
H1149  H     0.82154   0.01073   0.85815   0.00000  Uiso   1.00
H1150  H     0.80160   0.06381   0.80889   0.00000  Uiso   1.00
H1151  H     0.86302   0.05057   0.78620   0.00000  Uiso   1.00
H1152  H     0.89457   0.10958   0.81285   0.00000  Uiso   1.00
H1153  H     0.83738   0.12414   0.84664   0.00000  Uiso   1.00
H1154  H     0.79003   0.25337   0.61376   0.00000  Uiso   1.00
H1155  H     0.81292   0.29791   0.63554   0.00000  Uiso   1.00
H1156  H     0.85037   0.27443   0.58688   0.00000  Uiso   1.00
H1157  H     0.87601   0.25626   0.65349   0.00000  Uiso   1.00
H1158  H     0.88287   0.15726   0.88836   0.00000  Uiso   1.00
H1159  H     0.85458   0.21093   0.63242   0.00000  Uiso   1.00
H1160  H     0.77159   0.22391   0.68862   0.00000  Uiso   1.00
H1161  H     0.80243   0.25804   0.71507   0.00000  Uiso   1.00
H1162  H     0.97190   0.13975   0.61201   0.00000  Uiso   1.00
H1163  H     0.69572   0.17787   0.89147   0.00000  Uiso   1.00
H1164  H     0.66841   0.17933   0.97267   0.00000  Uiso   1.00
H1165  H     0.66750   0.12334   0.53343   0.00000  Uiso   1.00
H1166  H     0.85376   0.16153   0.58340   0.00000  Uiso   1.00
N1167  N     0.78403   0.16668   0.74999   0.00000  Uiso   1.00
N1168  N     0.88264   0.16666   0.75001   0.00000  Uiso   1.00
O1169  O     0.70625   0.10655   0.75000   0.00000  Uiso   1.00
O1170  O     0.96042   0.22678   0.75000   0.00000  Uiso   1.00
O1171  O     0.96039   0.10654   0.75000   0.00000  Uiso   1.00
O1172  O     0.70628   0.22679   0.74999   0.00000  Uiso   1.00
O1173  O     0.68519   0.16668   0.81491   0.00000  Uiso   1.00
O1174  O     0.98148   0.16666   0.68508   0.00000  Uiso   1.00
O1175  O     0.93933   0.16667   0.81492   0.00000  Uiso   1.00
O1176  O     0.72733   0.16667   0.68508   0.00000  Uiso   1.00
C1177  C     0.00037   0.42098   0.74780   0.00000  Uiso   1.00
C1178  C     0.03833   0.35569   0.71651   0.00000  Uiso   1.00
C1179  C     0.00017   0.62371   0.75134   0.00000  Uiso   1.00
C1180  C     0.00056   0.37632   0.74637   0.00000  Uiso   1.00
C1181  C     0.18059   0.47307   0.77829   0.00000  Uiso   1.00
C1182  C     0.15235   0.52769   0.72236   0.00000  Uiso   1.00
C1183  C     0.13131   0.47442   0.77849   0.00000  Uiso   1.00
C1184  C     0.20155   0.52702   0.72294   0.00000  Uiso   1.00
C1185  C     0.30578   0.50005   0.83586   0.00000  Uiso   1.00
C1186  C     0.02750   0.49890   0.66425   0.00000  Uiso   1.00
C1187  C     0.29044   0.49973   0.88478   0.00000  Uiso   1.00
C1188  C     0.00010   0.57909   0.75081   0.00000  Uiso   1.00
C1189  C     0.04281   0.49279   0.61618   0.00000  Uiso   1.00
C1190  C     0.30861   0.50663   0.95494   0.00000  Uiso   1.00
C1191  C     0.02656   0.46844   0.54970   0.00000  Uiso   1.00
C1192  C     0.32416   0.50599   0.90861   0.00000  Uiso   1.00
C1193  C     0.01004   0.47802   0.59437   0.00000  Uiso   1.00
C1194  C     0.24130   0.49327   0.90777   0.00000  Uiso   1.00
C1195  C     0.09192   0.49803   0.59293   0.00000  Uiso   1.00
C1196  C     0.22496   0.49190   0.95459   0.00000  Uiso   1.00
C1197  C     0.10972   0.48695   0.54847   0.00000  Uiso   1.00
C1198  C     0.25937   0.49991   0.97805   0.00000  Uiso   1.00
C1199  C     0.19564   0.49572   0.54762   0.00000  Uiso   1.00
C1200  C     0.07597   0.47333   0.52644   0.00000  Uiso   1.00
C1201  C     0.17525   0.48422   0.97860   0.00000  Uiso   1.00
C1202  C     0.16003   0.48943   0.52532   0.00000  Uiso   1.00
C1203  C     0.25355   0.62144   0.81491   0.00000  Uiso   1.00
C1204  C     0.20987   0.61432   0.79686   0.00000  Uiso   1.00
C1205  C     0.17156   0.58501   0.82811   0.00000  Uiso   1.00
C1206  C     0.07893   0.37737   0.67970   0.00000  Uiso   1.00
C1207  C     0.07214   0.37080   0.63358   0.00000  Uiso   1.00
C1208  C     0.11680   0.38658   0.59640   0.00000  Uiso   1.00
C1209  C     0.18975   0.44452   0.81432   0.00000  Uiso   1.00
C1210  C     0.14049   0.47047   0.95780   0.00000  Uiso   1.00
C1211  C     0.17130   0.39948   0.81409   0.00000  Uiso   1.00
C1212  C     0.16771   0.37652   0.85864   0.00000  Uiso   1.00
C1213  C     0.13945   0.56334   0.69520   0.00000  Uiso   1.00
C1214  C     0.17669   0.57327   0.64936   0.00000  Uiso   1.00
C1215  C     0.15605   0.60146   0.61961   0.00000  Uiso   1.00
C1216  C     0.24432   0.50108   0.52433   0.00000  Uiso   1.00
C1217  C     0.09191   0.46450   0.98156   0.00000  Uiso   1.00
C1218  C     0.29639   0.35387   0.77764   0.00000  Uiso   1.00
C1219  C     0.03789   0.64600   0.72025   0.00000  Uiso   1.00
C1220  C     0.29510   0.64421   0.78021   0.00000  Uiso   1.00
Cu1221 Cu    0.04689   0.50001   0.75000   0.00000  Uiso   1.00
Cu1222 Cu    0.28645   0.49999   0.75000   0.00000  Uiso   1.00
H1223  H     0.27024   0.50662   0.54276   0.00000  Uiso   1.00
H1224  H     0.14998   0.46246   0.92348   0.00000  Uiso   1.00
H1225  H     0.26877   0.37010   0.80108   0.00000  Uiso   1.00
H1226  H     0.06637   0.62964   0.69764   0.00000  Uiso   1.00
H1227  H     0.10332   0.45584   0.80245   0.00000  Uiso   1.00
H1228  H     0.22860   0.54886   0.70267   0.00000  Uiso   1.00
H1229  H     0.18685   0.55428   0.83123   0.00000  Uiso   1.00
H1230  H     0.15854   0.59776   0.86169   0.00000  Uiso   1.00
H1231  H     0.14029   0.58094   0.81443   0.00000  Uiso   1.00
H1232  H     0.19342   0.64418   0.79268   0.00000  Uiso   1.00
H1233  H     0.22129   0.60129   0.76343   0.00000  Uiso   1.00
H1234  H     0.06656   0.45345   0.96447   0.00000  Uiso   1.00
H1235  H     0.26553   0.59158   0.82598   0.00000  Uiso   1.00
H1236  H     0.24224   0.63955   0.84536   0.00000  Uiso   1.00
H1237  H     0.12671   0.41886   0.60167   0.00000  Uiso   1.00
H1238  H     0.14804   0.36700   0.59575   0.00000  Uiso   1.00
H1239  H     0.10919   0.38553   0.56366   0.00000  Uiso   1.00
H1240  H     0.06571   0.33747   0.62925   0.00000  Uiso   1.00
H1241  H     0.04007   0.38773   0.63049   0.00000  Uiso   1.00
H1242  H     0.08164   0.41104   0.68332   0.00000  Uiso   1.00
H1243  H     0.11406   0.36495   0.68132   0.00000  Uiso   1.00
H1244  H     0.20341   0.37685   0.86549   0.00000  Uiso   1.00
H1245  H     0.11564   0.51104   0.61028   0.00000  Uiso   1.00
H1246  H     0.14115   0.39133   0.88624   0.00000  Uiso   1.00
H1247  H     0.15487   0.34407   0.85815   0.00000  Uiso   1.00
H1248  H     0.13493   0.39715   0.80889   0.00000  Uiso   1.00
H1249  H     0.19635   0.38390   0.78620   0.00000  Uiso   1.00
H1250  H     0.22790   0.44292   0.81285   0.00000  Uiso   1.00
H1251  H     0.17072   0.45748   0.84664   0.00000  Uiso   1.00
H1252  H     0.12337   0.58671   0.61376   0.00000  Uiso   1.00
H1253  H     0.14625   0.63124   0.63554   0.00000  Uiso   1.00
H1254  H     0.18370   0.60776   0.58688   0.00000  Uiso   1.00
H1255  H     0.20934   0.58960   0.65349   0.00000  Uiso   1.00
H1256  H     0.21620   0.49059   0.88836   0.00000  Uiso   1.00
H1257  H     0.18791   0.54427   0.63242   0.00000  Uiso   1.00
H1258  H     0.10492   0.55725   0.68862   0.00000  Uiso   1.00
H1259  H     0.13577   0.59137   0.71507   0.00000  Uiso   1.00
H1260  H     0.30524   0.47309   0.61201   0.00000  Uiso   1.00
H1261  H     0.02905   0.51120   0.89147   0.00000  Uiso   1.00
H1262  H     0.00174   0.51266   0.97267   0.00000  Uiso   1.00
H1263  H     0.00083   0.45668   0.53343   0.00000  Uiso   1.00
H1264  H     0.18709   0.49487   0.58340   0.00000  Uiso   1.00
N1265  N     0.11736   0.50001   0.74999   0.00000  Uiso   1.00
N1266  N     0.21597   0.49999   0.75001   0.00000  Uiso   1.00
O1267  O     0.03958   0.43989   0.75000   0.00000  Uiso   1.00
O1268  O     0.29375   0.56011   0.75000   0.00000  Uiso   1.00
O1269  O     0.29372   0.43988   0.75000   0.00000  Uiso   1.00
O1270  O     0.03961   0.56012   0.74999   0.00000  Uiso   1.00
O1271  O     0.01852   0.50001   0.81491   0.00000  Uiso   1.00
O1272  O     0.31481   0.49999   0.68508   0.00000  Uiso   1.00
O1273  O     0.27267   0.50000   0.81492   0.00000  Uiso   1.00
O1274  O     0.06067   0.50000   0.68508   0.00000  Uiso   1.00
C1275  C     0.33371   0.42098   0.74780   0.00000  Uiso   1.00
C1276  C     0.37166   0.35569   0.71651   0.00000  Uiso   1.00
C1277  C     0.33350   0.62371   0.75134   0.00000  Uiso   1.00
C1278  C     0.33390   0.37632   0.74637   0.00000  Uiso   1.00
C1279  C     0.51393   0.47307   0.77829   0.00000  Uiso   1.00
C1280  C     0.48568   0.52769   0.72236   0.00000  Uiso   1.00
C1281  C     0.46464   0.47442   0.77849   0.00000  Uiso   1.00
C1282  C     0.53489   0.52702   0.72294   0.00000  Uiso   1.00
C1283  C     0.63912   0.50005   0.83586   0.00000  Uiso   1.00
C1284  C     0.36083   0.49890   0.66425   0.00000  Uiso   1.00
C1285  C     0.62377   0.49973   0.88478   0.00000  Uiso   1.00
C1286  C     0.33343   0.57909   0.75081   0.00000  Uiso   1.00
C1287  C     0.37614   0.49279   0.61618   0.00000  Uiso   1.00
C1288  C     0.64194   0.50663   0.95494   0.00000  Uiso   1.00
C1289  C     0.35989   0.46844   0.54970   0.00000  Uiso   1.00
C1290  C     0.65749   0.50599   0.90861   0.00000  Uiso   1.00
C1291  C     0.34337   0.47802   0.59437   0.00000  Uiso   1.00
C1292  C     0.57464   0.49327   0.90777   0.00000  Uiso   1.00
C1293  C     0.42525   0.49803   0.59293   0.00000  Uiso   1.00
C1294  C     0.55829   0.49190   0.95459   0.00000  Uiso   1.00
C1295  C     0.44306   0.48695   0.54847   0.00000  Uiso   1.00
C1296  C     0.59270   0.49991   0.97805   0.00000  Uiso   1.00
C1297  C     0.52897   0.49572   0.54762   0.00000  Uiso   1.00
C1298  C     0.40930   0.47333   0.52644   0.00000  Uiso   1.00
C1299  C     0.50858   0.48422   0.97860   0.00000  Uiso   1.00
C1300  C     0.49337   0.48943   0.52532   0.00000  Uiso   1.00
C1301  C     0.58689   0.62144   0.81491   0.00000  Uiso   1.00
C1302  C     0.54320   0.61432   0.79686   0.00000  Uiso   1.00
C1303  C     0.50489   0.58501   0.82811   0.00000  Uiso   1.00
C1304  C     0.41226   0.37737   0.67970   0.00000  Uiso   1.00
C1305  C     0.40547   0.37080   0.63358   0.00000  Uiso   1.00
C1306  C     0.45013   0.38658   0.59640   0.00000  Uiso   1.00
C1307  C     0.52308   0.44452   0.81432   0.00000  Uiso   1.00
C1308  C     0.47382   0.47047   0.95780   0.00000  Uiso   1.00
C1309  C     0.50463   0.39948   0.81409   0.00000  Uiso   1.00
C1310  C     0.50104   0.37652   0.85864   0.00000  Uiso   1.00
C1311  C     0.47279   0.56334   0.69520   0.00000  Uiso   1.00
C1312  C     0.51002   0.57327   0.64936   0.00000  Uiso   1.00
C1313  C     0.48938   0.60146   0.61961   0.00000  Uiso   1.00
C1314  C     0.57766   0.50108   0.52433   0.00000  Uiso   1.00
C1315  C     0.42524   0.46450   0.98156   0.00000  Uiso   1.00
C1316  C     0.62972   0.35387   0.77764   0.00000  Uiso   1.00
C1317  C     0.37122   0.64600   0.72025   0.00000  Uiso   1.00
C1318  C     0.62843   0.64421   0.78021   0.00000  Uiso   1.00
Cu1319 Cu    0.38022   0.50001   0.75000   0.00000  Uiso   1.00
Cu1320 Cu    0.61978   0.49999   0.75000   0.00000  Uiso   1.00
H1321  H     0.60358   0.50662   0.54276   0.00000  Uiso   1.00
H1322  H     0.48331   0.46246   0.92348   0.00000  Uiso   1.00
H1323  H     0.60210   0.37010   0.80108   0.00000  Uiso   1.00
H1324  H     0.39971   0.62964   0.69764   0.00000  Uiso   1.00
H1325  H     0.43665   0.45584   0.80245   0.00000  Uiso   1.00
H1326  H     0.56193   0.54886   0.70267   0.00000  Uiso   1.00
H1327  H     0.52018   0.55428   0.83123   0.00000  Uiso   1.00
H1328  H     0.49187   0.59776   0.86169   0.00000  Uiso   1.00
H1329  H     0.47363   0.58094   0.81443   0.00000  Uiso   1.00
H1330  H     0.52676   0.64418   0.79268   0.00000  Uiso   1.00
H1331  H     0.55462   0.60129   0.76343   0.00000  Uiso   1.00
H1332  H     0.39989   0.45345   0.96447   0.00000  Uiso   1.00
H1333  H     0.59886   0.59158   0.82598   0.00000  Uiso   1.00
H1334  H     0.57557   0.63955   0.84536   0.00000  Uiso   1.00
H1335  H     0.46004   0.41886   0.60167   0.00000  Uiso   1.00
H1336  H     0.48137   0.36700   0.59575   0.00000  Uiso   1.00
H1337  H     0.44252   0.38553   0.56366   0.00000  Uiso   1.00
H1338  H     0.39904   0.33747   0.62925   0.00000  Uiso   1.00
H1339  H     0.37340   0.38773   0.63049   0.00000  Uiso   1.00
H1340  H     0.41497   0.41104   0.68332   0.00000  Uiso   1.00
H1341  H     0.44739   0.36495   0.68132   0.00000  Uiso   1.00
H1342  H     0.53674   0.37685   0.86549   0.00000  Uiso   1.00
H1343  H     0.44897   0.51104   0.61028   0.00000  Uiso   1.00
H1344  H     0.47449   0.39133   0.88624   0.00000  Uiso   1.00
H1345  H     0.48820   0.34407   0.85815   0.00000  Uiso   1.00
H1346  H     0.46827   0.39715   0.80889   0.00000  Uiso   1.00
H1347  H     0.52968   0.38390   0.78620   0.00000  Uiso   1.00
H1348  H     0.56123   0.44292   0.81285   0.00000  Uiso   1.00
H1349  H     0.50405   0.45748   0.84664   0.00000  Uiso   1.00
H1350  H     0.45670   0.58671   0.61376   0.00000  Uiso   1.00
H1351  H     0.47958   0.63124   0.63554   0.00000  Uiso   1.00
H1352  H     0.51704   0.60776   0.58688   0.00000  Uiso   1.00
H1353  H     0.54268   0.58960   0.65349   0.00000  Uiso   1.00
H1354  H     0.54954   0.49059   0.88836   0.00000  Uiso   1.00
H1355  H     0.52125   0.54427   0.63242   0.00000  Uiso   1.00
H1356  H     0.43826   0.55725   0.68862   0.00000  Uiso   1.00
H1357  H     0.46910   0.59137   0.71507   0.00000  Uiso   1.00
H1358  H     0.63857   0.47309   0.61201   0.00000  Uiso   1.00
H1359  H     0.36239   0.51120   0.89147   0.00000  Uiso   1.00
H1360  H     0.33507   0.51266   0.97267   0.00000  Uiso   1.00
H1361  H     0.33417   0.45668   0.53343   0.00000  Uiso   1.00
H1362  H     0.52042   0.49487   0.58340   0.00000  Uiso   1.00
N1363  N     0.45069   0.50001   0.74999   0.00000  Uiso   1.00
N1364  N     0.54931   0.49999   0.75001   0.00000  Uiso   1.00
O1365  O     0.37291   0.43989   0.75000   0.00000  Uiso   1.00
O1366  O     0.62709   0.56011   0.75000   0.00000  Uiso   1.00
O1367  O     0.62706   0.43988   0.75000   0.00000  Uiso   1.00
O1368  O     0.37294   0.56012   0.74999   0.00000  Uiso   1.00
O1369  O     0.35186   0.50001   0.81491   0.00000  Uiso   1.00
O1370  O     0.64814   0.49999   0.68508   0.00000  Uiso   1.00
O1371  O     0.60600   0.50000   0.81492   0.00000  Uiso   1.00
O1372  O     0.39400   0.50000   0.68508   0.00000  Uiso   1.00
C1373  C     0.66704   0.42098   0.74780   0.00000  Uiso   1.00
C1374  C     0.70500   0.35569   0.71651   0.00000  Uiso   1.00
C1375  C     0.66683   0.62371   0.75134   0.00000  Uiso   1.00
C1376  C     0.66723   0.37632   0.74637   0.00000  Uiso   1.00
C1377  C     0.84726   0.47307   0.77829   0.00000  Uiso   1.00
C1378  C     0.81902   0.52769   0.72236   0.00000  Uiso   1.00
C1379  C     0.79797   0.47442   0.77849   0.00000  Uiso   1.00
C1380  C     0.86822   0.52702   0.72294   0.00000  Uiso   1.00
C1381  C     0.97245   0.50005   0.83586   0.00000  Uiso   1.00
C1382  C     0.69416   0.49890   0.66425   0.00000  Uiso   1.00
C1383  C     0.95710   0.49973   0.88478   0.00000  Uiso   1.00
C1384  C     0.66676   0.57909   0.75081   0.00000  Uiso   1.00
C1385  C     0.70948   0.49279   0.61618   0.00000  Uiso   1.00
C1386  C     0.97528   0.50663   0.95494   0.00000  Uiso   1.00
C1387  C     0.69323   0.46844   0.54970   0.00000  Uiso   1.00
C1388  C     0.99083   0.50599   0.90861   0.00000  Uiso   1.00
C1389  C     0.67670   0.47802   0.59437   0.00000  Uiso   1.00
C1390  C     0.90797   0.49327   0.90777   0.00000  Uiso   1.00
C1391  C     0.75858   0.49803   0.59293   0.00000  Uiso   1.00
C1392  C     0.89162   0.49190   0.95459   0.00000  Uiso   1.00
C1393  C     0.77639   0.48695   0.54847   0.00000  Uiso   1.00
C1394  C     0.92603   0.49991   0.97805   0.00000  Uiso   1.00
C1395  C     0.86231   0.49572   0.54762   0.00000  Uiso   1.00
C1396  C     0.74263   0.47333   0.52644   0.00000  Uiso   1.00
C1397  C     0.84191   0.48422   0.97860   0.00000  Uiso   1.00
C1398  C     0.82670   0.48943   0.52532   0.00000  Uiso   1.00
C1399  C     0.92022   0.62144   0.81491   0.00000  Uiso   1.00
C1400  C     0.87653   0.61432   0.79686   0.00000  Uiso   1.00
C1401  C     0.83823   0.58501   0.82811   0.00000  Uiso   1.00
C1402  C     0.74559   0.37737   0.67970   0.00000  Uiso   1.00
C1403  C     0.73881   0.37080   0.63358   0.00000  Uiso   1.00
C1404  C     0.78347   0.38658   0.59640   0.00000  Uiso   1.00
C1405  C     0.85641   0.44452   0.81432   0.00000  Uiso   1.00
C1406  C     0.80716   0.47047   0.95780   0.00000  Uiso   1.00
C1407  C     0.83796   0.39948   0.81409   0.00000  Uiso   1.00
C1408  C     0.83437   0.37652   0.85864   0.00000  Uiso   1.00
C1409  C     0.80612   0.56334   0.69520   0.00000  Uiso   1.00
C1410  C     0.84335   0.57327   0.64936   0.00000  Uiso   1.00
C1411  C     0.82271   0.60146   0.61961   0.00000  Uiso   1.00
C1412  C     0.91099   0.50108   0.52433   0.00000  Uiso   1.00
C1413  C     0.75857   0.46450   0.98156   0.00000  Uiso   1.00
C1414  C     0.96305   0.35387   0.77764   0.00000  Uiso   1.00
C1415  C     0.70455   0.64600   0.72025   0.00000  Uiso   1.00
C1416  C     0.96177   0.64421   0.78021   0.00000  Uiso   1.00
Cu1417 Cu    0.71355   0.50001   0.75000   0.00000  Uiso   1.00
Cu1418 Cu    0.95311   0.49999   0.75000   0.00000  Uiso   1.00
H1419  H     0.93691   0.50662   0.54276   0.00000  Uiso   1.00
H1420  H     0.81665   0.46246   0.92348   0.00000  Uiso   1.00
H1421  H     0.93543   0.37010   0.80108   0.00000  Uiso   1.00
H1422  H     0.73304   0.62964   0.69764   0.00000  Uiso   1.00
H1423  H     0.76998   0.45584   0.80245   0.00000  Uiso   1.00
H1424  H     0.89526   0.54886   0.70267   0.00000  Uiso   1.00
H1425  H     0.85351   0.55428   0.83123   0.00000  Uiso   1.00
H1426  H     0.82520   0.59776   0.86169   0.00000  Uiso   1.00
H1427  H     0.80696   0.58094   0.81443   0.00000  Uiso   1.00
H1428  H     0.86009   0.64418   0.79268   0.00000  Uiso   1.00
H1429  H     0.88795   0.60129   0.76343   0.00000  Uiso   1.00
H1430  H     0.73322   0.45345   0.96447   0.00000  Uiso   1.00
H1431  H     0.93219   0.59158   0.82598   0.00000  Uiso   1.00
H1432  H     0.90891   0.63955   0.84536   0.00000  Uiso   1.00
H1433  H     0.79338   0.41886   0.60167   0.00000  Uiso   1.00
H1434  H     0.81471   0.36700   0.59575   0.00000  Uiso   1.00
H1435  H     0.77585   0.38553   0.56366   0.00000  Uiso   1.00
H1436  H     0.73238   0.33747   0.62925   0.00000  Uiso   1.00
H1437  H     0.70674   0.38773   0.63049   0.00000  Uiso   1.00
H1438  H     0.74831   0.41104   0.68332   0.00000  Uiso   1.00
H1439  H     0.78072   0.36495   0.68132   0.00000  Uiso   1.00
H1440  H     0.87008   0.37685   0.86549   0.00000  Uiso   1.00
H1441  H     0.78231   0.51104   0.61028   0.00000  Uiso   1.00
H1442  H     0.80782   0.39133   0.88624   0.00000  Uiso   1.00
H1443  H     0.82154   0.34407   0.85815   0.00000  Uiso   1.00
H1444  H     0.80160   0.39715   0.80889   0.00000  Uiso   1.00
H1445  H     0.86302   0.38390   0.78620   0.00000  Uiso   1.00
H1446  H     0.89457   0.44292   0.81285   0.00000  Uiso   1.00
H1447  H     0.83738   0.45748   0.84664   0.00000  Uiso   1.00
H1448  H     0.79003   0.58671   0.61376   0.00000  Uiso   1.00
H1449  H     0.81292   0.63124   0.63554   0.00000  Uiso   1.00
H1450  H     0.85037   0.60776   0.58688   0.00000  Uiso   1.00
H1451  H     0.87601   0.58960   0.65349   0.00000  Uiso   1.00
H1452  H     0.88287   0.49059   0.88836   0.00000  Uiso   1.00
H1453  H     0.85458   0.54427   0.63242   0.00000  Uiso   1.00
H1454  H     0.77159   0.55725   0.68862   0.00000  Uiso   1.00
H1455  H     0.80243   0.59137   0.71507   0.00000  Uiso   1.00
H1456  H     0.97190   0.47309   0.61201   0.00000  Uiso   1.00
H1457  H     0.69572   0.51120   0.89147   0.00000  Uiso   1.00
H1458  H     0.66841   0.51266   0.97267   0.00000  Uiso   1.00
H1459  H     0.66750   0.45668   0.53343   0.00000  Uiso   1.00
H1460  H     0.85376   0.49487   0.58340   0.00000  Uiso   1.00
N1461  N     0.78403   0.50001   0.74999   0.00000  Uiso   1.00
N1462  N     0.88264   0.49999   0.75001   0.00000  Uiso   1.00
O1463  O     0.70625   0.43989   0.75000   0.00000  Uiso   1.00
O1464  O     0.96042   0.56011   0.75000   0.00000  Uiso   1.00
O1465  O     0.96039   0.43988   0.75000   0.00000  Uiso   1.00
O1466  O     0.70628   0.56012   0.74999   0.00000  Uiso   1.00
O1467  O     0.68519   0.50001   0.81491   0.00000  Uiso   1.00
O1468  O     0.98148   0.49999   0.68508   0.00000  Uiso   1.00
O1469  O     0.93933   0.50000   0.81492   0.00000  Uiso   1.00
O1470  O     0.72733   0.50000   0.68508   0.00000  Uiso   1.00
C1471  C     0.00037   0.75431   0.74780   0.00000  Uiso   1.00
C1472  C     0.03833   0.68902   0.71651   0.00000  Uiso   1.00
C1473  C     0.00017   0.95704   0.75134   0.00000  Uiso   1.00
C1474  C     0.00056   0.70966   0.74637   0.00000  Uiso   1.00
C1475  C     0.18059   0.80640   0.77829   0.00000  Uiso   1.00
C1476  C     0.15235   0.86103   0.72236   0.00000  Uiso   1.00
C1477  C     0.13131   0.80775   0.77849   0.00000  Uiso   1.00
C1478  C     0.20155   0.86036   0.72294   0.00000  Uiso   1.00
C1479  C     0.30578   0.83339   0.83586   0.00000  Uiso   1.00
C1480  C     0.02750   0.83224   0.66425   0.00000  Uiso   1.00
C1481  C     0.29044   0.83306   0.88478   0.00000  Uiso   1.00
C1482  C     0.00010   0.91242   0.75081   0.00000  Uiso   1.00
C1483  C     0.04281   0.82612   0.61618   0.00000  Uiso   1.00
C1484  C     0.30861   0.83996   0.95494   0.00000  Uiso   1.00
C1485  C     0.02656   0.80178   0.54970   0.00000  Uiso   1.00
C1486  C     0.32416   0.83932   0.90861   0.00000  Uiso   1.00
C1487  C     0.01004   0.81135   0.59437   0.00000  Uiso   1.00
C1488  C     0.24130   0.82660   0.90777   0.00000  Uiso   1.00
C1489  C     0.09192   0.83136   0.59293   0.00000  Uiso   1.00
C1490  C     0.22496   0.82523   0.95459   0.00000  Uiso   1.00
C1491  C     0.10972   0.82028   0.54847   0.00000  Uiso   1.00
C1492  C     0.25937   0.83324   0.97805   0.00000  Uiso   1.00
C1493  C     0.19564   0.82906   0.54762   0.00000  Uiso   1.00
C1494  C     0.07597   0.80667   0.52644   0.00000  Uiso   1.00
C1495  C     0.17525   0.81755   0.97860   0.00000  Uiso   1.00
C1496  C     0.16003   0.82276   0.52532   0.00000  Uiso   1.00
C1497  C     0.25355   0.95477   0.81491   0.00000  Uiso   1.00
C1498  C     0.20987   0.94766   0.79686   0.00000  Uiso   1.00
C1499  C     0.17156   0.91835   0.82811   0.00000  Uiso   1.00
C1500  C     0.07893   0.71070   0.67970   0.00000  Uiso   1.00
C1501  C     0.07214   0.70414   0.63358   0.00000  Uiso   1.00
C1502  C     0.11680   0.71991   0.59640   0.00000  Uiso   1.00
C1503  C     0.18975   0.77785   0.81432   0.00000  Uiso   1.00
C1504  C     0.14049   0.80380   0.95780   0.00000  Uiso   1.00
C1505  C     0.17130   0.73281   0.81409   0.00000  Uiso   1.00
C1506  C     0.16771   0.70986   0.85864   0.00000  Uiso   1.00
C1507  C     0.13945   0.89667   0.69520   0.00000  Uiso   1.00
C1508  C     0.17669   0.90660   0.64936   0.00000  Uiso   1.00
C1509  C     0.15605   0.93479   0.61961   0.00000  Uiso   1.00
C1510  C     0.24432   0.83442   0.52433   0.00000  Uiso   1.00
C1511  C     0.09191   0.79783   0.98156   0.00000  Uiso   1.00
C1512  C     0.29639   0.68720   0.77764   0.00000  Uiso   1.00
C1513  C     0.03789   0.97933   0.72025   0.00000  Uiso   1.00
C1514  C     0.29510   0.97755   0.78021   0.00000  Uiso   1.00
Cu1515 Cu    0.04689   0.83334   0.75000   0.00000  Uiso   1.00
Cu1516 Cu    0.28645   0.83333   0.75000   0.00000  Uiso   1.00
H1517  H     0.27024   0.83995   0.54276   0.00000  Uiso   1.00
H1518  H     0.14998   0.79580   0.92348   0.00000  Uiso   1.00
H1519  H     0.26877   0.70344   0.80108   0.00000  Uiso   1.00
H1520  H     0.06637   0.96297   0.69764   0.00000  Uiso   1.00
H1521  H     0.10332   0.78918   0.80245   0.00000  Uiso   1.00
H1522  H     0.22860   0.88220   0.70267   0.00000  Uiso   1.00
H1523  H     0.18685   0.88761   0.83123   0.00000  Uiso   1.00
H1524  H     0.15854   0.93110   0.86169   0.00000  Uiso   1.00
H1525  H     0.14029   0.91428   0.81443   0.00000  Uiso   1.00
H1526  H     0.19342   0.97751   0.79268   0.00000  Uiso   1.00
H1527  H     0.22129   0.93462   0.76343   0.00000  Uiso   1.00
H1528  H     0.06656   0.78678   0.96447   0.00000  Uiso   1.00
H1529  H     0.26553   0.92491   0.82598   0.00000  Uiso   1.00
H1530  H     0.24224   0.97288   0.84536   0.00000  Uiso   1.00
H1531  H     0.12671   0.75220   0.60167   0.00000  Uiso   1.00
H1532  H     0.14804   0.70034   0.59575   0.00000  Uiso   1.00
H1533  H     0.10919   0.71887   0.56366   0.00000  Uiso   1.00
H1534  H     0.06571   0.67081   0.62925   0.00000  Uiso   1.00
H1535  H     0.04007   0.72106   0.63049   0.00000  Uiso   1.00
H1536  H     0.08164   0.74437   0.68332   0.00000  Uiso   1.00
H1537  H     0.11406   0.69828   0.68132   0.00000  Uiso   1.00
H1538  H     0.20341   0.71019   0.86549   0.00000  Uiso   1.00
H1539  H     0.11564   0.84437   0.61028   0.00000  Uiso   1.00
H1540  H     0.14115   0.72466   0.88624   0.00000  Uiso   1.00
H1541  H     0.15487   0.67740   0.85815   0.00000  Uiso   1.00
H1542  H     0.13493   0.73048   0.80889   0.00000  Uiso   1.00
H1543  H     0.19635   0.71724   0.78620   0.00000  Uiso   1.00
H1544  H     0.22790   0.77625   0.81285   0.00000  Uiso   1.00
H1545  H     0.17072   0.79081   0.84664   0.00000  Uiso   1.00
H1546  H     0.12337   0.92004   0.61376   0.00000  Uiso   1.00
H1547  H     0.14625   0.96458   0.63554   0.00000  Uiso   1.00
H1548  H     0.18370   0.94110   0.58688   0.00000  Uiso   1.00
H1549  H     0.20934   0.92293   0.65349   0.00000  Uiso   1.00
H1550  H     0.21620   0.82392   0.88836   0.00000  Uiso   1.00
H1551  H     0.18791   0.87760   0.63242   0.00000  Uiso   1.00
H1552  H     0.10492   0.89058   0.68862   0.00000  Uiso   1.00
H1553  H     0.13577   0.92470   0.71507   0.00000  Uiso   1.00
H1554  H     0.30524   0.80642   0.61201   0.00000  Uiso   1.00
H1555  H     0.02905   0.84454   0.89147   0.00000  Uiso   1.00
H1556  H     0.00174   0.84599   0.97267   0.00000  Uiso   1.00
H1557  H     0.00083   0.79001   0.53343   0.00000  Uiso   1.00
H1558  H     0.18709   0.82820   0.58340   0.00000  Uiso   1.00
N1559  N     0.11736   0.83334   0.74999   0.00000  Uiso   1.00
N1560  N     0.21597   0.83332   0.75001   0.00000  Uiso   1.00
O1561  O     0.03958   0.77322   0.75000   0.00000  Uiso   1.00
O1562  O     0.29375   0.89345   0.75000   0.00000  Uiso   1.00
O1563  O     0.29372   0.77321   0.75000   0.00000  Uiso   1.00
O1564  O     0.03961   0.89346   0.74999   0.00000  Uiso   1.00
O1565  O     0.01852   0.83334   0.81491   0.00000  Uiso   1.00
O1566  O     0.31481   0.83332   0.68508   0.00000  Uiso   1.00
O1567  O     0.27267   0.83333   0.81492   0.00000  Uiso   1.00
O1568  O     0.06067   0.83333   0.68508   0.00000  Uiso   1.00
C1569  C     0.33371   0.75431   0.74780   0.00000  Uiso   1.00
C1570  C     0.37166   0.68902   0.71651   0.00000  Uiso   1.00
C1571  C     0.33350   0.95704   0.75134   0.00000  Uiso   1.00
C1572  C     0.33390   0.70966   0.74637   0.00000  Uiso   1.00
C1573  C     0.51393   0.80640   0.77829   0.00000  Uiso   1.00
C1574  C     0.48568   0.86103   0.72236   0.00000  Uiso   1.00
C1575  C     0.46464   0.80775   0.77849   0.00000  Uiso   1.00
C1576  C     0.53489   0.86036   0.72294   0.00000  Uiso   1.00
C1577  C     0.63912   0.83339   0.83586   0.00000  Uiso   1.00
C1578  C     0.36083   0.83224   0.66425   0.00000  Uiso   1.00
C1579  C     0.62377   0.83306   0.88478   0.00000  Uiso   1.00
C1580  C     0.33343   0.91242   0.75081   0.00000  Uiso   1.00
C1581  C     0.37614   0.82612   0.61618   0.00000  Uiso   1.00
C1582  C     0.64194   0.83996   0.95494   0.00000  Uiso   1.00
C1583  C     0.35989   0.80178   0.54970   0.00000  Uiso   1.00
C1584  C     0.65749   0.83932   0.90861   0.00000  Uiso   1.00
C1585  C     0.34337   0.81135   0.59437   0.00000  Uiso   1.00
C1586  C     0.57464   0.82660   0.90777   0.00000  Uiso   1.00
C1587  C     0.42525   0.83136   0.59293   0.00000  Uiso   1.00
C1588  C     0.55829   0.82523   0.95459   0.00000  Uiso   1.00
C1589  C     0.44306   0.82028   0.54847   0.00000  Uiso   1.00
C1590  C     0.59270   0.83324   0.97805   0.00000  Uiso   1.00
C1591  C     0.52897   0.82906   0.54762   0.00000  Uiso   1.00
C1592  C     0.40930   0.80667   0.52644   0.00000  Uiso   1.00
C1593  C     0.50858   0.81755   0.97860   0.00000  Uiso   1.00
C1594  C     0.49337   0.82276   0.52532   0.00000  Uiso   1.00
C1595  C     0.58689   0.95477   0.81491   0.00000  Uiso   1.00
C1596  C     0.54320   0.94766   0.79686   0.00000  Uiso   1.00
C1597  C     0.50489   0.91835   0.82811   0.00000  Uiso   1.00
C1598  C     0.41226   0.71070   0.67970   0.00000  Uiso   1.00
C1599  C     0.40547   0.70414   0.63358   0.00000  Uiso   1.00
C1600  C     0.45013   0.71991   0.59640   0.00000  Uiso   1.00
C1601  C     0.52308   0.77785   0.81432   0.00000  Uiso   1.00
C1602  C     0.47382   0.80380   0.95780   0.00000  Uiso   1.00
C1603  C     0.50463   0.73281   0.81409   0.00000  Uiso   1.00
C1604  C     0.50104   0.70986   0.85864   0.00000  Uiso   1.00
C1605  C     0.47279   0.89667   0.69520   0.00000  Uiso   1.00
C1606  C     0.51002   0.90660   0.64936   0.00000  Uiso   1.00
C1607  C     0.48938   0.93479   0.61961   0.00000  Uiso   1.00
C1608  C     0.57766   0.83442   0.52433   0.00000  Uiso   1.00
C1609  C     0.42524   0.79783   0.98156   0.00000  Uiso   1.00
C1610  C     0.62972   0.68720   0.77764   0.00000  Uiso   1.00
C1611  C     0.37122   0.97933   0.72025   0.00000  Uiso   1.00
C1612  C     0.62843   0.97755   0.78021   0.00000  Uiso   1.00
Cu1613 Cu    0.38022   0.83334   0.75000   0.00000  Uiso   1.00
Cu1614 Cu    0.61978   0.83333   0.75000   0.00000  Uiso   1.00
H1615  H     0.60358   0.83995   0.54276   0.00000  Uiso   1.00
H1616  H     0.48331   0.79580   0.92348   0.00000  Uiso   1.00
H1617  H     0.60210   0.70344   0.80108   0.00000  Uiso   1.00
H1618  H     0.39971   0.96297   0.69764   0.00000  Uiso   1.00
H1619  H     0.43665   0.78918   0.80245   0.00000  Uiso   1.00
H1620  H     0.56193   0.88220   0.70267   0.00000  Uiso   1.00
H1621  H     0.52018   0.88761   0.83123   0.00000  Uiso   1.00
H1622  H     0.49187   0.93110   0.86169   0.00000  Uiso   1.00
H1623  H     0.47363   0.91428   0.81443   0.00000  Uiso   1.00
H1624  H     0.52676   0.97751   0.79268   0.00000  Uiso   1.00
H1625  H     0.55462   0.93462   0.76343   0.00000  Uiso   1.00
H1626  H     0.39989   0.78678   0.96447   0.00000  Uiso   1.00
H1627  H     0.59886   0.92491   0.82598   0.00000  Uiso   1.00
H1628  H     0.57557   0.97288   0.84536   0.00000  Uiso   1.00
H1629  H     0.46004   0.75220   0.60167   0.00000  Uiso   1.00
H1630  H     0.48137   0.70034   0.59575   0.00000  Uiso   1.00
H1631  H     0.44252   0.71887   0.56366   0.00000  Uiso   1.00
H1632  H     0.39904   0.67081   0.62925   0.00000  Uiso   1.00
H1633  H     0.37340   0.72106   0.63049   0.00000  Uiso   1.00
H1634  H     0.41497   0.74437   0.68332   0.00000  Uiso   1.00
H1635  H     0.44739   0.69828   0.68132   0.00000  Uiso   1.00
H1636  H     0.53674   0.71019   0.86549   0.00000  Uiso   1.00
H1637  H     0.44897   0.84437   0.61028   0.00000  Uiso   1.00
H1638  H     0.47449   0.72466   0.88624   0.00000  Uiso   1.00
H1639  H     0.48820   0.67740   0.85815   0.00000  Uiso   1.00
H1640  H     0.46827   0.73048   0.80889   0.00000  Uiso   1.00
H1641  H     0.52968   0.71724   0.78620   0.00000  Uiso   1.00
H1642  H     0.56123   0.77625   0.81285   0.00000  Uiso   1.00
H1643  H     0.50405   0.79081   0.84664   0.00000  Uiso   1.00
H1644  H     0.45670   0.92004   0.61376   0.00000  Uiso   1.00
H1645  H     0.47958   0.96458   0.63554   0.00000  Uiso   1.00
H1646  H     0.51704   0.94110   0.58688   0.00000  Uiso   1.00
H1647  H     0.54268   0.92293   0.65349   0.00000  Uiso   1.00
H1648  H     0.54954   0.82392   0.88836   0.00000  Uiso   1.00
H1649  H     0.52125   0.87760   0.63242   0.00000  Uiso   1.00
H1650  H     0.43826   0.89058   0.68862   0.00000  Uiso   1.00
H1651  H     0.46910   0.92470   0.71507   0.00000  Uiso   1.00
H1652  H     0.63857   0.80642   0.61201   0.00000  Uiso   1.00
H1653  H     0.36239   0.84454   0.89147   0.00000  Uiso   1.00
H1654  H     0.33507   0.84599   0.97267   0.00000  Uiso   1.00
H1655  H     0.33417   0.79001   0.53343   0.00000  Uiso   1.00
H1656  H     0.52042   0.82820   0.58340   0.00000  Uiso   1.00
N1657  N     0.45069   0.83334   0.74999   0.00000  Uiso   1.00
N1658  N     0.54931   0.83332   0.75001   0.00000  Uiso   1.00
O1659  O     0.37291   0.77322   0.75000   0.00000  Uiso   1.00
O1660  O     0.62709   0.89345   0.75000   0.00000  Uiso   1.00
O1661  O     0.62706   0.77321   0.75000   0.00000  Uiso   1.00
O1662  O     0.37294   0.89346   0.74999   0.00000  Uiso   1.00
O1663  O     0.35186   0.83334   0.81491   0.00000  Uiso   1.00
O1664  O     0.64814   0.83332   0.68508   0.00000  Uiso   1.00
O1665  O     0.60600   0.83333   0.81492   0.00000  Uiso   1.00
O1666  O     0.39400   0.83333   0.68508   0.00000  Uiso   1.00
C1667  C     0.66704   0.75431   0.74780   0.00000  Uiso   1.00
C1668  C     0.70500   0.68902   0.71651   0.00000  Uiso   1.00
C1669  C     0.66683   0.95704   0.75134   0.00000  Uiso   1.00
C1670  C     0.66723   0.70966   0.74637   0.00000  Uiso   1.00
C1671  C     0.84726   0.80640   0.77829   0.00000  Uiso   1.00
C1672  C     0.81902   0.86103   0.72236   0.00000  Uiso   1.00
C1673  C     0.79797   0.80775   0.77849   0.00000  Uiso   1.00
C1674  C     0.86822   0.86036   0.72294   0.00000  Uiso   1.00
C1675  C     0.97245   0.83339   0.83586   0.00000  Uiso   1.00
C1676  C     0.69416   0.83224   0.66425   0.00000  Uiso   1.00
C1677  C     0.95710   0.83306   0.88478   0.00000  Uiso   1.00
C1678  C     0.66676   0.91242   0.75081   0.00000  Uiso   1.00
C1679  C     0.70948   0.82612   0.61618   0.00000  Uiso   1.00
C1680  C     0.97528   0.83996   0.95494   0.00000  Uiso   1.00
C1681  C     0.69323   0.80178   0.54970   0.00000  Uiso   1.00
C1682  C     0.99083   0.83932   0.90861   0.00000  Uiso   1.00
C1683  C     0.67670   0.81135   0.59437   0.00000  Uiso   1.00
C1684  C     0.90797   0.82660   0.90777   0.00000  Uiso   1.00
C1685  C     0.75858   0.83136   0.59293   0.00000  Uiso   1.00
C1686  C     0.89162   0.82523   0.95459   0.00000  Uiso   1.00
C1687  C     0.77639   0.82028   0.54847   0.00000  Uiso   1.00
C1688  C     0.92603   0.83324   0.97805   0.00000  Uiso   1.00
C1689  C     0.86231   0.82906   0.54762   0.00000  Uiso   1.00
C1690  C     0.74263   0.80667   0.52644   0.00000  Uiso   1.00
C1691  C     0.84191   0.81755   0.97860   0.00000  Uiso   1.00
C1692  C     0.82670   0.82276   0.52532   0.00000  Uiso   1.00
C1693  C     0.92022   0.95477   0.81491   0.00000  Uiso   1.00
C1694  C     0.87653   0.94766   0.79686   0.00000  Uiso   1.00
C1695  C     0.83823   0.91835   0.82811   0.00000  Uiso   1.00
C1696  C     0.74559   0.71070   0.67970   0.00000  Uiso   1.00
C1697  C     0.73881   0.70414   0.63358   0.00000  Uiso   1.00
C1698  C     0.78347   0.71991   0.59640   0.00000  Uiso   1.00
C1699  C     0.85641   0.77785   0.81432   0.00000  Uiso   1.00
C1700  C     0.80716   0.80380   0.95780   0.00000  Uiso   1.00
C1701  C     0.83796   0.73281   0.81409   0.00000  Uiso   1.00
C1702  C     0.83437   0.70986   0.85864   0.00000  Uiso   1.00
C1703  C     0.80612   0.89667   0.69520   0.00000  Uiso   1.00
C1704  C     0.84335   0.90660   0.64936   0.00000  Uiso   1.00
C1705  C     0.82271   0.93479   0.61961   0.00000  Uiso   1.00
C1706  C     0.91099   0.83442   0.52433   0.00000  Uiso   1.00
C1707  C     0.75857   0.79783   0.98156   0.00000  Uiso   1.00
C1708  C     0.96305   0.68720   0.77764   0.00000  Uiso   1.00
C1709  C     0.70455   0.97933   0.72025   0.00000  Uiso   1.00
C1710  C     0.96177   0.97755   0.78021   0.00000  Uiso   1.00
Cu1711 Cu    0.71355   0.83334   0.75000   0.00000  Uiso   1.00
Cu1712 Cu    0.95311   0.83333   0.75000   0.00000  Uiso   1.00
H1713  H     0.93691   0.83995   0.54276   0.00000  Uiso   1.00
H1714  H     0.81665   0.79580   0.92348   0.00000  Uiso   1.00
H1715  H     0.93543   0.70344   0.80108   0.00000  Uiso   1.00
H1716  H     0.73304   0.96297   0.69764   0.00000  Uiso   1.00
H1717  H     0.76998   0.78918   0.80245   0.00000  Uiso   1.00
H1718  H     0.89526   0.88220   0.70267   0.00000  Uiso   1.00
H1719  H     0.85351   0.88761   0.83123   0.00000  Uiso   1.00
H1720  H     0.82520   0.93110   0.86169   0.00000  Uiso   1.00
H1721  H     0.80696   0.91428   0.81443   0.00000  Uiso   1.00
H1722  H     0.86009   0.97751   0.79268   0.00000  Uiso   1.00
H1723  H     0.88795   0.93462   0.76343   0.00000  Uiso   1.00
H1724  H     0.73322   0.78678   0.96447   0.00000  Uiso   1.00
H1725  H     0.93219   0.92491   0.82598   0.00000  Uiso   1.00
H1726  H     0.90891   0.97288   0.84536   0.00000  Uiso   1.00
H1727  H     0.79338   0.75220   0.60167   0.00000  Uiso   1.00
H1728  H     0.81471   0.70034   0.59575   0.00000  Uiso   1.00
H1729  H     0.77585   0.71887   0.56366   0.00000  Uiso   1.00
H1730  H     0.73238   0.67081   0.62925   0.00000  Uiso   1.00
H1731  H     0.70674   0.72106   0.63049   0.00000  Uiso   1.00
H1732  H     0.74831   0.74437   0.68332   0.00000  Uiso   1.00
H1733  H     0.78072   0.69828   0.68132   0.00000  Uiso   1.00
H1734  H     0.87008   0.71019   0.86549   0.00000  Uiso   1.00
H1735  H     0.78231   0.84437   0.61028   0.00000  Uiso   1.00
H1736  H     0.80782   0.72466   0.88624   0.00000  Uiso   1.00
H1737  H     0.82154   0.67740   0.85815   0.00000  Uiso   1.00
H1738  H     0.80160   0.73048   0.80889   0.00000  Uiso   1.00
H1739  H     0.86302   0.71724   0.78620   0.00000  Uiso   1.00
H1740  H     0.89457   0.77625   0.81285   0.00000  Uiso   1.00
H1741  H     0.83738   0.79081   0.84664   0.00000  Uiso   1.00
H1742  H     0.79003   0.92004   0.61376   0.00000  Uiso   1.00
H1743  H     0.81292   0.96458   0.63554   0.00000  Uiso   1.00
H1744  H     0.85037   0.94110   0.58688   0.00000  Uiso   1.00
H1745  H     0.87601   0.92293   0.65349   0.00000  Uiso   1.00
H1746  H     0.88287   0.82392   0.88836   0.00000  Uiso   1.00
H1747  H     0.85458   0.87760   0.63242   0.00000  Uiso   1.00
H1748  H     0.77159   0.89058   0.68862   0.00000  Uiso   1.00
H1749  H     0.80243   0.92470   0.71507   0.00000  Uiso   1.00
H1750  H     0.97190   0.80642   0.61201   0.00000  Uiso   1.00
H1751  H     0.69572   0.84454   0.89147   0.00000  Uiso   1.00
H1752  H     0.66841   0.84599   0.97267   0.00000  Uiso   1.00
H1753  H     0.66750   0.79001   0.53343   0.00000  Uiso   1.00
H1754  H     0.85376   0.82820   0.58340   0.00000  Uiso   1.00
N1755  N     0.78403   0.83334   0.74999   0.00000  Uiso   1.00
N1756  N     0.88264   0.83332   0.75001   0.00000  Uiso   1.00
O1757  O     0.70625   0.77322   0.75000   0.00000  Uiso   1.00
O1758  O     0.96042   0.89345   0.75000   0.00000  Uiso   1.00
O1759  O     0.96039   0.77321   0.75000   0.00000  Uiso   1.00
O1760  O     0.70628   0.89346   0.74999   0.00000  Uiso   1.00
O1761  O     0.68519   0.83334   0.81491   0.00000  Uiso   1.00
O1762  O     0.98148   0.83332   0.68508   0.00000  Uiso   1.00
O1763  O     0.93933   0.83333   0.81492   0.00000  Uiso   1.00
O1764  O     0.72733   0.83333   0.68508   0.00000  Uiso   1.00
loop_
_geom_bond_atom_site_label_1
_geom_bond_atom_site_label_2
_geom_bond_distance
_geom_bond_site_symmetry_2
_ccdc_geom_bond_type
C1     O91     1.292   .     A
C1     C4      1.449   .     S
C1     O289    1.304   1_455 S
C2     C4      1.417   .     A
C2     C30     1.520   .     S
C2     C631    1.394   1_545 S
C3     C43     1.395   .     A
C3     C12     1.446   .     S
C3     C240    1.412   1_455 S
C4     C238    1.397   1_455 S
C5     C33     1.516   .     S
C5     C7      1.420   .     A
C5     N90     1.400   .     A
C6     C8      1.424   .     A
C6     C37     1.523   .     S
C6     N89     1.400   .     A
C7     N89     1.345   .     A
C7     H51     1.080   .     S
C8     H52     1.078   .     S
C8     N90     1.349   .     A
C9     C11     1.467   .     S
C9     O97     1.304   .     A
C9     O193    1.301   .     S
C10    O98     1.304   .     A
C10    C13     1.466   .     S
C10    O292    1.301   1_455 S
C11    C18     1.398   .     A
C11    C16     1.401   .     A
C12    O94     1.302   .     A
C12    O288    1.292   1_455 S
C13    C19     1.395   .     A
C13    C17     1.401   .     A
C14    C16     1.391   .     A
C14    C22     1.402   .     A
C14    H184    1.083   .     S
C15    C24     1.402   .     A
C15    H87     1.083   .     S
C15    C17     1.393   .     A
C16    H183    1.083   .     S
C17    H280    1.083   1_455 S
C18    H80     1.074   .     S
C18    C20     1.404   .     A
C19    C21     1.404   .     A
C19    H69     1.076   .     S
C20    C22     1.419   .     A
C20    C25     1.424   .     A
C21    C26     1.421   .     A
C21    C24     1.416   .     A
C22    C922    1.391   .     S
C23    C40     1.385   .     A
C23    C26     1.413   .     A
C23    H88     1.075   .     S
C24    C923    1.392   1_554 S
C25    C34     1.415   .     A
C25    C908    1.420   .     S
C26    C907    1.420   1_554 S
C27    H60     1.112   .     S
C27    C44     1.517   .     S
C27    H59     1.111   .     S
C27    C28     1.537   .     S
C28    H56     1.107   .     S
C28    C29     1.526   .     S
C28    H57     1.108   .     S
C29    H53     1.111   .     S
C29    H54     1.110   .     S
C29    H55     1.111   .     S
C30    H67     1.113   .     S
C30    H66     1.105   .     S
C30    C31     1.535   .     S
C31    H65     1.112   .     S
C31    C32     1.527   .     S
C31    H64     1.111   .     S
C32    H61     1.109   .     S
C32    H63     1.110   .     S
C32    H62     1.110   .     S
C33    H75     1.108   .     S
C33    C35     1.542   .     S
C33    H74     1.090   .     S
C34    C41     1.388   .     A
C34    H48     1.075   .     S
C35    C36     1.530   .     S
C35    H72     1.107   .     S
C35    H73     1.109   .     S
C36    H71     1.108   .     S
C36    H70     1.111   .     S
C36    H68     1.110   .     S
C37    C38     1.541   .     S
C37    H82     1.088   .     S
C37    H83     1.112   .     S
C38    C39     1.528   .     S
C38    H79     1.110   .     S
C38    H81     1.107   .     S
C39    H77     1.110   .     S
C39    H78     1.110   .     S
C39    H76     1.110   .     S
C40    H47     1.083   .     S
C40    C904    1.391   1_554 S
C41    H58     1.084   .     S
C41    C906    1.392   .     S
C42    H49     1.079   .     S
C42    C102    1.397   .     S
C42    C632    1.391   1_545 S
C43    H50     1.083   .     S
C43    C296    1.394   .     S
C44    C336    1.391   .     S
C44    C101    1.412   .     S
Cu45   N89     2.031   .     S
Cu45   O94     1.964   .     S
Cu45   O95     1.961   .     S
Cu45   O98     1.957   .     S
Cu45   O91     1.954   .     S
Cu45   Cu242   2.702   1_455 S
Cu46   O92     1.954   .     S
Cu46   O96     1.961   .     S
Cu46   O97     1.957   .     S
Cu46   N90     2.031   .     S
Cu46   O93     1.964   .     S
Cu46   Cu143   2.702   .     S
H84    C115    1.083   .     S
H85    C212    1.083   1_455 S
H86    C210    1.083   1_455 S
O92    C110    1.292   .     S
O93    C99     1.304   .     S
O95    C205    1.301   1_455 S
O96    C108    1.301   .     S
C99    O189    1.292   .     A
C99    C102    1.449   .     S
C100   C102    1.417   .     A
C100   C128    1.520   .     S
C100   C729    1.394   1_545 S
C101   C141    1.395   .     A
C101   C110    1.446   .     S
C103   C131    1.516   .     S
C103   C105    1.420   .     A
C103   N188    1.400   .     A
C104   C106    1.424   .     A
C104   C135    1.523   .     S
C104   N187    1.400   .     A
C105   N187    1.345   .     A
C105   H149    1.080   .     S
C106   H150    1.078   .     S
C106   N188    1.349   .     A
C107   C109    1.467   .     S
C107   O195    1.304   .     A
C107   O291    1.301   .     S
C108   O196    1.304   .     A
C108   C111    1.466   .     S
C109   C116    1.398   .     A
C109   C114    1.401   .     A
C110   O192    1.302   .     A
C111   C117    1.395   .     A
C111   C115    1.401   .     A
C112   C114    1.391   .     A
C112   C120    1.402   .     A
C112   H282    1.083   .     S
C113   C122    1.402   .     A
C113   H185    1.083   .     S
C113   C115    1.393   .     A
C114   H281    1.083   .     S
C116   H178    1.074   .     S
C116   C118    1.404   .     A
C117   C119    1.404   .     A
C117   H167    1.076   .     S
C118   C120    1.419   .     A
C118   C123    1.424   .     A
C119   C124    1.421   .     A
C119   C122    1.416   .     A
C120   C1020   1.391   .     S
C121   C138    1.385   .     A
C121   C124    1.413   .     A
C121   H186    1.075   .     S
C122   C1021   1.392   1_554 S
C123   C132    1.415   .     A
C123   C1006   1.420   .     S
C124   C1005   1.420   1_554 S
C125   H158    1.112   .     S
C125   C142    1.517   .     S
C125   H157    1.111   .     S
C125   C126    1.537   .     S
C126   H154    1.107   .     S
C126   C127    1.526   .     S
C126   H155    1.108   .     S
C127   H151    1.111   .     S
C127   H152    1.110   .     S
C127   H153    1.111   .     S
C128   H165    1.113   .     S
C128   H164    1.105   .     S
C128   C129    1.535   .     S
C129   H163    1.112   .     S
C129   C130    1.527   .     S
C129   H162    1.111   .     S
C130   H159    1.109   .     S
C130   H161    1.110   .     S
C130   H160    1.110   .     S
C131   H173    1.108   .     S
C131   C133    1.542   .     S
C131   H172    1.090   .     S
C132   C139    1.388   .     A
C132   H146    1.075   .     S
C133   C134    1.530   .     S
C133   H170    1.107   .     S
C133   H171    1.109   .     S
C134   H169    1.108   .     S
C134   H168    1.111   .     S
C134   H166    1.110   .     S
C135   C136    1.541   .     S
C135   H180    1.088   .     S
C135   H181    1.112   .     S
C136   C137    1.528   .     S
C136   H177    1.110   .     S
C136   H179    1.107   .     S
C137   H175    1.110   .     S
C137   H176    1.110   .     S
C137   H174    1.110   .     S
C138   H145    1.083   .     S
C138   C1002   1.391   1_554 S
C139   H156    1.084   .     S
C139   C1004   1.392   .     S
C140   H147    1.079   .     S
C140   C200    1.397   .     S
C140   C730    1.391   1_545 S
C141   H148    1.083   .     S
C141   C394    1.394   .     S
C142   C434    1.391   .     S
C142   C199    1.412   .     S
Cu143  N187    2.031   .     S
Cu143  O192    1.964   .     S
Cu143  O193    1.961   .     S
Cu143  O196    1.957   .     S
Cu143  O189    1.954   .     S
Cu144  O190    1.954   .     S
Cu144  O194    1.961   .     S
Cu144  O195    1.957   .     S
Cu144  N188    2.031   .     S
Cu144  O191    1.964   .     S
Cu144  Cu241   2.702   .     S
H182   C213    1.083   .     S
O190   C208    1.292   .     S
O191   C197    1.304   .     S
O194   C206    1.301   .     S
C197   O287    1.292   .     A
C197   C200    1.449   .     S
C198   C200    1.417   .     A
C198   C226    1.520   .     S
C198   C827    1.394   1_545 S
C199   C239    1.395   .     A
C199   C208    1.446   .     S
C201   C229    1.516   .     S
C201   C203    1.420   .     A
C201   N286    1.400   .     A
C202   C204    1.424   .     A
C202   C233    1.523   .     S
C202   N285    1.400   .     A
C203   N285    1.345   .     A
C203   H247    1.080   .     S
C204   H248    1.078   .     S
C204   N286    1.349   .     A
C205   C207    1.467   .     S
C205   O293    1.304   .     A
C205   O95     1.301   1_655 S
C206   O294    1.304   .     A
C206   C209    1.466   .     S
C207   C214    1.398   .     A
C207   C212    1.401   .     A
C208   O290    1.302   .     A
C209   C215    1.395   .     A
C209   C213    1.401   .     A
C210   C212    1.391   .     A
C210   C218    1.402   .     A
C210   H86     1.083   1_655 S
C211   C220    1.402   .     A
C211   H283    1.083   .     S
C211   C213    1.393   .     A
C212   H85     1.083   1_655 S
C214   H276    1.074   .     S
C214   C216    1.404   .     A
C215   C217    1.404   .     A
C215   H265    1.076   .     S
C216   C218    1.419   .     A
C216   C221    1.424   .     A
C217   C222    1.421   .     A
C217   C220    1.416   .     A
C218   C1118   1.391   .     S
C219   C236    1.385   .     A
C219   C222    1.413   .     A
C219   H284    1.075   .     S
C220   C1119   1.392   1_554 S
C221   C230    1.415   .     A
C221   C1104   1.420   .     S
C222   C1103   1.420   1_554 S
C223   H256    1.112   .     S
C223   C240    1.517   .     S
C223   H255    1.111   .     S
C223   C224    1.537   .     S
C224   H252    1.107   .     S
C224   C225    1.526   .     S
C224   H253    1.108   .     S
C225   H249    1.111   .     S
C225   H250    1.110   .     S
C225   H251    1.111   .     S
C226   H263    1.113   .     S
C226   H262    1.105   .     S
C226   C227    1.535   .     S
C227   H261    1.112   .     S
C227   C228    1.527   .     S
C227   H260    1.111   .     S
C228   H257    1.109   .     S
C228   H259    1.110   .     S
C228   H258    1.110   .     S
C229   H271    1.108   .     S
C229   C231    1.542   .     S
C229   H270    1.090   .     S
C230   C237    1.388   .     A
C230   H244    1.075   .     S
C231   C232    1.530   .     S
C231   H268    1.107   .     S
C231   H269    1.109   .     S
C232   H267    1.108   .     S
C232   H266    1.111   .     S
C232   H264    1.110   .     S
C233   C234    1.541   .     S
C233   H278    1.088   .     S
C233   H279    1.112   .     S
C234   C235    1.528   .     S
C234   H275    1.110   .     S
C234   H277    1.107   .     S
C235   H273    1.110   .     S
C235   H274    1.110   .     S
C235   H272    1.110   .     S
C236   H243    1.083   .     S
C236   C1100   1.391   1_554 S
C237   H254    1.084   .     S
C237   C1102   1.392   .     S
C238   H245    1.079   .     S
C238   C4      1.397   1_655 S
C238   C828    1.391   1_545 S
C239   H246    1.083   .     S
C239   C492    1.394   .     S
C240   C532    1.391   .     S
C240   C3      1.412   1_655 S
Cu241  N285    2.031   .     S
Cu241  O290    1.964   .     S
Cu241  O291    1.961   .     S
Cu241  O294    1.957   .     S
Cu241  O287    1.954   .     S
Cu242  O288    1.954   .     S
Cu242  O292    1.961   .     S
Cu242  O293    1.957   .     S
Cu242  N286    2.031   .     S
Cu242  O289    1.964   .     S
Cu242  Cu45    2.702   1_655 S
H280   C17     1.083   1_655 S
O288   C12     1.292   1_655 S
O289   C1      1.304   1_655 S
O292   C10     1.301   1_655 S
C295   O385    1.292   .     A
C295   C298    1.449   .     S
C295   O583    1.304   1_455 S
C296   C298    1.417   .     A
C296   C324    1.520   .     S
C297   C337    1.395   .     A
C297   C306    1.446   .     S
C297   C534    1.412   1_455 S
C298   C532    1.397   1_455 S
C299   C327    1.516   .     S
C299   C301    1.420   .     A
C299   N384    1.400   .     A
C300   C302    1.424   .     A
C300   C331    1.523   .     S
C300   N383    1.400   .     A
C301   N383    1.345   .     A
C301   H345    1.080   .     S
C302   H346    1.078   .     S
C302   N384    1.349   .     A
C303   C305    1.467   .     S
C303   O391    1.304   .     A
C303   O487    1.301   .     S
C304   O392    1.304   .     A
C304   C307    1.466   .     S
C304   O586    1.301   1_455 S
C305   C312    1.398   .     A
C305   C310    1.401   .     A
C306   O388    1.302   .     A
C306   O582    1.292   1_455 S
C307   C313    1.395   .     A
C307   C311    1.401   .     A
C308   C310    1.391   .     A
C308   C316    1.402   .     A
C308   H478    1.083   .     S
C309   C318    1.402   .     A
C309   H381    1.083   .     S
C309   C311    1.393   .     A
C310   H477    1.083   .     S
C311   H574    1.083   1_455 S
C312   H374    1.074   .     S
C312   C314    1.404   .     A
C313   C315    1.404   .     A
C313   H363    1.076   .     S
C314   C316    1.419   .     A
C314   C319    1.424   .     A
C315   C320    1.421   .     A
C315   C318    1.416   .     A
C316   C1216   1.391   .     S
C317   C334    1.385   .     A
C317   C320    1.413   .     A
C317   H382    1.075   .     S
C318   C1217   1.392   1_554 S
C319   C328    1.415   .     A
C319   C1202   1.420   .     S
C320   C1201   1.420   1_554 S
C321   H354    1.112   .     S
C321   C338    1.517   .     S
C321   H353    1.111   .     S
C321   C322    1.537   .     S
C322   H350    1.107   .     S
C322   C323    1.526   .     S
C322   H351    1.108   .     S
C323   H347    1.111   .     S
C323   H348    1.110   .     S
C323   H349    1.111   .     S
C324   H361    1.113   .     S
C324   H360    1.105   .     S
C324   C325    1.535   .     S
C325   H359    1.112   .     S
C325   C326    1.527   .     S
C325   H358    1.111   .     S
C326   H355    1.109   .     S
C326   H357    1.110   .     S
C326   H356    1.110   .     S
C327   H369    1.108   .     S
C327   C329    1.542   .     S
C327   H368    1.090   .     S
C328   C335    1.388   .     A
C328   H342    1.075   .     S
C329   C330    1.530   .     S
C329   H366    1.107   .     S
C329   H367    1.109   .     S
C330   H365    1.108   .     S
C330   H364    1.111   .     S
C330   H362    1.110   .     S
C331   C332    1.541   .     S
C331   H376    1.088   .     S
C331   H377    1.112   .     S
C332   C333    1.528   .     S
C332   H373    1.110   .     S
C332   H375    1.107   .     S
C333   H371    1.110   .     S
C333   H372    1.110   .     S
C333   H370    1.110   .     S
C334   H341    1.083   .     S
C334   C1198   1.391   1_554 S
C335   H352    1.084   .     S
C335   C1200   1.392   .     S
C336   H343    1.079   .     S
C336   C396    1.397   .     S
C337   H344    1.083   .     S
C337   C590    1.394   .     S
C338   C630    1.391   .     S
C338   C395    1.412   .     S
Cu339  N383    2.031   .     S
Cu339  O388    1.964   .     S
Cu339  O389    1.961   .     S
Cu339  O392    1.957   .     S
Cu339  O385    1.954   .     S
Cu339  Cu536   2.702   1_455 S
Cu340  O386    1.954   .     S
Cu340  O390    1.961   .     S
Cu340  O391    1.957   .     S
Cu340  N384    2.031   .     S
Cu340  O387    1.964   .     S
Cu340  Cu437   2.702   .     S
H378   C409    1.083   .     S
H379   C506    1.083   1_455 S
H380   C504    1.083   1_455 S
O386   C404    1.292   .     S
O387   C393    1.304   .     S
O389   C499    1.301   1_455 S
O390   C402    1.301   .     S
C393   O483    1.292   .     A
C393   C396    1.449   .     S
C394   C396    1.417   .     A
C394   C422    1.520   .     S
C395   C435    1.395   .     A
C395   C404    1.446   .     S
C397   C425    1.516   .     S
C397   C399    1.420   .     A
C397   N482    1.400   .     A
C398   C400    1.424   .     A
C398   C429    1.523   .     S
C398   N481    1.400   .     A
C399   N481    1.345   .     A
C399   H443    1.080   .     S
C400   H444    1.078   .     S
C400   N482    1.349   .     A
C401   C403    1.467   .     S
C401   O489    1.304   .     A
C401   O585    1.301   .     S
C402   O490    1.304   .     A
C402   C405    1.466   .     S
C403   C410    1.398   .     A
C403   C408    1.401   .     A
C404   O486    1.302   .     A
C405   C411    1.395   .     A
C405   C409    1.401   .     A
C406   C408    1.391   .     A
C406   C414    1.402   .     A
C406   H576    1.083   .     S
C407   C416    1.402   .     A
C407   H479    1.083   .     S
C407   C409    1.393   .     A
C408   H575    1.083   .     S
C410   H472    1.074   .     S
C410   C412    1.404   .     A
C411   C413    1.404   .     A
C411   H461    1.076   .     S
C412   C414    1.419   .     A
C412   C417    1.424   .     A
C413   C418    1.421   .     A
C413   C416    1.416   .     A
C414   C1314   1.391   .     S
C415   C432    1.385   .     A
C415   C418    1.413   .     A
C415   H480    1.075   .     S
C416   C1315   1.392   1_554 S
C417   C426    1.415   .     A
C417   C1300   1.420   .     S
C418   C1299   1.420   1_554 S
C419   H452    1.112   .     S
C419   C436    1.517   .     S
C419   H451    1.111   .     S
C419   C420    1.537   .     S
C420   H448    1.107   .     S
C420   C421    1.526   .     S
C420   H449    1.108   .     S
C421   H445    1.111   .     S
C421   H446    1.110   .     S
C421   H447    1.111   .     S
C422   H459    1.113   .     S
C422   H458    1.105   .     S
C422   C423    1.535   .     S
C423   H457    1.112   .     S
C423   C424    1.527   .     S
C423   H456    1.111   .     S
C424   H453    1.109   .     S
C424   H455    1.110   .     S
C424   H454    1.110   .     S
C425   H467    1.108   .     S
C425   C427    1.542   .     S
C425   H466    1.090   .     S
C426   C433    1.388   .     A
C426   H440    1.075   .     S
C427   C428    1.530   .     S
C427   H464    1.107   .     S
C427   H465    1.109   .     S
C428   H463    1.108   .     S
C428   H462    1.111   .     S
C428   H460    1.110   .     S
C429   C430    1.541   .     S
C429   H474    1.088   .     S
C429   H475    1.112   .     S
C430   C431    1.528   .     S
C430   H471    1.110   .     S
C430   H473    1.107   .     S
C431   H469    1.110   .     S
C431   H470    1.110   .     S
C431   H468    1.110   .     S
C432   H439    1.083   .     S
C432   C1296   1.391   1_554 S
C433   H450    1.084   .     S
C433   C1298   1.392   .     S
C434   H441    1.079   .     S
C434   C494    1.397   .     S
C435   H442    1.083   .     S
C435   C688    1.394   .     S
C436   C728    1.391   .     S
C436   C493    1.412   .     S
Cu437  N481    2.031   .     S
Cu437  O486    1.964   .     S
Cu437  O487    1.961   .     S
Cu437  O490    1.957   .     S
Cu437  O483    1.954   .     S
Cu438  O484    1.954   .     S
Cu438  O488    1.961   .     S
Cu438  O489    1.957   .     S
Cu438  N482    2.031   .     S
Cu438  O485    1.964   .     S
Cu438  Cu535   2.702   .     S
H476   C507    1.083   .     S
O484   C502    1.292   .     S
O485   C491    1.304   .     S
O488   C500    1.301   .     S
C491   O581    1.292   .     A
C491   C494    1.449   .     S
C492   C494    1.417   .     A
C492   C520    1.520   .     S
C493   C533    1.395   .     A
C493   C502    1.446   .     S
C495   C523    1.516   .     S
C495   C497    1.420   .     A
C495   N580    1.400   .     A
C496   C498    1.424   .     A
C496   C527    1.523   .     S
C496   N579    1.400   .     A
C497   N579    1.345   .     A
C497   H541    1.080   .     S
C498   H542    1.078   .     S
C498   N580    1.349   .     A
C499   C501    1.467   .     S
C499   O587    1.304   .     A
C499   O389    1.301   1_655 S
C500   O588    1.304   .     A
C500   C503    1.466   .     S
C501   C508    1.398   .     A
C501   C506    1.401   .     A
C502   O584    1.302   .     A
C503   C509    1.395   .     A
C503   C507    1.401   .     A
C504   C506    1.391   .     A
C504   C512    1.402   .     A
C504   H380    1.083   1_655 S
C505   C514    1.402   .     A
C505   H577    1.083   .     S
C505   C507    1.393   .     A
C506   H379    1.083   1_655 S
C508   H570    1.074   .     S
C508   C510    1.404   .     A
C509   C511    1.404   .     A
C509   H559    1.076   .     S
C510   C512    1.419   .     A
C510   C515    1.424   .     A
C511   C516    1.421   .     A
C511   C514    1.416   .     A
C512   C1412   1.391   .     S
C513   C530    1.385   .     A
C513   C516    1.413   .     A
C513   H578    1.075   .     S
C514   C1413   1.392   1_554 S
C515   C524    1.415   .     A
C515   C1398   1.420   .     S
C516   C1397   1.420   1_554 S
C517   H550    1.112   .     S
C517   C534    1.517   .     S
C517   H549    1.111   .     S
C517   C518    1.537   .     S
C518   H546    1.107   .     S
C518   C519    1.526   .     S
C518   H547    1.108   .     S
C519   H543    1.111   .     S
C519   H544    1.110   .     S
C519   H545    1.111   .     S
C520   H557    1.113   .     S
C520   H556    1.105   .     S
C520   C521    1.535   .     S
C521   H555    1.112   .     S
C521   C522    1.527   .     S
C521   H554    1.111   .     S
C522   H551    1.109   .     S
C522   H553    1.110   .     S
C522   H552    1.110   .     S
C523   H565    1.108   .     S
C523   C525    1.542   .     S
C523   H564    1.090   .     S
C524   C531    1.388   .     A
C524   H538    1.075   .     S
C525   C526    1.530   .     S
C525   H562    1.107   .     S
C525   H563    1.109   .     S
C526   H561    1.108   .     S
C526   H560    1.111   .     S
C526   H558    1.110   .     S
C527   C528    1.541   .     S
C527   H572    1.088   .     S
C527   H573    1.112   .     S
C528   C529    1.528   .     S
C528   H569    1.110   .     S
C528   H571    1.107   .     S
C529   H567    1.110   .     S
C529   H568    1.110   .     S
C529   H566    1.110   .     S
C530   H537    1.083   .     S
C530   C1394   1.391   1_554 S
C531   H548    1.084   .     S
C531   C1396   1.392   .     S
C532   H539    1.079   .     S
C532   C298    1.397   1_655 S
C533   H540    1.083   .     S
C533   C786    1.394   .     S
C534   C826    1.391   .     S
C534   C297    1.412   1_655 S
Cu535  N579    2.031   .     S
Cu535  O584    1.964   .     S
Cu535  O585    1.961   .     S
Cu535  O588    1.957   .     S
Cu535  O581    1.954   .     S
Cu536  O582    1.954   .     S
Cu536  O586    1.961   .     S
Cu536  O587    1.957   .     S
Cu536  N580    2.031   .     S
Cu536  O583    1.964   .     S
Cu536  Cu339   2.702   1_655 S
H574   C311    1.083   1_655 S
O582   C306    1.292   1_655 S
O583   C295    1.304   1_655 S
O586   C304    1.301   1_655 S
C589   O679    1.292   .     A
C589   C592    1.449   .     S
C589   O877    1.304   1_455 S
C590   C592    1.417   .     A
C590   C618    1.520   .     S
C591   C631    1.395   .     A
C591   C600    1.446   .     S
C591   C828    1.412   1_455 S
C592   C826    1.397   1_455 S
C593   C621    1.516   .     S
C593   C595    1.420   .     A
C593   N678    1.400   .     A
C594   C596    1.424   .     A
C594   C625    1.523   .     S
C594   N677    1.400   .     A
C595   N677    1.345   .     A
C595   H639    1.080   .     S
C596   H640    1.078   .     S
C596   N678    1.349   .     A
C597   C599    1.467   .     S
C597   O685    1.304   .     A
C597   O781    1.301   .     S
C598   O686    1.304   .     A
C598   C601    1.466   .     S
C598   O880    1.301   1_455 S
C599   C606    1.398   .     A
C599   C604    1.401   .     A
C600   O682    1.302   .     A
C600   O876    1.292   1_455 S
C601   C607    1.395   .     A
C601   C605    1.401   .     A
C602   C604    1.391   .     A
C602   C610    1.402   .     A
C602   H772    1.083   .     S
C603   C612    1.402   .     A
C603   H675    1.083   .     S
C603   C605    1.393   .     A
C604   H771    1.083   .     S
C605   H868    1.083   1_455 S
C606   H668    1.074   .     S
C606   C608    1.404   .     A
C607   C609    1.404   .     A
C607   H657    1.076   .     S
C608   C610    1.419   .     A
C608   C613    1.424   .     A
C609   C614    1.421   .     A
C609   C612    1.416   .     A
C610   C1510   1.391   .     S
C611   C628    1.385   .     A
C611   C614    1.413   .     A
C611   H676    1.075   .     S
C612   C1511   1.392   1_554 S
C613   C622    1.415   .     A
C613   C1496   1.420   .     S
C614   C1495   1.420   1_554 S
C615   H648    1.112   .     S
C615   C632    1.517   .     S
C615   H647    1.111   .     S
C615   C616    1.537   .     S
C616   H644    1.107   .     S
C616   C617    1.526   .     S
C616   H645    1.108   .     S
C617   H641    1.111   .     S
C617   H642    1.110   .     S
C617   H643    1.111   .     S
C618   H655    1.113   .     S
C618   H654    1.105   .     S
C618   C619    1.535   .     S
C619   H653    1.112   .     S
C619   C620    1.527   .     S
C619   H652    1.111   .     S
C620   H649    1.109   .     S
C620   H651    1.110   .     S
C620   H650    1.110   .     S
C621   H663    1.108   .     S
C621   C623    1.542   .     S
C621   H662    1.090   .     S
C622   C629    1.388   .     A
C622   H636    1.075   .     S
C623   C624    1.530   .     S
C623   H660    1.107   .     S
C623   H661    1.109   .     S
C624   H659    1.108   .     S
C624   H658    1.111   .     S
C624   H656    1.110   .     S
C625   C626    1.541   .     S
C625   H670    1.088   .     S
C625   H671    1.112   .     S
C626   C627    1.528   .     S
C626   H667    1.110   .     S
C626   H669    1.107   .     S
C627   H665    1.110   .     S
C627   H666    1.110   .     S
C627   H664    1.110   .     S
C628   H635    1.083   .     S
C628   C1492   1.391   1_554 S
C629   H646    1.084   .     S
C629   C1494   1.392   .     S
C630   H637    1.079   .     S
C630   C690    1.397   .     S
C631   H638    1.083   .     S
C631   C2      1.394   1_565 S
C632   C42     1.391   1_565 S
C632   C689    1.412   .     S
Cu633  N677    2.031   .     S
Cu633  O682    1.964   .     S
Cu633  O683    1.961   .     S
Cu633  O686    1.957   .     S
Cu633  O679    1.954   .     S
Cu633  Cu830   2.702   1_455 S
Cu634  O680    1.954   .     S
Cu634  O684    1.961   .     S
Cu634  O685    1.957   .     S
Cu634  N678    2.031   .     S
Cu634  O681    1.964   .     S
Cu634  Cu731   2.702   .     S
H672   C703    1.083   .     S
H673   C800    1.083   1_455 S
H674   C798    1.083   1_455 S
O680   C698    1.292   .     S
O681   C687    1.304   .     S
O683   C793    1.301   1_455 S
O684   C696    1.301   .     S
C687   O777    1.292   .     A
C687   C690    1.449   .     S
C688   C690    1.417   .     A
C688   C716    1.520   .     S
C689   C729    1.395   .     A
C689   C698    1.446   .     S
C691   C719    1.516   .     S
C691   C693    1.420   .     A
C691   N776    1.400   .     A
C692   C694    1.424   .     A
C692   C723    1.523   .     S
C692   N775    1.400   .     A
C693   N775    1.345   .     A
C693   H737    1.080   .     S
C694   H738    1.078   .     S
C694   N776    1.349   .     A
C695   C697    1.467   .     S
C695   O783    1.304   .     A
C695   O879    1.301   .     S
C696   O784    1.304   .     A
C696   C699    1.466   .     S
C697   C704    1.398   .     A
C697   C702    1.401   .     A
C698   O780    1.302   .     A
C699   C705    1.395   .     A
C699   C703    1.401   .     A
C700   C702    1.391   .     A
C700   C708    1.402   .     A
C700   H870    1.083   .     S
C701   C710    1.402   .     A
C701   H773    1.083   .     S
C701   C703    1.393   .     A
C702   H869    1.083   .     S
C704   H766    1.074   .     S
C704   C706    1.404   .     A
C705   C707    1.404   .     A
C705   H755    1.076   .     S
C706   C708    1.419   .     A
C706   C711    1.424   .     A
C707   C712    1.421   .     A
C707   C710    1.416   .     A
C708   C1608   1.391   .     S
C709   C726    1.385   .     A
C709   C712    1.413   .     A
C709   H774    1.075   .     S
C710   C1609   1.392   1_554 S
C711   C720    1.415   .     A
C711   C1594   1.420   .     S
C712   C1593   1.420   1_554 S
C713   H746    1.112   .     S
C713   C730    1.517   .     S
C713   H745    1.111   .     S
C713   C714    1.537   .     S
C714   H742    1.107   .     S
C714   C715    1.526   .     S
C714   H743    1.108   .     S
C715   H739    1.111   .     S
C715   H740    1.110   .     S
C715   H741    1.111   .     S
C716   H753    1.113   .     S
C716   H752    1.105   .     S
C716   C717    1.535   .     S
C717   H751    1.112   .     S
C717   C718    1.527   .     S
C717   H750    1.111   .     S
C718   H747    1.109   .     S
C718   H749    1.110   .     S
C718   H748    1.110   .     S
C719   H761    1.108   .     S
C719   C721    1.542   .     S
C719   H760    1.090   .     S
C720   C727    1.388   .     A
C720   H734    1.075   .     S
C721   C722    1.530   .     S
C721   H758    1.107   .     S
C721   H759    1.109   .     S
C722   H757    1.108   .     S
C722   H756    1.111   .     S
C722   H754    1.110   .     S
C723   C724    1.541   .     S
C723   H768    1.088   .     S
C723   H769    1.112   .     S
C724   C725    1.528   .     S
C724   H765    1.110   .     S
C724   H767    1.107   .     S
C725   H763    1.110   .     S
C725   H764    1.110   .     S
C725   H762    1.110   .     S
C726   H733    1.083   .     S
C726   C1590   1.391   1_554 S
C727   H744    1.084   .     S
C727   C1592   1.392   .     S
C728   H735    1.079   .     S
C728   C788    1.397   .     S
C729   H736    1.083   .     S
C729   C100    1.394   1_565 S
C730   C140    1.391   1_565 S
C730   C787    1.412   .     S
Cu731  N775    2.031   .     S
Cu731  O780    1.964   .     S
Cu731  O781    1.961   .     S
Cu731  O784    1.957   .     S
Cu731  O777    1.954   .     S
Cu732  O778    1.954   .     S
Cu732  O782    1.961   .     S
Cu732  O783    1.957   .     S
Cu732  N776    2.031   .     S
Cu732  O779    1.964   .     S
Cu732  Cu829   2.702   .     S
H770   C801    1.083   .     S
O778   C796    1.292   .     S
O779   C785    1.304   .     S
O782   C794    1.301   .     S
C785   O875    1.292   .     A
C785   C788    1.449   .     S
C786   C788    1.417   .     A
C786   C814    1.520   .     S
C787   C827    1.395   .     A
C787   C796    1.446   .     S
C789   C817    1.516   .     S
C789   C791    1.420   .     A
C789   N874    1.400   .     A
C790   C792    1.424   .     A
C790   C821    1.523   .     S
C790   N873    1.400   .     A
C791   N873    1.345   .     A
C791   H835    1.080   .     S
C792   H836    1.078   .     S
C792   N874    1.349   .     A
C793   C795    1.467   .     S
C793   O881    1.304   .     A
C793   O683    1.301   1_655 S
C794   O882    1.304   .     A
C794   C797    1.466   .     S
C795   C802    1.398   .     A
C795   C800    1.401   .     A
C796   O878    1.302   .     A
C797   C803    1.395   .     A
C797   C801    1.401   .     A
C798   C800    1.391   .     A
C798   C806    1.402   .     A
C798   H674    1.083   1_655 S
C799   C808    1.402   .     A
C799   H871    1.083   .     S
C799   C801    1.393   .     A
C800   H673    1.083   1_655 S
C802   H864    1.074   .     S
C802   C804    1.404   .     A
C803   C805    1.404   .     A
C803   H853    1.076   .     S
C804   C806    1.419   .     A
C804   C809    1.424   .     A
C805   C810    1.421   .     A
C805   C808    1.416   .     A
C806   C1706   1.391   .     S
C807   C824    1.385   .     A
C807   C810    1.413   .     A
C807   H872    1.075   .     S
C808   C1707   1.392   1_554 S
C809   C818    1.415   .     A
C809   C1692   1.420   .     S
C810   C1691   1.420   1_554 S
C811   H844    1.112   .     S
C811   C828    1.517   .     S
C811   H843    1.111   .     S
C811   C812    1.537   .     S
C812   H840    1.107   .     S
C812   C813    1.526   .     S
C812   H841    1.108   .     S
C813   H837    1.111   .     S
C813   H838    1.110   .     S
C813   H839    1.111   .     S
C814   H851    1.113   .     S
C814   H850    1.105   .     S
C814   C815    1.535   .     S
C815   H849    1.112   .     S
C815   C816    1.527   .     S
C815   H848    1.111   .     S
C816   H845    1.109   .     S
C816   H847    1.110   .     S
C816   H846    1.110   .     S
C817   H859    1.108   .     S
C817   C819    1.542   .     S
C817   H858    1.090   .     S
C818   C825    1.388   .     A
C818   H832    1.075   .     S
C819   C820    1.530   .     S
C819   H856    1.107   .     S
C819   H857    1.109   .     S
C820   H855    1.108   .     S
C820   H854    1.111   .     S
C820   H852    1.110   .     S
C821   C822    1.541   .     S
C821   H866    1.088   .     S
C821   H867    1.112   .     S
C822   C823    1.528   .     S
C822   H863    1.110   .     S
C822   H865    1.107   .     S
C823   H861    1.110   .     S
C823   H862    1.110   .     S
C823   H860    1.110   .     S
C824   H831    1.083   .     S
C824   C1688   1.391   1_554 S
C825   H842    1.084   .     S
C825   C1690   1.392   .     S
C826   H833    1.079   .     S
C826   C592    1.397   1_655 S
C827   H834    1.083   .     S
C827   C198    1.394   1_565 S
C828   C238    1.391   1_565 S
C828   C591    1.412   1_655 S
Cu829  N873    2.031   .     S
Cu829  O878    1.964   .     S
Cu829  O879    1.961   .     S
Cu829  O882    1.957   .     S
Cu829  O875    1.954   .     S
Cu830  O876    1.954   .     S
Cu830  O880    1.961   .     S
Cu830  O881    1.957   .     S
Cu830  N874    2.031   .     S
Cu830  O877    1.964   .     S
Cu830  Cu633   2.702   1_655 S
H868   C605    1.083   1_655 S
O876   C600    1.292   1_655 S
O877   C589    1.304   1_655 S
O880   C598    1.301   1_655 S
C883   O973    1.292   .     A
C883   C886    1.449   .     S
C883   O1171   1.304   1_455 S
C884   C886    1.417   .     A
C884   C912    1.520   .     S
C884   C1513   1.394   1_545 S
C885   C925    1.395   .     A
C885   C894    1.446   .     S
C885   C1122   1.412   1_455 S
C886   C1120   1.397   1_455 S
C887   C915    1.516   .     S
C887   C889    1.420   .     A
C887   N972    1.400   .     A
C888   C890    1.424   .     A
C888   C919    1.523   .     S
C888   N971    1.400   .     A
C889   N971    1.345   .     A
C889   H933    1.080   .     S
C890   H934    1.078   .     S
C890   N972    1.349   .     A
C891   C893    1.467   .     S
C891   O979    1.304   .     A
C891   O1075   1.301   .     S
C892   O980    1.304   .     A
C892   C895    1.466   .     S
C892   O1174   1.301   1_455 S
C893   C900    1.398   .     A
C893   C898    1.401   .     A
C894   O976    1.302   .     A
C894   O1170   1.292   1_455 S
C895   C901    1.395   .     A
C895   C899    1.401   .     A
C896   C898    1.391   .     A
C896   C904    1.402   .     A
C896   H1066   1.083   .     S
C897   C906    1.402   .     A
C897   H969    1.083   .     S
C897   C899    1.393   .     A
C898   H1065   1.083   .     S
C899   H1162   1.083   1_455 S
C900   H962    1.074   .     S
C900   C902    1.404   .     A
C901   C903    1.404   .     A
C901   H951    1.076   .     S
C902   C904    1.419   .     A
C902   C907    1.424   .     A
C903   C908    1.421   .     A
C903   C906    1.416   .     A
C904   C40     1.391   1_556 S
C905   C922    1.385   .     A
C905   C908    1.413   .     A
C905   H970    1.075   .     S
C907   C916    1.415   .     A
C907   C26     1.420   1_556 S
C909   H942    1.112   .     S
C909   C926    1.517   .     S
C909   H941    1.111   .     S
C909   C910    1.537   .     S
C910   H938    1.107   .     S
C910   C911    1.526   .     S
C910   H939    1.108   .     S
C911   H935    1.111   .     S
C911   H936    1.110   .     S
C911   H937    1.111   .     S
C912   H949    1.113   .     S
C912   H948    1.105   .     S
C912   C913    1.535   .     S
C913   H947    1.112   .     S
C913   C914    1.527   .     S
C913   H946    1.111   .     S
C914   H943    1.109   .     S
C914   H945    1.110   .     S
C914   H944    1.110   .     S
C915   H957    1.108   .     S
C915   C917    1.542   .     S
C915   H956    1.090   .     S
C916   C923    1.388   .     A
C916   H930    1.075   .     S
C917   C918    1.530   .     S
C917   H954    1.107   .     S
C917   H955    1.109   .     S
C918   H953    1.108   .     S
C918   H952    1.111   .     S
C918   H950    1.110   .     S
C919   C920    1.541   .     S
C919   H964    1.088   .     S
C919   H965    1.112   .     S
C920   C921    1.528   .     S
C920   H961    1.110   .     S
C920   H963    1.107   .     S
C921   H959    1.110   .     S
C921   H960    1.110   .     S
C921   H958    1.110   .     S
C922   H929    1.083   .     S
C923   H940    1.084   .     S
C923   C24     1.392   1_556 S
C924   H931    1.079   .     S
C924   C984    1.397   .     S
C924   C1514   1.391   1_545 S
C925   H932    1.083   .     S
C925   C1178   1.394   .     S
C926   C1218   1.391   .     S
C926   C983    1.412   .     S
Cu927  N971    2.031   .     S
Cu927  O976    1.964   .     S
Cu927  O977    1.961   .     S
Cu927  O980    1.957   .     S
Cu927  O973    1.954   .     S
Cu927  Cu1124  2.702   1_455 S
Cu928  O974    1.954   .     S
Cu928  O978    1.961   .     S
Cu928  O979    1.957   .     S
Cu928  N972    2.031   .     S
Cu928  O975    1.964   .     S
Cu928  Cu1025  2.702   .     S
H966   C997    1.083   .     S
H967   C1094   1.083   1_455 S
H968   C1092   1.083   1_455 S
O974   C992    1.292   .     S
O975   C981    1.304   .     S
O977   C1087   1.301   1_455 S
O978   C990    1.301   .     S
C981   O1071   1.292   .     A
C981   C984    1.449   .     S
C982   C984    1.417   .     A
C982   C1010   1.520   .     S
C982   C1611   1.394   1_545 S
C983   C1023   1.395   .     A
C983   C992    1.446   .     S
C985   C1013   1.516   .     S
C985   C987    1.420   .     A
C985   N1070   1.400   .     A
C986   C988    1.424   .     A
C986   C1017   1.523   .     S
C986   N1069   1.400   .     A
C987   N1069   1.345   .     A
C987   H1031   1.080   .     S
C988   H1032   1.078   .     S
C988   N1070   1.349   .     A
C989   C991    1.467   .     S
C989   O1077   1.304   .     A
C989   O1173   1.301   .     S
C990   O1078   1.304   .     A
C990   C993    1.466   .     S
C991   C998    1.398   .     A
C991   C996    1.401   .     A
C992   O1074   1.302   .     A
C993   C999    1.395   .     A
C993   C997    1.401   .     A
C994   C996    1.391   .     A
C994   C1002   1.402   .     A
C994   H1164   1.083   .     S
C995   C1004   1.402   .     A
C995   H1067   1.083   .     S
C995   C997    1.393   .     A
C996   H1163   1.083   .     S
C998   H1060   1.074   .     S
C998   C1000   1.404   .     A
C999   C1001   1.404   .     A
C999   H1049   1.076   .     S
C1000  C1002   1.419   .     A
C1000  C1005   1.424   .     A
C1001  C1006   1.421   .     A
C1001  C1004   1.416   .     A
C1002  C138    1.391   1_556 S
C1003  C1020   1.385   .     A
C1003  C1006   1.413   .     A
C1003  H1068   1.075   .     S
C1005  C1014   1.415   .     A
C1005  C124    1.420   1_556 S
C1007  H1040   1.112   .     S
C1007  C1024   1.517   .     S
C1007  H1039   1.111   .     S
C1007  C1008   1.537   .     S
C1008  H1036   1.107   .     S
C1008  C1009   1.526   .     S
C1008  H1037   1.108   .     S
C1009  H1033   1.111   .     S
C1009  H1034   1.110   .     S
C1009  H1035   1.111   .     S
C1010  H1047   1.113   .     S
C1010  H1046   1.105   .     S
C1010  C1011   1.535   .     S
C1011  H1045   1.112   .     S
C1011  C1012   1.527   .     S
C1011  H1044   1.111   .     S
C1012  H1041   1.109   .     S
C1012  H1043   1.110   .     S
C1012  H1042   1.110   .     S
C1013  H1055   1.108   .     S
C1013  C1015   1.542   .     S
C1013  H1054   1.090   .     S
C1014  C1021   1.388   .     A
C1014  H1028   1.075   .     S
C1015  C1016   1.530   .     S
C1015  H1052   1.107   .     S
C1015  H1053   1.109   .     S
C1016  H1051   1.108   .     S
C1016  H1050   1.111   .     S
C1016  H1048   1.110   .     S
C1017  C1018   1.541   .     S
C1017  H1062   1.088   .     S
C1017  H1063   1.112   .     S
C1018  C1019   1.528   .     S
C1018  H1059   1.110   .     S
C1018  H1061   1.107   .     S
C1019  H1057   1.110   .     S
C1019  H1058   1.110   .     S
C1019  H1056   1.110   .     S
C1020  H1027   1.083   .     S
C1021  H1038   1.084   .     S
C1021  C122    1.392   1_556 S
C1022  H1029   1.079   .     S
C1022  C1082   1.397   .     S
C1022  C1612   1.391   1_545 S
C1023  H1030   1.083   .     S
C1023  C1276   1.394   .     S
C1024  C1316   1.391   .     S
C1024  C1081   1.412   .     S
Cu1025 N1069   2.031   .     S
Cu1025 O1074   1.964   .     S
Cu1025 O1075   1.961   .     S
Cu1025 O1078   1.957   .     S
Cu1025 O1071   1.954   .     S
Cu1026 O1072   1.954   .     S
Cu1026 O1076   1.961   .     S
Cu1026 O1077   1.957   .     S
Cu1026 N1070   2.031   .     S
Cu1026 O1073   1.964   .     S
Cu1026 Cu1123  2.702   .     S
H1064  C1095   1.083   .     S
O1072  C1090   1.292   .     S
O1073  C1079   1.304   .     S
O1076  C1088   1.301   .     S
C1079  O1169   1.292   .     A
C1079  C1082   1.449   .     S
C1080  C1082   1.417   .     A
C1080  C1108   1.520   .     S
C1080  C1709   1.394   1_545 S
C1081  C1121   1.395   .     A
C1081  C1090   1.446   .     S
C1083  C1111   1.516   .     S
C1083  C1085   1.420   .     A
C1083  N1168   1.400   .     A
C1084  C1086   1.424   .     A
C1084  C1115   1.523   .     S
C1084  N1167   1.400   .     A
C1085  N1167   1.345   .     A
C1085  H1129   1.080   .     S
C1086  H1130   1.078   .     S
C1086  N1168   1.349   .     A
C1087  C1089   1.467   .     S
C1087  O1175   1.304   .     A
C1087  O977    1.301   1_655 S
C1088  O1176   1.304   .     A
C1088  C1091   1.466   .     S
C1089  C1096   1.398   .     A
C1089  C1094   1.401   .     A
C1090  O1172   1.302   .     A
C1091  C1097   1.395   .     A
C1091  C1095   1.401   .     A
C1092  C1094   1.391   .     A
C1092  C1100   1.402   .     A
C1092  H968    1.083   1_655 S
C1093  C1102   1.402   .     A
C1093  H1165   1.083   .     S
C1093  C1095   1.393   .     A
C1094  H967    1.083   1_655 S
C1096  H1158   1.074   .     S
C1096  C1098   1.404   .     A
C1097  C1099   1.404   .     A
C1097  H1147   1.076   .     S
C1098  C1100   1.419   .     A
C1098  C1103   1.424   .     A
C1099  C1104   1.421   .     A
C1099  C1102   1.416   .     A
C1100  C236    1.391   1_556 S
C1101  C1118   1.385   .     A
C1101  C1104   1.413   .     A
C1101  H1166   1.075   .     S
C1103  C1112   1.415   .     A
C1103  C222    1.420   1_556 S
C1105  H1138   1.112   .     S
C1105  C1122   1.517   .     S
C1105  H1137   1.111   .     S
C1105  C1106   1.537   .     S
C1106  H1134   1.107   .     S
C1106  C1107   1.526   .     S
C1106  H1135   1.108   .     S
C1107  H1131   1.111   .     S
C1107  H1132   1.110   .     S
C1107  H1133   1.111   .     S
C1108  H1145   1.113   .     S
C1108  H1144   1.105   .     S
C1108  C1109   1.535   .     S
C1109  H1143   1.112   .     S
C1109  C1110   1.527   .     S
C1109  H1142   1.111   .     S
C1110  H1139   1.109   .     S
C1110  H1141   1.110   .     S
C1110  H1140   1.110   .     S
C1111  H1153   1.108   .     S
C1111  C1113   1.542   .     S
C1111  H1152   1.090   .     S
C1112  C1119   1.388   .     A
C1112  H1126   1.075   .     S
C1113  C1114   1.530   .     S
C1113  H1150   1.107   .     S
C1113  H1151   1.109   .     S
C1114  H1149   1.108   .     S
C1114  H1148   1.111   .     S
C1114  H1146   1.110   .     S
C1115  C1116   1.541   .     S
C1115  H1160   1.088   .     S
C1115  H1161   1.112   .     S
C1116  C1117   1.528   .     S
C1116  H1157   1.110   .     S
C1116  H1159   1.107   .     S
C1117  H1155   1.110   .     S
C1117  H1156   1.110   .     S
C1117  H1154   1.110   .     S
C1118  H1125   1.083   .     S
C1119  H1136   1.084   .     S
C1119  C220    1.392   1_556 S
C1120  H1127   1.079   .     S
C1120  C886    1.397   1_655 S
C1120  C1710   1.391   1_545 S
C1121  H1128   1.083   .     S
C1121  C1374   1.394   .     S
C1122  C1414   1.391   .     S
C1122  C885    1.412   1_655 S
Cu1123 N1167   2.031   .     S
Cu1123 O1172   1.964   .     S
Cu1123 O1173   1.961   .     S
Cu1123 O1176   1.957   .     S
Cu1123 O1169   1.954   .     S
Cu1124 O1170   1.954   .     S
Cu1124 O1174   1.961   .     S
Cu1124 O1175   1.957   .     S
Cu1124 N1168   2.031   .     S
Cu1124 O1171   1.964   .     S
Cu1124 Cu927   2.702   1_655 S
H1162  C899    1.083   1_655 S
O1170  C894    1.292   1_655 S
O1171  C883    1.304   1_655 S
O1174  C892    1.301   1_655 S
C1177  O1267   1.292   .     A
C1177  C1180   1.449   .     S
C1177  O1465   1.304   1_455 S
C1178  C1180   1.417   .     A
C1178  C1206   1.520   .     S
C1179  C1219   1.395   .     A
C1179  C1188   1.446   .     S
C1179  C1416   1.412   1_455 S
C1180  C1414   1.397   1_455 S
C1181  C1209   1.516   .     S
C1181  C1183   1.420   .     A
C1181  N1266   1.400   .     A
C1182  C1184   1.424   .     A
C1182  C1213   1.523   .     S
C1182  N1265   1.400   .     A
C1183  N1265   1.345   .     A
C1183  H1227   1.080   .     S
C1184  H1228   1.078   .     S
C1184  N1266   1.349   .     A
C1185  C1187   1.467   .     S
C1185  O1273   1.304   .     A
C1185  O1369   1.301   .     S
C1186  O1274   1.304   .     A
C1186  C1189   1.466   .     S
C1186  O1468   1.301   1_455 S
C1187  C1194   1.398   .     A
C1187  C1192   1.401   .     A
C1188  O1270   1.302   .     A
C1188  O1464   1.292   1_455 S
C1189  C1195   1.395   .     A
C1189  C1193   1.401   .     A
C1190  C1192   1.391   .     A
C1190  C1198   1.402   .     A
C1190  H1360   1.083   .     S
C1191  C1200   1.402   .     A
C1191  H1263   1.083   .     S
C1191  C1193   1.393   .     A
C1192  H1359   1.083   .     S
C1193  H1456   1.083   1_455 S
C1194  H1256   1.074   .     S
C1194  C1196   1.404   .     A
C1195  C1197   1.404   .     A
C1195  H1245   1.076   .     S
C1196  C1198   1.419   .     A
C1196  C1201   1.424   .     A
C1197  C1202   1.421   .     A
C1197  C1200   1.416   .     A
C1198  C334    1.391   1_556 S
C1199  C1216   1.385   .     A
C1199  C1202   1.413   .     A
C1199  H1264   1.075   .     S
C1201  C1210   1.415   .     A
C1201  C320    1.420   1_556 S
C1203  H1236   1.112   .     S
C1203  C1220   1.517   .     S
C1203  H1235   1.111   .     S
C1203  C1204   1.537   .     S
C1204  H1232   1.107   .     S
C1204  C1205   1.526   .     S
C1204  H1233   1.108   .     S
C1205  H1229   1.111   .     S
C1205  H1230   1.110   .     S
C1205  H1231   1.111   .     S
C1206  H1243   1.113   .     S
C1206  H1242   1.105   .     S
C1206  C1207   1.535   .     S
C1207  H1241   1.112   .     S
C1207  C1208   1.527   .     S
C1207  H1240   1.111   .     S
C1208  H1237   1.109   .     S
C1208  H1239   1.110   .     S
C1208  H1238   1.110   .     S
C1209  H1251   1.108   .     S
C1209  C1211   1.542   .     S
C1209  H1250   1.090   .     S
C1210  C1217   1.388   .     A
C1210  H1224   1.075   .     S
C1211  C1212   1.530   .     S
C1211  H1248   1.107   .     S
C1211  H1249   1.109   .     S
C1212  H1247   1.108   .     S
C1212  H1246   1.111   .     S
C1212  H1244   1.110   .     S
C1213  C1214   1.541   .     S
C1213  H1258   1.088   .     S
C1213  H1259   1.112   .     S
C1214  C1215   1.528   .     S
C1214  H1255   1.110   .     S
C1214  H1257   1.107   .     S
C1215  H1253   1.110   .     S
C1215  H1254   1.110   .     S
C1215  H1252   1.110   .     S
C1216  H1223   1.083   .     S
C1217  H1234   1.084   .     S
C1217  C318    1.392   1_556 S
C1218  H1225   1.079   .     S
C1218  C1278   1.397   .     S
C1219  H1226   1.083   .     S
C1219  C1472   1.394   .     S
C1220  C1512   1.391   .     S
C1220  C1277   1.412   .     S
Cu1221 N1265   2.031   .     S
Cu1221 O1270   1.964   .     S
Cu1221 O1271   1.961   .     S
Cu1221 O1274   1.957   .     S
Cu1221 O1267   1.954   .     S
Cu1221 Cu1418  2.702   1_455 S
Cu1222 O1268   1.954   .     S
Cu1222 O1272   1.961   .     S
Cu1222 O1273   1.957   .     S
Cu1222 N1266   2.031   .     S
Cu1222 O1269   1.964   .     S
Cu1222 Cu1319  2.702   .     S
H1260  C1291   1.083   .     S
H1261  C1388   1.083   1_455 S
H1262  C1386   1.083   1_455 S
O1268  C1286   1.292   .     S
O1269  C1275   1.304   .     S
O1271  C1381   1.301   1_455 S
O1272  C1284   1.301   .     S
C1275  O1365   1.292   .     A
C1275  C1278   1.449   .     S
C1276  C1278   1.417   .     A
C1276  C1304   1.520   .     S
C1277  C1317   1.395   .     A
C1277  C1286   1.446   .     S
C1279  C1307   1.516   .     S
C1279  C1281   1.420   .     A
C1279  N1364   1.400   .     A
C1280  C1282   1.424   .     A
C1280  C1311   1.523   .     S
C1280  N1363   1.400   .     A
C1281  N1363   1.345   .     A
C1281  H1325   1.080   .     S
C1282  H1326   1.078   .     S
C1282  N1364   1.349   .     A
C1283  C1285   1.467   .     S
C1283  O1371   1.304   .     A
C1283  O1467   1.301   .     S
C1284  O1372   1.304   .     A
C1284  C1287   1.466   .     S
C1285  C1292   1.398   .     A
C1285  C1290   1.401   .     A
C1286  O1368   1.302   .     A
C1287  C1293   1.395   .     A
C1287  C1291   1.401   .     A
C1288  C1290   1.391   .     A
C1288  C1296   1.402   .     A
C1288  H1458   1.083   .     S
C1289  C1298   1.402   .     A
C1289  H1361   1.083   .     S
C1289  C1291   1.393   .     A
C1290  H1457   1.083   .     S
C1292  H1354   1.074   .     S
C1292  C1294   1.404   .     A
C1293  C1295   1.404   .     A
C1293  H1343   1.076   .     S
C1294  C1296   1.419   .     A
C1294  C1299   1.424   .     A
C1295  C1300   1.421   .     A
C1295  C1298   1.416   .     A
C1296  C432    1.391   1_556 S
C1297  C1314   1.385   .     A
C1297  C1300   1.413   .     A
C1297  H1362   1.075   .     S
C1299  C1308   1.415   .     A
C1299  C418    1.420   1_556 S
C1301  H1334   1.112   .     S
C1301  C1318   1.517   .     S
C1301  H1333   1.111   .     S
C1301  C1302   1.537   .     S
C1302  H1330   1.107   .     S
C1302  C1303   1.526   .     S
C1302  H1331   1.108   .     S
C1303  H1327   1.111   .     S
C1303  H1328   1.110   .     S
C1303  H1329   1.111   .     S
C1304  H1341   1.113   .     S
C1304  H1340   1.105   .     S
C1304  C1305   1.535   .     S
C1305  H1339   1.112   .     S
C1305  C1306   1.527   .     S
C1305  H1338   1.111   .     S
C1306  H1335   1.109   .     S
C1306  H1337   1.110   .     S
C1306  H1336   1.110   .     S
C1307  H1349   1.108   .     S
C1307  C1309   1.542   .     S
C1307  H1348   1.090   .     S
C1308  C1315   1.388   .     A
C1308  H1322   1.075   .     S
C1309  C1310   1.530   .     S
C1309  H1346   1.107   .     S
C1309  H1347   1.109   .     S
C1310  H1345   1.108   .     S
C1310  H1344   1.111   .     S
C1310  H1342   1.110   .     S
C1311  C1312   1.541   .     S
C1311  H1356   1.088   .     S
C1311  H1357   1.112   .     S
C1312  C1313   1.528   .     S
C1312  H1353   1.110   .     S
C1312  H1355   1.107   .     S
C1313  H1351   1.110   .     S
C1313  H1352   1.110   .     S
C1313  H1350   1.110   .     S
C1314  H1321   1.083   .     S
C1315  H1332   1.084   .     S
C1315  C416    1.392   1_556 S
C1316  H1323   1.079   .     S
C1316  C1376   1.397   .     S
C1317  H1324   1.083   .     S
C1317  C1570   1.394   .     S
C1318  C1610   1.391   .     S
C1318  C1375   1.412   .     S
Cu1319 N1363   2.031   .     S
Cu1319 O1368   1.964   .     S
Cu1319 O1369   1.961   .     S
Cu1319 O1372   1.957   .     S
Cu1319 O1365   1.954   .     S
Cu1320 O1366   1.954   .     S
Cu1320 O1370   1.961   .     S
Cu1320 O1371   1.957   .     S
Cu1320 N1364   2.031   .     S
Cu1320 O1367   1.964   .     S
Cu1320 Cu1417  2.702   .     S
H1358  C1389   1.083   .     S
O1366  C1384   1.292   .     S
O1367  C1373   1.304   .     S
O1370  C1382   1.301   .     S
C1373  O1463   1.292   .     A
C1373  C1376   1.449   .     S
C1374  C1376   1.417   .     A
C1374  C1402   1.520   .     S
C1375  C1415   1.395   .     A
C1375  C1384   1.446   .     S
C1377  C1405   1.516   .     S
C1377  C1379   1.420   .     A
C1377  N1462   1.400   .     A
C1378  C1380   1.424   .     A
C1378  C1409   1.523   .     S
C1378  N1461   1.400   .     A
C1379  N1461   1.345   .     A
C1379  H1423   1.080   .     S
C1380  H1424   1.078   .     S
C1380  N1462   1.349   .     A
C1381  C1383   1.467   .     S
C1381  O1469   1.304   .     A
C1381  O1271   1.301   1_655 S
C1382  O1470   1.304   .     A
C1382  C1385   1.466   .     S
C1383  C1390   1.398   .     A
C1383  C1388   1.401   .     A
C1384  O1466   1.302   .     A
C1385  C1391   1.395   .     A
C1385  C1389   1.401   .     A
C1386  C1388   1.391   .     A
C1386  C1394   1.402   .     A
C1386  H1262   1.083   1_655 S
C1387  C1396   1.402   .     A
C1387  H1459   1.083   .     S
C1387  C1389   1.393   .     A
C1388  H1261   1.083   1_655 S
C1390  H1452   1.074   .     S
C1390  C1392   1.404   .     A
C1391  C1393   1.404   .     A
C1391  H1441   1.076   .     S
C1392  C1394   1.419   .     A
C1392  C1397   1.424   .     A
C1393  C1398   1.421   .     A
C1393  C1396   1.416   .     A
C1394  C530    1.391   1_556 S
C1395  C1412   1.385   .     A
C1395  C1398   1.413   .     A
C1395  H1460   1.075   .     S
C1397  C1406   1.415   .     A
C1397  C516    1.420   1_556 S
C1399  H1432   1.112   .     S
C1399  C1416   1.517   .     S
C1399  H1431   1.111   .     S
C1399  C1400   1.537   .     S
C1400  H1428   1.107   .     S
C1400  C1401   1.526   .     S
C1400  H1429   1.108   .     S
C1401  H1425   1.111   .     S
C1401  H1426   1.110   .     S
C1401  H1427   1.111   .     S
C1402  H1439   1.113   .     S
C1402  H1438   1.105   .     S
C1402  C1403   1.535   .     S
C1403  H1437   1.112   .     S
C1403  C1404   1.527   .     S
C1403  H1436   1.111   .     S
C1404  H1433   1.109   .     S
C1404  H1435   1.110   .     S
C1404  H1434   1.110   .     S
C1405  H1447   1.108   .     S
C1405  C1407   1.542   .     S
C1405  H1446   1.090   .     S
C1406  C1413   1.388   .     A
C1406  H1420   1.075   .     S
C1407  C1408   1.530   .     S
C1407  H1444   1.107   .     S
C1407  H1445   1.109   .     S
C1408  H1443   1.108   .     S
C1408  H1442   1.111   .     S
C1408  H1440   1.110   .     S
C1409  C1410   1.541   .     S
C1409  H1454   1.088   .     S
C1409  H1455   1.112   .     S
C1410  C1411   1.528   .     S
C1410  H1451   1.110   .     S
C1410  H1453   1.107   .     S
C1411  H1449   1.110   .     S
C1411  H1450   1.110   .     S
C1411  H1448   1.110   .     S
C1412  H1419   1.083   .     S
C1413  H1430   1.084   .     S
C1413  C514    1.392   1_556 S
C1414  H1421   1.079   .     S
C1414  C1180   1.397   1_655 S
C1415  H1422   1.083   .     S
C1415  C1668   1.394   .     S
C1416  C1708   1.391   .     S
C1416  C1179   1.412   1_655 S
Cu1417 N1461   2.031   .     S
Cu1417 O1466   1.964   .     S
Cu1417 O1467   1.961   .     S
Cu1417 O1470   1.957   .     S
Cu1417 O1463   1.954   .     S
Cu1418 O1464   1.954   .     S
Cu1418 O1468   1.961   .     S
Cu1418 O1469   1.957   .     S
Cu1418 N1462   2.031   .     S
Cu1418 O1465   1.964   .     S
Cu1418 Cu1221  2.702   1_655 S
H1456  C1193   1.083   1_655 S
O1464  C1188   1.292   1_655 S
O1465  C1177   1.304   1_655 S
O1468  C1186   1.301   1_655 S
C1471  O1561   1.292   .     A
C1471  C1474   1.449   .     S
C1471  O1759   1.304   1_455 S
C1472  C1474   1.417   .     A
C1472  C1500   1.520   .     S
C1473  C1513   1.395   .     A
C1473  C1482   1.446   .     S
C1473  C1710   1.412   1_455 S
C1474  C1708   1.397   1_455 S
C1475  C1503   1.516   .     S
C1475  C1477   1.420   .     A
C1475  N1560   1.400   .     A
C1476  C1478   1.424   .     A
C1476  C1507   1.523   .     S
C1476  N1559   1.400   .     A
C1477  N1559   1.345   .     A
C1477  H1521   1.080   .     S
C1478  H1522   1.078   .     S
C1478  N1560   1.349   .     A
C1479  C1481   1.467   .     S
C1479  O1567   1.304   .     A
C1479  O1663   1.301   .     S
C1480  O1568   1.304   .     A
C1480  C1483   1.466   .     S
C1480  O1762   1.301   1_455 S
C1481  C1488   1.398   .     A
C1481  C1486   1.401   .     A
C1482  O1564   1.302   .     A
C1482  O1758   1.292   1_455 S
C1483  C1489   1.395   .     A
C1483  C1487   1.401   .     A
C1484  C1486   1.391   .     A
C1484  C1492   1.402   .     A
C1484  H1654   1.083   .     S
C1485  C1494   1.402   .     A
C1485  H1557   1.083   .     S
C1485  C1487   1.393   .     A
C1486  H1653   1.083   .     S
C1487  H1750   1.083   1_455 S
C1488  H1550   1.074   .     S
C1488  C1490   1.404   .     A
C1489  C1491   1.404   .     A
C1489  H1539   1.076   .     S
C1490  C1492   1.419   .     A
C1490  C1495   1.424   .     A
C1491  C1496   1.421   .     A
C1491  C1494   1.416   .     A
C1492  C628    1.391   1_556 S
C1493  C1510   1.385   .     A
C1493  C1496   1.413   .     A
C1493  H1558   1.075   .     S
C1495  C1504   1.415   .     A
C1495  C614    1.420   1_556 S
C1497  H1530   1.112   .     S
C1497  C1514   1.517   .     S
C1497  H1529   1.111   .     S
C1497  C1498   1.537   .     S
C1498  H1526   1.107   .     S
C1498  C1499   1.526   .     S
C1498  H1527   1.108   .     S
C1499  H1523   1.111   .     S
C1499  H1524   1.110   .     S
C1499  H1525   1.111   .     S
C1500  H1537   1.113   .     S
C1500  H1536   1.105   .     S
C1500  C1501   1.535   .     S
C1501  H1535   1.112   .     S
C1501  C1502   1.527   .     S
C1501  H1534   1.111   .     S
C1502  H1531   1.109   .     S
C1502  H1533   1.110   .     S
C1502  H1532   1.110   .     S
C1503  H1545   1.108   .     S
C1503  C1505   1.542   .     S
C1503  H1544   1.090   .     S
C1504  C1511   1.388   .     A
C1504  H1518   1.075   .     S
C1505  C1506   1.530   .     S
C1505  H1542   1.107   .     S
C1505  H1543   1.109   .     S
C1506  H1541   1.108   .     S
C1506  H1540   1.111   .     S
C1506  H1538   1.110   .     S
C1507  C1508   1.541   .     S
C1507  H1552   1.088   .     S
C1507  H1553   1.112   .     S
C1508  C1509   1.528   .     S
C1508  H1549   1.110   .     S
C1508  H1551   1.107   .     S
C1509  H1547   1.110   .     S
C1509  H1548   1.110   .     S
C1509  H1546   1.110   .     S
C1510  H1517   1.083   .     S
C1511  H1528   1.084   .     S
C1511  C612    1.392   1_556 S
C1512  H1519   1.079   .     S
C1512  C1572   1.397   .     S
C1513  H1520   1.083   .     S
C1513  C884    1.394   1_565 S
C1514  C924    1.391   1_565 S
C1514  C1571   1.412   .     S
Cu1515 N1559   2.031   .     S
Cu1515 O1564   1.964   .     S
Cu1515 O1565   1.961   .     S
Cu1515 O1568   1.957   .     S
Cu1515 O1561   1.954   .     S
Cu1515 Cu1712  2.702   1_455 S
Cu1516 O1562   1.954   .     S
Cu1516 O1566   1.961   .     S
Cu1516 O1567   1.957   .     S
Cu1516 N1560   2.031   .     S
Cu1516 O1563   1.964   .     S
Cu1516 Cu1613  2.702   .     S
H1554  C1585   1.083   .     S
H1555  C1682   1.083   1_455 S
H1556  C1680   1.083   1_455 S
O1562  C1580   1.292   .     S
O1563  C1569   1.304   .     S
O1565  C1675   1.301   1_455 S
O1566  C1578   1.301   .     S
C1569  O1659   1.292   .     A
C1569  C1572   1.449   .     S
C1570  C1572   1.417   .     A
C1570  C1598   1.520   .     S
C1571  C1611   1.395   .     A
C1571  C1580   1.446   .     S
C1573  C1601   1.516   .     S
C1573  C1575   1.420   .     A
C1573  N1658   1.400   .     A
C1574  C1576   1.424   .     A
C1574  C1605   1.523   .     S
C1574  N1657   1.400   .     A
C1575  N1657   1.345   .     A
C1575  H1619   1.080   .     S
C1576  H1620   1.078   .     S
C1576  N1658   1.349   .     A
C1577  C1579   1.467   .     S
C1577  O1665   1.304   .     A
C1577  O1761   1.301   .     S
C1578  O1666   1.304   .     A
C1578  C1581   1.466   .     S
C1579  C1586   1.398   .     A
C1579  C1584   1.401   .     A
C1580  O1662   1.302   .     A
C1581  C1587   1.395   .     A
C1581  C1585   1.401   .     A
C1582  C1584   1.391   .     A
C1582  C1590   1.402   .     A
C1582  H1752   1.083   .     S
C1583  C1592   1.402   .     A
C1583  H1655   1.083   .     S
C1583  C1585   1.393   .     A
C1584  H1751   1.083   .     S
C1586  H1648   1.074   .     S
C1586  C1588   1.404   .     A
C1587  C1589   1.404   .     A
C1587  H1637   1.076   .     S
C1588  C1590   1.419   .     A
C1588  C1593   1.424   .     A
C1589  C1594   1.421   .     A
C1589  C1592   1.416   .     A
C1590  C726    1.391   1_556 S
C1591  C1608   1.385   .     A
C1591  C1594   1.413   .     A
C1591  H1656   1.075   .     S
C1593  C1602   1.415   .     A
C1593  C712    1.420   1_556 S
C1595  H1628   1.112   .     S
C1595  C1612   1.517   .     S
C1595  H1627   1.111   .     S
C1595  C1596   1.537   .     S
C1596  H1624   1.107   .     S
C1596  C1597   1.526   .     S
C1596  H1625   1.108   .     S
C1597  H1621   1.111   .     S
C1597  H1622   1.110   .     S
C1597  H1623   1.111   .     S
C1598  H1635   1.113   .     S
C1598  H1634   1.105   .     S
C1598  C1599   1.535   .     S
C1599  H1633   1.112   .     S
C1599  C1600   1.527   .     S
C1599  H1632   1.111   .     S
C1600  H1629   1.109   .     S
C1600  H1631   1.110   .     S
C1600  H1630   1.110   .     S
C1601  H1643   1.108   .     S
C1601  C1603   1.542   .     S
C1601  H1642   1.090   .     S
C1602  C1609   1.388   .     A
C1602  H1616   1.075   .     S
C1603  C1604   1.530   .     S
C1603  H1640   1.107   .     S
C1603  H1641   1.109   .     S
C1604  H1639   1.108   .     S
C1604  H1638   1.111   .     S
C1604  H1636   1.110   .     S
C1605  C1606   1.541   .     S
C1605  H1650   1.088   .     S
C1605  H1651   1.112   .     S
C1606  C1607   1.528   .     S
C1606  H1647   1.110   .     S
C1606  H1649   1.107   .     S
C1607  H1645   1.110   .     S
C1607  H1646   1.110   .     S
C1607  H1644   1.110   .     S
C1608  H1615   1.083   .     S
C1609  H1626   1.084   .     S
C1609  C710    1.392   1_556 S
C1610  H1617   1.079   .     S
C1610  C1670   1.397   .     S
C1611  H1618   1.083   .     S
C1611  C982    1.394   1_565 S
C1612  C1022   1.391   1_565 S
C1612  C1669   1.412   .     S
Cu1613 N1657   2.031   .     S
Cu1613 O1662   1.964   .     S
Cu1613 O1663   1.961   .     S
Cu1613 O1666   1.957   .     S
Cu1613 O1659   1.954   .     S
Cu1614 O1660   1.954   .     S
Cu1614 O1664   1.961   .     S
Cu1614 O1665   1.957   .     S
Cu1614 N1658   2.031   .     S
Cu1614 O1661   1.964   .     S
Cu1614 Cu1711  2.702   .     S
H1652  C1683   1.083   .     S
O1660  C1678   1.292   .     S
O1661  C1667   1.304   .     S
O1664  C1676   1.301   .     S
C1667  O1757   1.292   .     A
C1667  C1670   1.449   .     S
C1668  C1670   1.417   .     A
C1668  C1696   1.520   .     S
C1669  C1709   1.395   .     A
C1669  C1678   1.446   .     S
C1671  C1699   1.516   .     S
C1671  C1673   1.420   .     A
C1671  N1756   1.400   .     A
C1672  C1674   1.424   .     A
C1672  C1703   1.523   .     S
C1672  N1755   1.400   .     A
C1673  N1755   1.345   .     A
C1673  H1717   1.080   .     S
C1674  H1718   1.078   .     S
C1674  N1756   1.349   .     A
C1675  C1677   1.467   .     S
C1675  O1763   1.304   .     A
C1675  O1565   1.301   1_655 S
C1676  O1764   1.304   .     A
C1676  C1679   1.466   .     S
C1677  C1684   1.398   .     A
C1677  C1682   1.401   .     A
C1678  O1760   1.302   .     A
C1679  C1685   1.395   .     A
C1679  C1683   1.401   .     A
C1680  C1682   1.391   .     A
C1680  C1688   1.402   .     A
C1680  H1556   1.083   1_655 S
C1681  C1690   1.402   .     A
C1681  H1753   1.083   .     S
C1681  C1683   1.393   .     A
C1682  H1555   1.083   1_655 S
C1684  H1746   1.074   .     S
C1684  C1686   1.404   .     A
C1685  C1687   1.404   .     A
C1685  H1735   1.076   .     S
C1686  C1688   1.419   .     A
C1686  C1691   1.424   .     A
C1687  C1692   1.421   .     A
C1687  C1690   1.416   .     A
C1688  C824    1.391   1_556 S
C1689  C1706   1.385   .     A
C1689  C1692   1.413   .     A
C1689  H1754   1.075   .     S
C1691  C1700   1.415   .     A
C1691  C810    1.420   1_556 S
C1693  H1726   1.112   .     S
C1693  C1710   1.517   .     S
C1693  H1725   1.111   .     S
C1693  C1694   1.537   .     S
C1694  H1722   1.107   .     S
C1694  C1695   1.526   .     S
C1694  H1723   1.108   .     S
C1695  H1719   1.111   .     S
C1695  H1720   1.110   .     S
C1695  H1721   1.111   .     S
C1696  H1733   1.113   .     S
C1696  H1732   1.105   .     S
C1696  C1697   1.535   .     S
C1697  H1731   1.112   .     S
C1697  C1698   1.527   .     S
C1697  H1730   1.111   .     S
C1698  H1727   1.109   .     S
C1698  H1729   1.110   .     S
C1698  H1728   1.110   .     S
C1699  H1741   1.108   .     S
C1699  C1701   1.542   .     S
C1699  H1740   1.090   .     S
C1700  C1707   1.388   .     A
C1700  H1714   1.075   .     S
C1701  C1702   1.530   .     S
C1701  H1738   1.107   .     S
C1701  H1739   1.109   .     S
C1702  H1737   1.108   .     S
C1702  H1736   1.111   .     S
C1702  H1734   1.110   .     S
C1703  C1704   1.541   .     S
C1703  H1748   1.088   .     S
C1703  H1749   1.112   .     S
C1704  C1705   1.528   .     S
C1704  H1745   1.110   .     S
C1704  H1747   1.107   .     S
C1705  H1743   1.110   .     S
C1705  H1744   1.110   .     S
C1705  H1742   1.110   .     S
C1706  H1713   1.083   .     S
C1707  H1724   1.084   .     S
C1707  C808    1.392   1_556 S
C1708  H1715   1.079   .     S
C1708  C1474   1.397   1_655 S
C1709  H1716   1.083   .     S
C1709  C1080   1.394   1_565 S
C1710  C1120   1.391   1_565 S
C1710  C1473   1.412   1_655 S
Cu1711 N1755   2.031   .     S
Cu1711 O1760   1.964   .     S
Cu1711 O1761   1.961   .     S
Cu1711 O1764   1.957   .     S
Cu1711 O1757   1.954   .     S
Cu1712 O1758   1.954   .     S
Cu1712 O1762   1.961   .     S
Cu1712 O1763   1.957   .     S
Cu1712 N1756   2.031   .     S
Cu1712 O1759   1.964   .     S
Cu1712 Cu1515  2.702   1_655 S
H1750  C1487   1.083   1_655 S
O1758  C1482   1.292   1_655 S
O1759  C1471   1.304   1_655 S
O1762  C1480   1.301   1_655 S
