data_str_m2_o1_o16_pcu_sym.67
_audit_creation_date              2020-01-03
_audit_creation_method            'Materials Studio'
_symmetry_space_group_name_H-M    'P1'
_symmetry_Int_Tables_number       1
_symmetry_cell_setting            triclinic
loop_
_symmetry_equiv_pos_as_xyz
  x,y,z
_cell_length_a                    28.5574
_cell_length_b                    32.3324
_cell_length_c                    26.9923
_cell_angle_alpha                 90.0969
_cell_angle_beta                  73.3900
_cell_angle_gamma                 89.9004
loop_
_atom_site_label
_atom_site_type_symbol
_atom_site_fract_x
_atom_site_fract_y
_atom_site_fract_z
_atom_site_U_iso_or_equiv
_atom_site_adp_type
_atom_site_occupancy
C1     C     0.16688   0.24582   0.24905   0.00000  Uiso   1.00
C2     C     0.12858   0.15152   0.40519   0.00000  Uiso   1.00
C3     C     0.19937   0.31157   0.20525   0.00000  Uiso   1.00
C4     C     0.14138   0.16196   0.34945   0.00000  Uiso   1.00
C5     C     0.19787   0.02186   0.20505   0.00000  Uiso   1.00
C6     C     0.16732   0.04276   0.24863   0.00000  Uiso   1.00
C7     C     0.13600   0.02092   0.29031   0.00000  Uiso   1.00
C8     C     0.13558   0.31135   0.28800   0.00000  Uiso   1.00
C9     C     0.16727   0.29036   0.24680   0.00000  Uiso   1.00
C10    C     0.29921   0.19044   0.28440   0.00000  Uiso   1.00
C11    C     0.01546   0.19036   0.28447   0.00000  Uiso   1.00
C12    C     0.14911   0.14969   0.48768   0.00000  Uiso   1.00
C13    C     0.03413   0.14291   0.21557   0.00000  Uiso   1.00
C14    C     0.31785   0.14291   0.21560   0.00000  Uiso   1.00
C15    C     0.16682   0.08749   0.24961   0.00000  Uiso   1.00
C16    C     0.19248   0.16715   0.15031   0.00000  Uiso   1.00
C17    C     0.26632   0.18379   0.01221   0.00000  Uiso   1.00
C18    C     0.20691   0.16823   0.09405   0.00000  Uiso   1.00
C19    C     0.07948   0.14433   0.43181   0.00000  Uiso   1.00
C20    C     0.06534   0.13829   0.48493   0.00000  Uiso   1.00
C21    C     0.09900   0.14274   0.01300   0.00000  Uiso   1.00
C22    C     0.22479   0.04586   0.15843   0.00000  Uiso   1.00
C23    C     0.16443   0.14962   0.43290   0.00000  Uiso   1.00
C24    C     0.10440   0.04231   0.33694   0.00000  Uiso   1.00
C25    C     0.31236   0.20515   0.48399   0.00000  Uiso   1.00
C26    C     0.23397   0.28764   0.16306   0.00000  Uiso   1.00
C27    C     0.18455   0.15772   0.01460   0.00000  Uiso   1.00
C28    C     0.23348   0.16765   0.48640   0.00000  Uiso   1.00
C29    C     0.24882   0.15889   0.43365   0.00000  Uiso   1.00
C30    C     0.21521   0.14738   0.40822   0.00000  Uiso   1.00
C31    C     0.17280   0.15690   0.06851   0.00000  Uiso   1.00
C32    C     0.25290   0.18270   0.06624   0.00000  Uiso   1.00
Cu33   Cu    0.11978   0.16666   0.25000   0.00000  Uiso   1.00
Cu34   Cu    0.21355   0.16667   0.25000   0.00000  Uiso   1.00
H35    H     0.27777   0.19404   0.08686   0.00000  Uiso   1.00
H36    H     0.02740   0.13217   0.00498   0.00000  Uiso   1.00
H37    H     0.23048   0.13572   0.36957   0.00000  Uiso   1.00
H38    H     0.24054   0.07571   0.16230   0.00000  Uiso   1.00
H39    H     0.10687   0.07541   0.34184   0.00000  Uiso   1.00
H40    H     0.32217   0.20937   0.44249   0.00000  Uiso   1.00
H41    H     0.13758   0.14657   0.09170   0.00000  Uiso   1.00
H42    H     0.22355   0.25762   0.15172   0.00000  Uiso   1.00
H43    H     0.11178   0.29382   0.31946   0.00000  Uiso   1.00
H44    H     0.27307   0.20951   0.31196   0.00000  Uiso   1.00
H45    H     0.02667   0.20935   0.31208   0.00000  Uiso   1.00
H46    H     0.06027   0.12383   0.18803   0.00000  Uiso   1.00
H47    H     0.30662   0.12385   0.18807   0.00000  Uiso   1.00
H48    H     0.28706   0.15896   0.41195   0.00000  Uiso   1.00
H49    H     0.05177   0.14350   0.41155   0.00000  Uiso   1.00
H50    H     0.08428   0.14086   0.05436   0.00000  Uiso   1.00
N51    N     0.04931   0.16666   0.24998   0.00000  Uiso   1.00
N52    N     0.28402   0.16669   0.24999   0.00000  Uiso   1.00
O53    O     0.12708   0.22678   0.25000   0.00000  Uiso   1.00
O54    O     0.07520   0.02303   0.37094   0.00000  Uiso   1.00
O55    O     0.00615   0.21974   0.00719   0.00000  Uiso   1.00
O56    O     0.27508   0.30039   0.14214   0.00000  Uiso   1.00
O57    O     0.20627   0.22679   0.25000   0.00000  Uiso   1.00
O58    O     0.10775   0.16665   0.32549   0.00000  Uiso   1.00
O59    O     0.18694   0.16666   0.32549   0.00000  Uiso   1.00
O60    O     0.12706   0.10654   0.24999   0.00000  Uiso   1.00
O61    O     0.20625   0.10655   0.25000   0.00000  Uiso   1.00
O62    O     0.14640   0.16667   0.17451   0.00000  Uiso   1.00
O63    O     0.22559   0.16668   0.17451   0.00000  Uiso   1.00
O64    O     0.22775   0.03325   0.11497   0.00000  Uiso   1.00
C65    C     0.50022   0.24582   0.24905   0.00000  Uiso   1.00
C66    C     0.46191   0.15152   0.40519   0.00000  Uiso   1.00
C67    C     0.53270   0.31157   0.20525   0.00000  Uiso   1.00
C68    C     0.47471   0.16196   0.34945   0.00000  Uiso   1.00
C69    C     0.53120   0.02186   0.20505   0.00000  Uiso   1.00
C70    C     0.50065   0.04276   0.24863   0.00000  Uiso   1.00
C71    C     0.46934   0.02092   0.29031   0.00000  Uiso   1.00
C72    C     0.46892   0.31135   0.28800   0.00000  Uiso   1.00
C73    C     0.50060   0.29036   0.24680   0.00000  Uiso   1.00
C74    C     0.63255   0.19044   0.28440   0.00000  Uiso   1.00
C75    C     0.34880   0.19036   0.28447   0.00000  Uiso   1.00
C76    C     0.48245   0.14969   0.48768   0.00000  Uiso   1.00
C77    C     0.36746   0.14291   0.21557   0.00000  Uiso   1.00
C78    C     0.65118   0.14291   0.21560   0.00000  Uiso   1.00
C79    C     0.50015   0.08749   0.24961   0.00000  Uiso   1.00
C80    C     0.52582   0.16715   0.15031   0.00000  Uiso   1.00
C81    C     0.59965   0.18379   0.01221   0.00000  Uiso   1.00
C82    C     0.54024   0.16823   0.09405   0.00000  Uiso   1.00
C83    C     0.41281   0.14433   0.43181   0.00000  Uiso   1.00
C84    C     0.39868   0.13829   0.48493   0.00000  Uiso   1.00
C85    C     0.43233   0.14274   0.01300   0.00000  Uiso   1.00
C86    C     0.55812   0.04586   0.15843   0.00000  Uiso   1.00
C87    C     0.49777   0.14962   0.43290   0.00000  Uiso   1.00
C88    C     0.43774   0.04231   0.33694   0.00000  Uiso   1.00
C89    C     0.64569   0.20515   0.48399   0.00000  Uiso   1.00
C90    C     0.56730   0.28764   0.16306   0.00000  Uiso   1.00
C91    C     0.51788   0.15772   0.01460   0.00000  Uiso   1.00
C92    C     0.56682   0.16765   0.48640   0.00000  Uiso   1.00
C93    C     0.58215   0.15889   0.43365   0.00000  Uiso   1.00
C94    C     0.54854   0.14738   0.40822   0.00000  Uiso   1.00
C95    C     0.50614   0.15690   0.06851   0.00000  Uiso   1.00
C96    C     0.58623   0.18270   0.06624   0.00000  Uiso   1.00
Cu97   Cu    0.45311   0.16666   0.25000   0.00000  Uiso   1.00
Cu98   Cu    0.54689   0.16667   0.25000   0.00000  Uiso   1.00
H99    H     0.61110   0.19404   0.08686   0.00000  Uiso   1.00
H100   H     0.36073   0.13217   0.00498   0.00000  Uiso   1.00
H101   H     0.56381   0.13572   0.36957   0.00000  Uiso   1.00
H102   H     0.57388   0.07571   0.16230   0.00000  Uiso   1.00
H103   H     0.44021   0.07541   0.34184   0.00000  Uiso   1.00
H104   H     0.65550   0.20937   0.44249   0.00000  Uiso   1.00
H105   H     0.47091   0.14657   0.09170   0.00000  Uiso   1.00
H106   H     0.55688   0.25762   0.15172   0.00000  Uiso   1.00
H107   H     0.44512   0.29382   0.31946   0.00000  Uiso   1.00
H108   H     0.60641   0.20951   0.31196   0.00000  Uiso   1.00
H109   H     0.36000   0.20935   0.31208   0.00000  Uiso   1.00
H110   H     0.39360   0.12383   0.18803   0.00000  Uiso   1.00
H111   H     0.63995   0.12385   0.18807   0.00000  Uiso   1.00
H112   H     0.62040   0.15896   0.41195   0.00000  Uiso   1.00
H113   H     0.38510   0.14350   0.41155   0.00000  Uiso   1.00
H114   H     0.41762   0.14086   0.05436   0.00000  Uiso   1.00
N115   N     0.38265   0.16666   0.24998   0.00000  Uiso   1.00
N116   N     0.61735   0.16669   0.24999   0.00000  Uiso   1.00
O117   O     0.46042   0.22678   0.25000   0.00000  Uiso   1.00
O118   O     0.40854   0.02303   0.37094   0.00000  Uiso   1.00
O119   O     0.33949   0.21974   0.00719   0.00000  Uiso   1.00
O120   O     0.60841   0.30039   0.14214   0.00000  Uiso   1.00
O121   O     0.53961   0.22679   0.25000   0.00000  Uiso   1.00
O122   O     0.44108   0.16665   0.32549   0.00000  Uiso   1.00
O123   O     0.52027   0.16666   0.32549   0.00000  Uiso   1.00
O124   O     0.46039   0.10654   0.24999   0.00000  Uiso   1.00
O125   O     0.53958   0.10655   0.25000   0.00000  Uiso   1.00
O126   O     0.47973   0.16667   0.17451   0.00000  Uiso   1.00
O127   O     0.55892   0.16668   0.17451   0.00000  Uiso   1.00
O128   O     0.56109   0.03325   0.11497   0.00000  Uiso   1.00
C129   C     0.83355   0.24582   0.24905   0.00000  Uiso   1.00
C130   C     0.79525   0.15152   0.40519   0.00000  Uiso   1.00
C131   C     0.86604   0.31157   0.20525   0.00000  Uiso   1.00
C132   C     0.80804   0.16196   0.34945   0.00000  Uiso   1.00
C133   C     0.86454   0.02186   0.20505   0.00000  Uiso   1.00
C134   C     0.83399   0.04276   0.24863   0.00000  Uiso   1.00
C135   C     0.80267   0.02092   0.29031   0.00000  Uiso   1.00
C136   C     0.80225   0.31135   0.28800   0.00000  Uiso   1.00
C137   C     0.83393   0.29036   0.24680   0.00000  Uiso   1.00
C138   C     0.96588   0.19044   0.28440   0.00000  Uiso   1.00
C139   C     0.68213   0.19036   0.28447   0.00000  Uiso   1.00
C140   C     0.81578   0.14969   0.48768   0.00000  Uiso   1.00
C141   C     0.70079   0.14291   0.21557   0.00000  Uiso   1.00
C142   C     0.98451   0.14291   0.21560   0.00000  Uiso   1.00
C143   C     0.83349   0.08749   0.24961   0.00000  Uiso   1.00
C144   C     0.85915   0.16715   0.15031   0.00000  Uiso   1.00
C145   C     0.93299   0.18379   0.01221   0.00000  Uiso   1.00
C146   C     0.87358   0.16823   0.09405   0.00000  Uiso   1.00
C147   C     0.74614   0.14433   0.43181   0.00000  Uiso   1.00
C148   C     0.73201   0.13829   0.48493   0.00000  Uiso   1.00
C149   C     0.76566   0.14274   0.01300   0.00000  Uiso   1.00
C150   C     0.89146   0.04586   0.15843   0.00000  Uiso   1.00
C151   C     0.83110   0.14962   0.43290   0.00000  Uiso   1.00
C152   C     0.77107   0.04231   0.33694   0.00000  Uiso   1.00
C153   C     0.97903   0.20515   0.48399   0.00000  Uiso   1.00
C154   C     0.90063   0.28764   0.16306   0.00000  Uiso   1.00
C155   C     0.85121   0.15772   0.01460   0.00000  Uiso   1.00
C156   C     0.90015   0.16765   0.48640   0.00000  Uiso   1.00
C157   C     0.91548   0.15889   0.43365   0.00000  Uiso   1.00
C158   C     0.88187   0.14738   0.40822   0.00000  Uiso   1.00
C159   C     0.83947   0.15690   0.06851   0.00000  Uiso   1.00
C160   C     0.91956   0.18270   0.06624   0.00000  Uiso   1.00
Cu161  Cu    0.78645   0.16666   0.25000   0.00000  Uiso   1.00
Cu162  Cu    0.88022   0.16667   0.25000   0.00000  Uiso   1.00
H163   H     0.94443   0.19404   0.08686   0.00000  Uiso   1.00
H164   H     0.69407   0.13217   0.00498   0.00000  Uiso   1.00
H165   H     0.89715   0.13572   0.36957   0.00000  Uiso   1.00
H166   H     0.90721   0.07571   0.16230   0.00000  Uiso   1.00
H167   H     0.77354   0.07541   0.34184   0.00000  Uiso   1.00
H168   H     0.98883   0.20937   0.44249   0.00000  Uiso   1.00
H169   H     0.80425   0.14657   0.09170   0.00000  Uiso   1.00
H170   H     0.89021   0.25762   0.15172   0.00000  Uiso   1.00
H171   H     0.77845   0.29382   0.31946   0.00000  Uiso   1.00
H172   H     0.93974   0.20951   0.31196   0.00000  Uiso   1.00
H173   H     0.69333   0.20935   0.31208   0.00000  Uiso   1.00
H174   H     0.72693   0.12383   0.18803   0.00000  Uiso   1.00
H175   H     0.97328   0.12385   0.18807   0.00000  Uiso   1.00
H176   H     0.95373   0.15896   0.41195   0.00000  Uiso   1.00
H177   H     0.71843   0.14350   0.41155   0.00000  Uiso   1.00
H178   H     0.75095   0.14086   0.05436   0.00000  Uiso   1.00
N179   N     0.71598   0.16666   0.24998   0.00000  Uiso   1.00
N180   N     0.95069   0.16669   0.24999   0.00000  Uiso   1.00
O181   O     0.79375   0.22678   0.25000   0.00000  Uiso   1.00
O182   O     0.74187   0.02303   0.37094   0.00000  Uiso   1.00
O183   O     0.67282   0.21974   0.00719   0.00000  Uiso   1.00
O184   O     0.94175   0.30039   0.14214   0.00000  Uiso   1.00
O185   O     0.87294   0.22679   0.25000   0.00000  Uiso   1.00
O186   O     0.77441   0.16665   0.32549   0.00000  Uiso   1.00
O187   O     0.85360   0.16666   0.32549   0.00000  Uiso   1.00
O188   O     0.79373   0.10654   0.24999   0.00000  Uiso   1.00
O189   O     0.87292   0.10655   0.25000   0.00000  Uiso   1.00
O190   O     0.81306   0.16667   0.17451   0.00000  Uiso   1.00
O191   O     0.89225   0.16668   0.17451   0.00000  Uiso   1.00
O192   O     0.89442   0.03325   0.11497   0.00000  Uiso   1.00
C193   C     0.16688   0.57915   0.24905   0.00000  Uiso   1.00
C194   C     0.12858   0.48485   0.40519   0.00000  Uiso   1.00
C195   C     0.19937   0.64490   0.20525   0.00000  Uiso   1.00
C196   C     0.14138   0.49530   0.34945   0.00000  Uiso   1.00
C197   C     0.19787   0.35520   0.20505   0.00000  Uiso   1.00
C198   C     0.16732   0.37609   0.24863   0.00000  Uiso   1.00
C199   C     0.13600   0.35425   0.29031   0.00000  Uiso   1.00
C200   C     0.13558   0.64468   0.28800   0.00000  Uiso   1.00
C201   C     0.16727   0.62370   0.24680   0.00000  Uiso   1.00
C202   C     0.29921   0.52377   0.28440   0.00000  Uiso   1.00
C203   C     0.01546   0.52369   0.28447   0.00000  Uiso   1.00
C204   C     0.14911   0.48302   0.48768   0.00000  Uiso   1.00
C205   C     0.03413   0.47624   0.21557   0.00000  Uiso   1.00
C206   C     0.31785   0.47624   0.21560   0.00000  Uiso   1.00
C207   C     0.16682   0.42082   0.24961   0.00000  Uiso   1.00
C208   C     0.19248   0.50049   0.15031   0.00000  Uiso   1.00
C209   C     0.26632   0.51712   0.01221   0.00000  Uiso   1.00
C210   C     0.20691   0.50156   0.09405   0.00000  Uiso   1.00
C211   C     0.07948   0.47766   0.43181   0.00000  Uiso   1.00
C212   C     0.06534   0.47163   0.48493   0.00000  Uiso   1.00
C213   C     0.09900   0.47608   0.01300   0.00000  Uiso   1.00
C214   C     0.22479   0.37919   0.15843   0.00000  Uiso   1.00
C215   C     0.16443   0.48295   0.43290   0.00000  Uiso   1.00
C216   C     0.10440   0.37564   0.33694   0.00000  Uiso   1.00
C217   C     0.31236   0.53849   0.48399   0.00000  Uiso   1.00
C218   C     0.23397   0.62098   0.16306   0.00000  Uiso   1.00
C219   C     0.18455   0.49105   0.01460   0.00000  Uiso   1.00
C220   C     0.23348   0.50098   0.48640   0.00000  Uiso   1.00
C221   C     0.24882   0.49222   0.43365   0.00000  Uiso   1.00
C222   C     0.21521   0.48071   0.40822   0.00000  Uiso   1.00
C223   C     0.17280   0.49024   0.06851   0.00000  Uiso   1.00
C224   C     0.25290   0.51604   0.06624   0.00000  Uiso   1.00
Cu225  Cu    0.11978   0.49999   0.25000   0.00000  Uiso   1.00
Cu226  Cu    0.21355   0.50001   0.25000   0.00000  Uiso   1.00
H227   H     0.27777   0.52737   0.08686   0.00000  Uiso   1.00
H228   H     0.02740   0.46550   0.00498   0.00000  Uiso   1.00
H229   H     0.23048   0.46905   0.36957   0.00000  Uiso   1.00
H230   H     0.24054   0.40905   0.16230   0.00000  Uiso   1.00
H231   H     0.10687   0.40874   0.34184   0.00000  Uiso   1.00
H232   H     0.32217   0.54270   0.44249   0.00000  Uiso   1.00
H233   H     0.13758   0.47991   0.09170   0.00000  Uiso   1.00
H234   H     0.22355   0.59095   0.15172   0.00000  Uiso   1.00
H235   H     0.11178   0.62715   0.31946   0.00000  Uiso   1.00
H236   H     0.27307   0.54284   0.31196   0.00000  Uiso   1.00
H237   H     0.02667   0.54268   0.31208   0.00000  Uiso   1.00
H238   H     0.06027   0.45716   0.18803   0.00000  Uiso   1.00
H239   H     0.30662   0.45718   0.18807   0.00000  Uiso   1.00
H240   H     0.28706   0.49229   0.41195   0.00000  Uiso   1.00
H241   H     0.05177   0.47683   0.41155   0.00000  Uiso   1.00
H242   H     0.08428   0.47419   0.05436   0.00000  Uiso   1.00
N243   N     0.04931   0.49999   0.24998   0.00000  Uiso   1.00
N244   N     0.28402   0.50002   0.24999   0.00000  Uiso   1.00
O245   O     0.12708   0.56011   0.25000   0.00000  Uiso   1.00
O246   O     0.07520   0.35637   0.37094   0.00000  Uiso   1.00
O247   O     0.00615   0.55307   0.00719   0.00000  Uiso   1.00
O248   O     0.27508   0.63372   0.14214   0.00000  Uiso   1.00
O249   O     0.20627   0.56012   0.25000   0.00000  Uiso   1.00
O250   O     0.10775   0.49998   0.32549   0.00000  Uiso   1.00
O251   O     0.18694   0.49999   0.32549   0.00000  Uiso   1.00
O252   O     0.12706   0.43988   0.24999   0.00000  Uiso   1.00
O253   O     0.20625   0.43989   0.25000   0.00000  Uiso   1.00
O254   O     0.14640   0.50001   0.17451   0.00000  Uiso   1.00
O255   O     0.22559   0.50002   0.17451   0.00000  Uiso   1.00
O256   O     0.22775   0.36658   0.11497   0.00000  Uiso   1.00
C257   C     0.50022   0.57915   0.24905   0.00000  Uiso   1.00
C258   C     0.46191   0.48485   0.40519   0.00000  Uiso   1.00
C259   C     0.53270   0.64490   0.20525   0.00000  Uiso   1.00
C260   C     0.47471   0.49530   0.34945   0.00000  Uiso   1.00
C261   C     0.53120   0.35520   0.20505   0.00000  Uiso   1.00
C262   C     0.50065   0.37609   0.24863   0.00000  Uiso   1.00
C263   C     0.46934   0.35425   0.29031   0.00000  Uiso   1.00
C264   C     0.46892   0.64468   0.28800   0.00000  Uiso   1.00
C265   C     0.50060   0.62370   0.24680   0.00000  Uiso   1.00
C266   C     0.63255   0.52377   0.28440   0.00000  Uiso   1.00
C267   C     0.34880   0.52369   0.28447   0.00000  Uiso   1.00
C268   C     0.48245   0.48302   0.48768   0.00000  Uiso   1.00
C269   C     0.36746   0.47624   0.21557   0.00000  Uiso   1.00
C270   C     0.65118   0.47624   0.21560   0.00000  Uiso   1.00
C271   C     0.50015   0.42082   0.24961   0.00000  Uiso   1.00
C272   C     0.52582   0.50049   0.15031   0.00000  Uiso   1.00
C273   C     0.59965   0.51712   0.01221   0.00000  Uiso   1.00
C274   C     0.54024   0.50156   0.09405   0.00000  Uiso   1.00
C275   C     0.41281   0.47766   0.43181   0.00000  Uiso   1.00
C276   C     0.39868   0.47163   0.48493   0.00000  Uiso   1.00
C277   C     0.43233   0.47608   0.01300   0.00000  Uiso   1.00
C278   C     0.55812   0.37919   0.15843   0.00000  Uiso   1.00
C279   C     0.49777   0.48295   0.43290   0.00000  Uiso   1.00
C280   C     0.43774   0.37564   0.33694   0.00000  Uiso   1.00
C281   C     0.64569   0.53849   0.48399   0.00000  Uiso   1.00
C282   C     0.56730   0.62098   0.16306   0.00000  Uiso   1.00
C283   C     0.51788   0.49105   0.01460   0.00000  Uiso   1.00
C284   C     0.56682   0.50098   0.48640   0.00000  Uiso   1.00
C285   C     0.58215   0.49222   0.43365   0.00000  Uiso   1.00
C286   C     0.54854   0.48071   0.40822   0.00000  Uiso   1.00
C287   C     0.50614   0.49024   0.06851   0.00000  Uiso   1.00
C288   C     0.58623   0.51604   0.06624   0.00000  Uiso   1.00
Cu289  Cu    0.45311   0.49999   0.25000   0.00000  Uiso   1.00
Cu290  Cu    0.54689   0.50001   0.25000   0.00000  Uiso   1.00
H291   H     0.61110   0.52737   0.08686   0.00000  Uiso   1.00
H292   H     0.36073   0.46550   0.00498   0.00000  Uiso   1.00
H293   H     0.56381   0.46905   0.36957   0.00000  Uiso   1.00
H294   H     0.57388   0.40905   0.16230   0.00000  Uiso   1.00
H295   H     0.44021   0.40874   0.34184   0.00000  Uiso   1.00
H296   H     0.65550   0.54270   0.44249   0.00000  Uiso   1.00
H297   H     0.47091   0.47991   0.09170   0.00000  Uiso   1.00
H298   H     0.55688   0.59095   0.15172   0.00000  Uiso   1.00
H299   H     0.44512   0.62715   0.31946   0.00000  Uiso   1.00
H300   H     0.60641   0.54284   0.31196   0.00000  Uiso   1.00
H301   H     0.36000   0.54268   0.31208   0.00000  Uiso   1.00
H302   H     0.39360   0.45716   0.18803   0.00000  Uiso   1.00
H303   H     0.63995   0.45718   0.18807   0.00000  Uiso   1.00
H304   H     0.62040   0.49229   0.41195   0.00000  Uiso   1.00
H305   H     0.38510   0.47683   0.41155   0.00000  Uiso   1.00
H306   H     0.41762   0.47419   0.05436   0.00000  Uiso   1.00
N307   N     0.38265   0.49999   0.24998   0.00000  Uiso   1.00
N308   N     0.61735   0.50002   0.24999   0.00000  Uiso   1.00
O309   O     0.46042   0.56011   0.25000   0.00000  Uiso   1.00
O310   O     0.40854   0.35637   0.37094   0.00000  Uiso   1.00
O311   O     0.33949   0.55307   0.00719   0.00000  Uiso   1.00
O312   O     0.60841   0.63372   0.14214   0.00000  Uiso   1.00
O313   O     0.53961   0.56012   0.25000   0.00000  Uiso   1.00
O314   O     0.44108   0.49998   0.32549   0.00000  Uiso   1.00
O315   O     0.52027   0.49999   0.32549   0.00000  Uiso   1.00
O316   O     0.46039   0.43988   0.24999   0.00000  Uiso   1.00
O317   O     0.53958   0.43989   0.25000   0.00000  Uiso   1.00
O318   O     0.47973   0.50001   0.17451   0.00000  Uiso   1.00
O319   O     0.55892   0.50002   0.17451   0.00000  Uiso   1.00
O320   O     0.56109   0.36658   0.11497   0.00000  Uiso   1.00
C321   C     0.83355   0.57915   0.24905   0.00000  Uiso   1.00
C322   C     0.79525   0.48485   0.40519   0.00000  Uiso   1.00
C323   C     0.86604   0.64490   0.20525   0.00000  Uiso   1.00
C324   C     0.80804   0.49530   0.34945   0.00000  Uiso   1.00
C325   C     0.86454   0.35520   0.20505   0.00000  Uiso   1.00
C326   C     0.83399   0.37609   0.24863   0.00000  Uiso   1.00
C327   C     0.80267   0.35425   0.29031   0.00000  Uiso   1.00
C328   C     0.80225   0.64468   0.28800   0.00000  Uiso   1.00
C329   C     0.83393   0.62370   0.24680   0.00000  Uiso   1.00
C330   C     0.96588   0.52377   0.28440   0.00000  Uiso   1.00
C331   C     0.68213   0.52369   0.28447   0.00000  Uiso   1.00
C332   C     0.81578   0.48302   0.48768   0.00000  Uiso   1.00
C333   C     0.70079   0.47624   0.21557   0.00000  Uiso   1.00
C334   C     0.98451   0.47624   0.21560   0.00000  Uiso   1.00
C335   C     0.83349   0.42082   0.24961   0.00000  Uiso   1.00
C336   C     0.85915   0.50049   0.15031   0.00000  Uiso   1.00
C337   C     0.93299   0.51712   0.01221   0.00000  Uiso   1.00
C338   C     0.87358   0.50156   0.09405   0.00000  Uiso   1.00
C339   C     0.74614   0.47766   0.43181   0.00000  Uiso   1.00
C340   C     0.73201   0.47163   0.48493   0.00000  Uiso   1.00
C341   C     0.76566   0.47608   0.01300   0.00000  Uiso   1.00
C342   C     0.89146   0.37919   0.15843   0.00000  Uiso   1.00
C343   C     0.83110   0.48295   0.43290   0.00000  Uiso   1.00
C344   C     0.77107   0.37564   0.33694   0.00000  Uiso   1.00
C345   C     0.97903   0.53849   0.48399   0.00000  Uiso   1.00
C346   C     0.90063   0.62098   0.16306   0.00000  Uiso   1.00
C347   C     0.85121   0.49105   0.01460   0.00000  Uiso   1.00
C348   C     0.90015   0.50098   0.48640   0.00000  Uiso   1.00
C349   C     0.91548   0.49222   0.43365   0.00000  Uiso   1.00
C350   C     0.88187   0.48071   0.40822   0.00000  Uiso   1.00
C351   C     0.83947   0.49024   0.06851   0.00000  Uiso   1.00
C352   C     0.91956   0.51604   0.06624   0.00000  Uiso   1.00
Cu353  Cu    0.78645   0.49999   0.25000   0.00000  Uiso   1.00
Cu354  Cu    0.88022   0.50001   0.25000   0.00000  Uiso   1.00
H355   H     0.94443   0.52737   0.08686   0.00000  Uiso   1.00
H356   H     0.69407   0.46550   0.00498   0.00000  Uiso   1.00
H357   H     0.89715   0.46905   0.36957   0.00000  Uiso   1.00
H358   H     0.90721   0.40905   0.16230   0.00000  Uiso   1.00
H359   H     0.77354   0.40874   0.34184   0.00000  Uiso   1.00
H360   H     0.98883   0.54270   0.44249   0.00000  Uiso   1.00
H361   H     0.80425   0.47991   0.09170   0.00000  Uiso   1.00
H362   H     0.89021   0.59095   0.15172   0.00000  Uiso   1.00
H363   H     0.77845   0.62715   0.31946   0.00000  Uiso   1.00
H364   H     0.93974   0.54284   0.31196   0.00000  Uiso   1.00
H365   H     0.69333   0.54268   0.31208   0.00000  Uiso   1.00
H366   H     0.72693   0.45716   0.18803   0.00000  Uiso   1.00
H367   H     0.97328   0.45718   0.18807   0.00000  Uiso   1.00
H368   H     0.95373   0.49229   0.41195   0.00000  Uiso   1.00
H369   H     0.71843   0.47683   0.41155   0.00000  Uiso   1.00
H370   H     0.75095   0.47419   0.05436   0.00000  Uiso   1.00
N371   N     0.71598   0.49999   0.24998   0.00000  Uiso   1.00
N372   N     0.95069   0.50002   0.24999   0.00000  Uiso   1.00
O373   O     0.79375   0.56011   0.25000   0.00000  Uiso   1.00
O374   O     0.74187   0.35637   0.37094   0.00000  Uiso   1.00
O375   O     0.67282   0.55307   0.00719   0.00000  Uiso   1.00
O376   O     0.94175   0.63372   0.14214   0.00000  Uiso   1.00
O377   O     0.87294   0.56012   0.25000   0.00000  Uiso   1.00
O378   O     0.77441   0.49998   0.32549   0.00000  Uiso   1.00
O379   O     0.85360   0.49999   0.32549   0.00000  Uiso   1.00
O380   O     0.79373   0.43988   0.24999   0.00000  Uiso   1.00
O381   O     0.87292   0.43989   0.25000   0.00000  Uiso   1.00
O382   O     0.81306   0.50001   0.17451   0.00000  Uiso   1.00
O383   O     0.89225   0.50002   0.17451   0.00000  Uiso   1.00
O384   O     0.89442   0.36658   0.11497   0.00000  Uiso   1.00
C385   C     0.16688   0.91248   0.24905   0.00000  Uiso   1.00
C386   C     0.12858   0.81819   0.40519   0.00000  Uiso   1.00
C387   C     0.19937   0.97823   0.20525   0.00000  Uiso   1.00
C388   C     0.14138   0.82863   0.34945   0.00000  Uiso   1.00
C389   C     0.19787   0.68853   0.20505   0.00000  Uiso   1.00
C390   C     0.16732   0.70943   0.24863   0.00000  Uiso   1.00
C391   C     0.13600   0.68758   0.29031   0.00000  Uiso   1.00
C392   C     0.13558   0.97802   0.28800   0.00000  Uiso   1.00
C393   C     0.16727   0.95703   0.24680   0.00000  Uiso   1.00
C394   C     0.29921   0.85710   0.28440   0.00000  Uiso   1.00
C395   C     0.01546   0.85703   0.28447   0.00000  Uiso   1.00
C396   C     0.14911   0.81635   0.48768   0.00000  Uiso   1.00
C397   C     0.03413   0.80958   0.21557   0.00000  Uiso   1.00
C398   C     0.31785   0.80958   0.21560   0.00000  Uiso   1.00
C399   C     0.16682   0.75415   0.24961   0.00000  Uiso   1.00
C400   C     0.19248   0.83382   0.15031   0.00000  Uiso   1.00
C401   C     0.26632   0.85046   0.01221   0.00000  Uiso   1.00
C402   C     0.20691   0.83490   0.09405   0.00000  Uiso   1.00
C403   C     0.07948   0.81099   0.43181   0.00000  Uiso   1.00
C404   C     0.06534   0.80496   0.48493   0.00000  Uiso   1.00
C405   C     0.09900   0.80941   0.01300   0.00000  Uiso   1.00
C406   C     0.22479   0.71253   0.15843   0.00000  Uiso   1.00
C407   C     0.16443   0.81628   0.43290   0.00000  Uiso   1.00
C408   C     0.10440   0.70897   0.33694   0.00000  Uiso   1.00
C409   C     0.31236   0.87182   0.48399   0.00000  Uiso   1.00
C410   C     0.23397   0.95431   0.16306   0.00000  Uiso   1.00
C411   C     0.18455   0.82439   0.01460   0.00000  Uiso   1.00
C412   C     0.23348   0.83432   0.48640   0.00000  Uiso   1.00
C413   C     0.24882   0.82556   0.43365   0.00000  Uiso   1.00
C414   C     0.21521   0.81404   0.40822   0.00000  Uiso   1.00
C415   C     0.17280   0.82357   0.06851   0.00000  Uiso   1.00
C416   C     0.25290   0.84937   0.06624   0.00000  Uiso   1.00
Cu417  Cu    0.11978   0.83333   0.25000   0.00000  Uiso   1.00
Cu418  Cu    0.21355   0.83334   0.25000   0.00000  Uiso   1.00
H419   H     0.27777   0.86070   0.08686   0.00000  Uiso   1.00
H420   H     0.02740   0.79883   0.00498   0.00000  Uiso   1.00
H421   H     0.23048   0.80239   0.36957   0.00000  Uiso   1.00
H422   H     0.24054   0.74238   0.16230   0.00000  Uiso   1.00
H423   H     0.10687   0.74207   0.34184   0.00000  Uiso   1.00
H424   H     0.32217   0.87603   0.44249   0.00000  Uiso   1.00
H425   H     0.13758   0.81324   0.09170   0.00000  Uiso   1.00
H426   H     0.22355   0.92429   0.15172   0.00000  Uiso   1.00
H427   H     0.11178   0.96049   0.31946   0.00000  Uiso   1.00
H428   H     0.27307   0.87617   0.31196   0.00000  Uiso   1.00
H429   H     0.02667   0.87602   0.31208   0.00000  Uiso   1.00
H430   H     0.06027   0.79049   0.18803   0.00000  Uiso   1.00
H431   H     0.30662   0.79052   0.18807   0.00000  Uiso   1.00
H432   H     0.28706   0.82562   0.41195   0.00000  Uiso   1.00
H433   H     0.05177   0.81016   0.41155   0.00000  Uiso   1.00
H434   H     0.08428   0.80752   0.05436   0.00000  Uiso   1.00
N435   N     0.04931   0.83332   0.24998   0.00000  Uiso   1.00
N436   N     0.28402   0.83335   0.24999   0.00000  Uiso   1.00
O437   O     0.12708   0.89345   0.25000   0.00000  Uiso   1.00
O438   O     0.07520   0.68970   0.37094   0.00000  Uiso   1.00
O439   O     0.00615   0.88641   0.00719   0.00000  Uiso   1.00
O440   O     0.27508   0.96706   0.14214   0.00000  Uiso   1.00
O441   O     0.20627   0.89346   0.25000   0.00000  Uiso   1.00
O442   O     0.10775   0.83332   0.32549   0.00000  Uiso   1.00
O443   O     0.18694   0.83333   0.32549   0.00000  Uiso   1.00
O444   O     0.12706   0.77321   0.24999   0.00000  Uiso   1.00
O445   O     0.20625   0.77322   0.25000   0.00000  Uiso   1.00
O446   O     0.14640   0.83334   0.17451   0.00000  Uiso   1.00
O447   O     0.22559   0.83335   0.17451   0.00000  Uiso   1.00
O448   O     0.22775   0.69991   0.11497   0.00000  Uiso   1.00
C449   C     0.50022   0.91248   0.24905   0.00000  Uiso   1.00
C450   C     0.46191   0.81819   0.40519   0.00000  Uiso   1.00
C451   C     0.53270   0.97823   0.20525   0.00000  Uiso   1.00
C452   C     0.47471   0.82863   0.34945   0.00000  Uiso   1.00
C453   C     0.53120   0.68853   0.20505   0.00000  Uiso   1.00
C454   C     0.50065   0.70943   0.24863   0.00000  Uiso   1.00
C455   C     0.46934   0.68758   0.29031   0.00000  Uiso   1.00
C456   C     0.46892   0.97802   0.28800   0.00000  Uiso   1.00
C457   C     0.50060   0.95703   0.24680   0.00000  Uiso   1.00
C458   C     0.63255   0.85710   0.28440   0.00000  Uiso   1.00
C459   C     0.34880   0.85703   0.28447   0.00000  Uiso   1.00
C460   C     0.48245   0.81635   0.48768   0.00000  Uiso   1.00
C461   C     0.36746   0.80958   0.21557   0.00000  Uiso   1.00
C462   C     0.65118   0.80958   0.21560   0.00000  Uiso   1.00
C463   C     0.50015   0.75415   0.24961   0.00000  Uiso   1.00
C464   C     0.52582   0.83382   0.15031   0.00000  Uiso   1.00
C465   C     0.59965   0.85046   0.01221   0.00000  Uiso   1.00
C466   C     0.54024   0.83490   0.09405   0.00000  Uiso   1.00
C467   C     0.41281   0.81099   0.43181   0.00000  Uiso   1.00
C468   C     0.39868   0.80496   0.48493   0.00000  Uiso   1.00
C469   C     0.43233   0.80941   0.01300   0.00000  Uiso   1.00
C470   C     0.55812   0.71253   0.15843   0.00000  Uiso   1.00
C471   C     0.49777   0.81628   0.43290   0.00000  Uiso   1.00
C472   C     0.43774   0.70897   0.33694   0.00000  Uiso   1.00
C473   C     0.64569   0.87182   0.48399   0.00000  Uiso   1.00
C474   C     0.56730   0.95431   0.16306   0.00000  Uiso   1.00
C475   C     0.51788   0.82439   0.01460   0.00000  Uiso   1.00
C476   C     0.56682   0.83432   0.48640   0.00000  Uiso   1.00
C477   C     0.58215   0.82556   0.43365   0.00000  Uiso   1.00
C478   C     0.54854   0.81404   0.40822   0.00000  Uiso   1.00
C479   C     0.50614   0.82357   0.06851   0.00000  Uiso   1.00
C480   C     0.58623   0.84937   0.06624   0.00000  Uiso   1.00
Cu481  Cu    0.45311   0.83333   0.25000   0.00000  Uiso   1.00
Cu482  Cu    0.54689   0.83334   0.25000   0.00000  Uiso   1.00
H483   H     0.61110   0.86070   0.08686   0.00000  Uiso   1.00
H484   H     0.36073   0.79883   0.00498   0.00000  Uiso   1.00
H485   H     0.56381   0.80239   0.36957   0.00000  Uiso   1.00
H486   H     0.57388   0.74238   0.16230   0.00000  Uiso   1.00
H487   H     0.44021   0.74207   0.34184   0.00000  Uiso   1.00
H488   H     0.65550   0.87603   0.44249   0.00000  Uiso   1.00
H489   H     0.47091   0.81324   0.09170   0.00000  Uiso   1.00
H490   H     0.55688   0.92429   0.15172   0.00000  Uiso   1.00
H491   H     0.44512   0.96049   0.31946   0.00000  Uiso   1.00
H492   H     0.60641   0.87617   0.31196   0.00000  Uiso   1.00
H493   H     0.36000   0.87602   0.31208   0.00000  Uiso   1.00
H494   H     0.39360   0.79049   0.18803   0.00000  Uiso   1.00
H495   H     0.63995   0.79052   0.18807   0.00000  Uiso   1.00
H496   H     0.62040   0.82562   0.41195   0.00000  Uiso   1.00
H497   H     0.38510   0.81016   0.41155   0.00000  Uiso   1.00
H498   H     0.41762   0.80752   0.05436   0.00000  Uiso   1.00
N499   N     0.38265   0.83332   0.24998   0.00000  Uiso   1.00
N500   N     0.61735   0.83335   0.24999   0.00000  Uiso   1.00
O501   O     0.46042   0.89345   0.25000   0.00000  Uiso   1.00
O502   O     0.40854   0.68970   0.37094   0.00000  Uiso   1.00
O503   O     0.33949   0.88641   0.00719   0.00000  Uiso   1.00
O504   O     0.60841   0.96706   0.14214   0.00000  Uiso   1.00
O505   O     0.53961   0.89346   0.25000   0.00000  Uiso   1.00
O506   O     0.44108   0.83332   0.32549   0.00000  Uiso   1.00
O507   O     0.52027   0.83333   0.32549   0.00000  Uiso   1.00
O508   O     0.46039   0.77321   0.24999   0.00000  Uiso   1.00
O509   O     0.53958   0.77322   0.25000   0.00000  Uiso   1.00
O510   O     0.47973   0.83334   0.17451   0.00000  Uiso   1.00
O511   O     0.55892   0.83335   0.17451   0.00000  Uiso   1.00
O512   O     0.56109   0.69991   0.11497   0.00000  Uiso   1.00
C513   C     0.83355   0.91248   0.24905   0.00000  Uiso   1.00
C514   C     0.79525   0.81819   0.40519   0.00000  Uiso   1.00
C515   C     0.86604   0.97823   0.20525   0.00000  Uiso   1.00
C516   C     0.80804   0.82863   0.34945   0.00000  Uiso   1.00
C517   C     0.86454   0.68853   0.20505   0.00000  Uiso   1.00
C518   C     0.83399   0.70943   0.24863   0.00000  Uiso   1.00
C519   C     0.80267   0.68758   0.29031   0.00000  Uiso   1.00
C520   C     0.80225   0.97802   0.28800   0.00000  Uiso   1.00
C521   C     0.83393   0.95703   0.24680   0.00000  Uiso   1.00
C522   C     0.96588   0.85710   0.28440   0.00000  Uiso   1.00
C523   C     0.68213   0.85703   0.28447   0.00000  Uiso   1.00
C524   C     0.81578   0.81635   0.48768   0.00000  Uiso   1.00
C525   C     0.70079   0.80958   0.21557   0.00000  Uiso   1.00
C526   C     0.98451   0.80958   0.21560   0.00000  Uiso   1.00
C527   C     0.83349   0.75415   0.24961   0.00000  Uiso   1.00
C528   C     0.85915   0.83382   0.15031   0.00000  Uiso   1.00
C529   C     0.93299   0.85046   0.01221   0.00000  Uiso   1.00
C530   C     0.87358   0.83490   0.09405   0.00000  Uiso   1.00
C531   C     0.74614   0.81099   0.43181   0.00000  Uiso   1.00
C532   C     0.73201   0.80496   0.48493   0.00000  Uiso   1.00
C533   C     0.76566   0.80941   0.01300   0.00000  Uiso   1.00
C534   C     0.89146   0.71253   0.15843   0.00000  Uiso   1.00
C535   C     0.83110   0.81628   0.43290   0.00000  Uiso   1.00
C536   C     0.77107   0.70897   0.33694   0.00000  Uiso   1.00
C537   C     0.97903   0.87182   0.48399   0.00000  Uiso   1.00
C538   C     0.90063   0.95431   0.16306   0.00000  Uiso   1.00
C539   C     0.85121   0.82439   0.01460   0.00000  Uiso   1.00
C540   C     0.90015   0.83432   0.48640   0.00000  Uiso   1.00
C541   C     0.91548   0.82556   0.43365   0.00000  Uiso   1.00
C542   C     0.88187   0.81404   0.40822   0.00000  Uiso   1.00
C543   C     0.83947   0.82357   0.06851   0.00000  Uiso   1.00
C544   C     0.91956   0.84937   0.06624   0.00000  Uiso   1.00
Cu545  Cu    0.78645   0.83333   0.25000   0.00000  Uiso   1.00
Cu546  Cu    0.88022   0.83334   0.25000   0.00000  Uiso   1.00
H547   H     0.94443   0.86070   0.08686   0.00000  Uiso   1.00
H548   H     0.69407   0.79883   0.00498   0.00000  Uiso   1.00
H549   H     0.89715   0.80239   0.36957   0.00000  Uiso   1.00
H550   H     0.90721   0.74238   0.16230   0.00000  Uiso   1.00
H551   H     0.77354   0.74207   0.34184   0.00000  Uiso   1.00
H552   H     0.98883   0.87603   0.44249   0.00000  Uiso   1.00
H553   H     0.80425   0.81324   0.09170   0.00000  Uiso   1.00
H554   H     0.89021   0.92429   0.15172   0.00000  Uiso   1.00
H555   H     0.77845   0.96049   0.31946   0.00000  Uiso   1.00
H556   H     0.93974   0.87617   0.31196   0.00000  Uiso   1.00
H557   H     0.69333   0.87602   0.31208   0.00000  Uiso   1.00
H558   H     0.72693   0.79049   0.18803   0.00000  Uiso   1.00
H559   H     0.97328   0.79052   0.18807   0.00000  Uiso   1.00
H560   H     0.95373   0.82562   0.41195   0.00000  Uiso   1.00
H561   H     0.71843   0.81016   0.41155   0.00000  Uiso   1.00
H562   H     0.75095   0.80752   0.05436   0.00000  Uiso   1.00
N563   N     0.71598   0.83332   0.24998   0.00000  Uiso   1.00
N564   N     0.95069   0.83335   0.24999   0.00000  Uiso   1.00
O565   O     0.79375   0.89345   0.25000   0.00000  Uiso   1.00
O566   O     0.74187   0.68970   0.37094   0.00000  Uiso   1.00
O567   O     0.67282   0.88641   0.00719   0.00000  Uiso   1.00
O568   O     0.94175   0.96706   0.14214   0.00000  Uiso   1.00
O569   O     0.87294   0.89346   0.25000   0.00000  Uiso   1.00
O570   O     0.77441   0.83332   0.32549   0.00000  Uiso   1.00
O571   O     0.85360   0.83333   0.32549   0.00000  Uiso   1.00
O572   O     0.79373   0.77321   0.24999   0.00000  Uiso   1.00
O573   O     0.87292   0.77322   0.25000   0.00000  Uiso   1.00
O574   O     0.81306   0.83334   0.17451   0.00000  Uiso   1.00
O575   O     0.89225   0.83335   0.17451   0.00000  Uiso   1.00
O576   O     0.89442   0.69991   0.11497   0.00000  Uiso   1.00
C577   C     0.16688   0.24582   0.74905   0.00000  Uiso   1.00
C578   C     0.12858   0.15152   0.90519   0.00000  Uiso   1.00
C579   C     0.19937   0.31157   0.70525   0.00000  Uiso   1.00
C580   C     0.14138   0.16196   0.84945   0.00000  Uiso   1.00
C581   C     0.19787   0.02186   0.70505   0.00000  Uiso   1.00
C582   C     0.16732   0.04276   0.74863   0.00000  Uiso   1.00
C583   C     0.13600   0.02092   0.79031   0.00000  Uiso   1.00
C584   C     0.13558   0.31135   0.78800   0.00000  Uiso   1.00
C585   C     0.16727   0.29036   0.74680   0.00000  Uiso   1.00
C586   C     0.29921   0.19044   0.78440   0.00000  Uiso   1.00
C587   C     0.01546   0.19036   0.78447   0.00000  Uiso   1.00
C588   C     0.14911   0.14969   0.98768   0.00000  Uiso   1.00
C589   C     0.03413   0.14291   0.71557   0.00000  Uiso   1.00
C590   C     0.31785   0.14291   0.71560   0.00000  Uiso   1.00
C591   C     0.16682   0.08749   0.74961   0.00000  Uiso   1.00
C592   C     0.19248   0.16715   0.65031   0.00000  Uiso   1.00
C593   C     0.26632   0.18379   0.51221   0.00000  Uiso   1.00
C594   C     0.20691   0.16823   0.59405   0.00000  Uiso   1.00
C595   C     0.07948   0.14433   0.93181   0.00000  Uiso   1.00
C596   C     0.06534   0.13829   0.98493   0.00000  Uiso   1.00
C597   C     0.09900   0.14274   0.51300   0.00000  Uiso   1.00
C598   C     0.22479   0.04586   0.65843   0.00000  Uiso   1.00
C599   C     0.16443   0.14962   0.93290   0.00000  Uiso   1.00
C600   C     0.10440   0.04231   0.83694   0.00000  Uiso   1.00
C601   C     0.31236   0.20515   0.98399   0.00000  Uiso   1.00
C602   C     0.23397   0.28764   0.66306   0.00000  Uiso   1.00
C603   C     0.18455   0.15772   0.51460   0.00000  Uiso   1.00
C604   C     0.23348   0.16765   0.98640   0.00000  Uiso   1.00
C605   C     0.24882   0.15889   0.93365   0.00000  Uiso   1.00
C606   C     0.21521   0.14738   0.90822   0.00000  Uiso   1.00
C607   C     0.17280   0.15690   0.56851   0.00000  Uiso   1.00
C608   C     0.25290   0.18270   0.56624   0.00000  Uiso   1.00
Cu609  Cu    0.11978   0.16666   0.75000   0.00000  Uiso   1.00
Cu610  Cu    0.21355   0.16667   0.75000   0.00000  Uiso   1.00
H611   H     0.27777   0.19404   0.58686   0.00000  Uiso   1.00
H612   H     0.02740   0.13217   0.50498   0.00000  Uiso   1.00
H613   H     0.23048   0.13572   0.86957   0.00000  Uiso   1.00
H614   H     0.24054   0.07571   0.66230   0.00000  Uiso   1.00
H615   H     0.10687   0.07541   0.84184   0.00000  Uiso   1.00
H616   H     0.32217   0.20937   0.94249   0.00000  Uiso   1.00
H617   H     0.13758   0.14657   0.59170   0.00000  Uiso   1.00
H618   H     0.22355   0.25762   0.65172   0.00000  Uiso   1.00
H619   H     0.11178   0.29382   0.81946   0.00000  Uiso   1.00
H620   H     0.27307   0.20951   0.81196   0.00000  Uiso   1.00
H621   H     0.02667   0.20935   0.81208   0.00000  Uiso   1.00
H622   H     0.06027   0.12383   0.68803   0.00000  Uiso   1.00
H623   H     0.30662   0.12385   0.68807   0.00000  Uiso   1.00
H624   H     0.28706   0.15896   0.91195   0.00000  Uiso   1.00
H625   H     0.05177   0.14350   0.91155   0.00000  Uiso   1.00
H626   H     0.08428   0.14086   0.55436   0.00000  Uiso   1.00
N627   N     0.04931   0.16666   0.74998   0.00000  Uiso   1.00
N628   N     0.28402   0.16669   0.74999   0.00000  Uiso   1.00
O629   O     0.12708   0.22678   0.75000   0.00000  Uiso   1.00
O630   O     0.07520   0.02303   0.87094   0.00000  Uiso   1.00
O631   O     0.00615   0.21974   0.50719   0.00000  Uiso   1.00
O632   O     0.27508   0.30039   0.64214   0.00000  Uiso   1.00
O633   O     0.20627   0.22679   0.75000   0.00000  Uiso   1.00
O634   O     0.10775   0.16665   0.82549   0.00000  Uiso   1.00
O635   O     0.18694   0.16666   0.82549   0.00000  Uiso   1.00
O636   O     0.12706   0.10654   0.74999   0.00000  Uiso   1.00
O637   O     0.20625   0.10655   0.75000   0.00000  Uiso   1.00
O638   O     0.14640   0.16667   0.67451   0.00000  Uiso   1.00
O639   O     0.22559   0.16668   0.67451   0.00000  Uiso   1.00
O640   O     0.22775   0.03325   0.61497   0.00000  Uiso   1.00
C641   C     0.50022   0.24582   0.74905   0.00000  Uiso   1.00
C642   C     0.46191   0.15152   0.90519   0.00000  Uiso   1.00
C643   C     0.53270   0.31157   0.70525   0.00000  Uiso   1.00
C644   C     0.47471   0.16196   0.84945   0.00000  Uiso   1.00
C645   C     0.53120   0.02186   0.70505   0.00000  Uiso   1.00
C646   C     0.50065   0.04276   0.74863   0.00000  Uiso   1.00
C647   C     0.46934   0.02092   0.79031   0.00000  Uiso   1.00
C648   C     0.46892   0.31135   0.78800   0.00000  Uiso   1.00
C649   C     0.50060   0.29036   0.74680   0.00000  Uiso   1.00
C650   C     0.63255   0.19044   0.78440   0.00000  Uiso   1.00
C651   C     0.34880   0.19036   0.78447   0.00000  Uiso   1.00
C652   C     0.48245   0.14969   0.98768   0.00000  Uiso   1.00
C653   C     0.36746   0.14291   0.71557   0.00000  Uiso   1.00
C654   C     0.65118   0.14291   0.71560   0.00000  Uiso   1.00
C655   C     0.50015   0.08749   0.74961   0.00000  Uiso   1.00
C656   C     0.52582   0.16715   0.65031   0.00000  Uiso   1.00
C657   C     0.59965   0.18379   0.51221   0.00000  Uiso   1.00
C658   C     0.54024   0.16823   0.59405   0.00000  Uiso   1.00
C659   C     0.41281   0.14433   0.93181   0.00000  Uiso   1.00
C660   C     0.39868   0.13829   0.98493   0.00000  Uiso   1.00
C661   C     0.43233   0.14274   0.51300   0.00000  Uiso   1.00
C662   C     0.55812   0.04586   0.65843   0.00000  Uiso   1.00
C663   C     0.49777   0.14962   0.93290   0.00000  Uiso   1.00
C664   C     0.43774   0.04231   0.83694   0.00000  Uiso   1.00
C665   C     0.64569   0.20515   0.98399   0.00000  Uiso   1.00
C666   C     0.56730   0.28764   0.66306   0.00000  Uiso   1.00
C667   C     0.51788   0.15772   0.51460   0.00000  Uiso   1.00
C668   C     0.56682   0.16765   0.98640   0.00000  Uiso   1.00
C669   C     0.58215   0.15889   0.93365   0.00000  Uiso   1.00
C670   C     0.54854   0.14738   0.90822   0.00000  Uiso   1.00
C671   C     0.50614   0.15690   0.56851   0.00000  Uiso   1.00
C672   C     0.58623   0.18270   0.56624   0.00000  Uiso   1.00
Cu673  Cu    0.45311   0.16666   0.75000   0.00000  Uiso   1.00
Cu674  Cu    0.54689   0.16667   0.75000   0.00000  Uiso   1.00
H675   H     0.61110   0.19404   0.58686   0.00000  Uiso   1.00
H676   H     0.36073   0.13217   0.50498   0.00000  Uiso   1.00
H677   H     0.56381   0.13572   0.86957   0.00000  Uiso   1.00
H678   H     0.57388   0.07571   0.66230   0.00000  Uiso   1.00
H679   H     0.44021   0.07541   0.84184   0.00000  Uiso   1.00
H680   H     0.65550   0.20937   0.94249   0.00000  Uiso   1.00
H681   H     0.47091   0.14657   0.59170   0.00000  Uiso   1.00
H682   H     0.55688   0.25762   0.65172   0.00000  Uiso   1.00
H683   H     0.44512   0.29382   0.81946   0.00000  Uiso   1.00
H684   H     0.60641   0.20951   0.81196   0.00000  Uiso   1.00
H685   H     0.36000   0.20935   0.81208   0.00000  Uiso   1.00
H686   H     0.39360   0.12383   0.68803   0.00000  Uiso   1.00
H687   H     0.63995   0.12385   0.68807   0.00000  Uiso   1.00
H688   H     0.62040   0.15896   0.91195   0.00000  Uiso   1.00
H689   H     0.38510   0.14350   0.91155   0.00000  Uiso   1.00
H690   H     0.41762   0.14086   0.55436   0.00000  Uiso   1.00
N691   N     0.38265   0.16666   0.74998   0.00000  Uiso   1.00
N692   N     0.61735   0.16669   0.74999   0.00000  Uiso   1.00
O693   O     0.46042   0.22678   0.75000   0.00000  Uiso   1.00
O694   O     0.40854   0.02303   0.87094   0.00000  Uiso   1.00
O695   O     0.33949   0.21974   0.50719   0.00000  Uiso   1.00
O696   O     0.60841   0.30039   0.64214   0.00000  Uiso   1.00
O697   O     0.53961   0.22679   0.75000   0.00000  Uiso   1.00
O698   O     0.44108   0.16665   0.82549   0.00000  Uiso   1.00
O699   O     0.52027   0.16666   0.82549   0.00000  Uiso   1.00
O700   O     0.46039   0.10654   0.74999   0.00000  Uiso   1.00
O701   O     0.53958   0.10655   0.75000   0.00000  Uiso   1.00
O702   O     0.47973   0.16667   0.67451   0.00000  Uiso   1.00
O703   O     0.55892   0.16668   0.67451   0.00000  Uiso   1.00
O704   O     0.56109   0.03325   0.61497   0.00000  Uiso   1.00
C705   C     0.83355   0.24582   0.74905   0.00000  Uiso   1.00
C706   C     0.79525   0.15152   0.90519   0.00000  Uiso   1.00
C707   C     0.86604   0.31157   0.70525   0.00000  Uiso   1.00
C708   C     0.80804   0.16196   0.84945   0.00000  Uiso   1.00
C709   C     0.86454   0.02186   0.70505   0.00000  Uiso   1.00
C710   C     0.83399   0.04276   0.74863   0.00000  Uiso   1.00
C711   C     0.80267   0.02092   0.79031   0.00000  Uiso   1.00
C712   C     0.80225   0.31135   0.78800   0.00000  Uiso   1.00
C713   C     0.83393   0.29036   0.74680   0.00000  Uiso   1.00
C714   C     0.96588   0.19044   0.78440   0.00000  Uiso   1.00
C715   C     0.68213   0.19036   0.78447   0.00000  Uiso   1.00
C716   C     0.81578   0.14969   0.98768   0.00000  Uiso   1.00
C717   C     0.70079   0.14291   0.71557   0.00000  Uiso   1.00
C718   C     0.98451   0.14291   0.71560   0.00000  Uiso   1.00
C719   C     0.83349   0.08749   0.74961   0.00000  Uiso   1.00
C720   C     0.85915   0.16715   0.65031   0.00000  Uiso   1.00
C721   C     0.93299   0.18379   0.51221   0.00000  Uiso   1.00
C722   C     0.87358   0.16823   0.59405   0.00000  Uiso   1.00
C723   C     0.74614   0.14433   0.93181   0.00000  Uiso   1.00
C724   C     0.73201   0.13829   0.98493   0.00000  Uiso   1.00
C725   C     0.76566   0.14274   0.51300   0.00000  Uiso   1.00
C726   C     0.89146   0.04586   0.65843   0.00000  Uiso   1.00
C727   C     0.83110   0.14962   0.93290   0.00000  Uiso   1.00
C728   C     0.77107   0.04231   0.83694   0.00000  Uiso   1.00
C729   C     0.97903   0.20515   0.98399   0.00000  Uiso   1.00
C730   C     0.90063   0.28764   0.66306   0.00000  Uiso   1.00
C731   C     0.85121   0.15772   0.51460   0.00000  Uiso   1.00
C732   C     0.90015   0.16765   0.98640   0.00000  Uiso   1.00
C733   C     0.91548   0.15889   0.93365   0.00000  Uiso   1.00
C734   C     0.88187   0.14738   0.90822   0.00000  Uiso   1.00
C735   C     0.83947   0.15690   0.56851   0.00000  Uiso   1.00
C736   C     0.91956   0.18270   0.56624   0.00000  Uiso   1.00
Cu737  Cu    0.78645   0.16666   0.75000   0.00000  Uiso   1.00
Cu738  Cu    0.88022   0.16667   0.75000   0.00000  Uiso   1.00
H739   H     0.94443   0.19404   0.58686   0.00000  Uiso   1.00
H740   H     0.69407   0.13217   0.50498   0.00000  Uiso   1.00
H741   H     0.89715   0.13572   0.86957   0.00000  Uiso   1.00
H742   H     0.90721   0.07571   0.66230   0.00000  Uiso   1.00
H743   H     0.77354   0.07541   0.84184   0.00000  Uiso   1.00
H744   H     0.98883   0.20937   0.94249   0.00000  Uiso   1.00
H745   H     0.80425   0.14657   0.59170   0.00000  Uiso   1.00
H746   H     0.89021   0.25762   0.65172   0.00000  Uiso   1.00
H747   H     0.77845   0.29382   0.81946   0.00000  Uiso   1.00
H748   H     0.93974   0.20951   0.81196   0.00000  Uiso   1.00
H749   H     0.69333   0.20935   0.81208   0.00000  Uiso   1.00
H750   H     0.72693   0.12383   0.68803   0.00000  Uiso   1.00
H751   H     0.97328   0.12385   0.68807   0.00000  Uiso   1.00
H752   H     0.95373   0.15896   0.91195   0.00000  Uiso   1.00
H753   H     0.71843   0.14350   0.91155   0.00000  Uiso   1.00
H754   H     0.75095   0.14086   0.55436   0.00000  Uiso   1.00
N755   N     0.71598   0.16666   0.74998   0.00000  Uiso   1.00
N756   N     0.95069   0.16669   0.74999   0.00000  Uiso   1.00
O757   O     0.79375   0.22678   0.75000   0.00000  Uiso   1.00
O758   O     0.74187   0.02303   0.87094   0.00000  Uiso   1.00
O759   O     0.67282   0.21974   0.50719   0.00000  Uiso   1.00
O760   O     0.94175   0.30039   0.64214   0.00000  Uiso   1.00
O761   O     0.87294   0.22679   0.75000   0.00000  Uiso   1.00
O762   O     0.77441   0.16665   0.82549   0.00000  Uiso   1.00
O763   O     0.85360   0.16666   0.82549   0.00000  Uiso   1.00
O764   O     0.79373   0.10654   0.74999   0.00000  Uiso   1.00
O765   O     0.87292   0.10655   0.75000   0.00000  Uiso   1.00
O766   O     0.81306   0.16667   0.67451   0.00000  Uiso   1.00
O767   O     0.89225   0.16668   0.67451   0.00000  Uiso   1.00
O768   O     0.89442   0.03325   0.61497   0.00000  Uiso   1.00
C769   C     0.16688   0.57915   0.74905   0.00000  Uiso   1.00
C770   C     0.12858   0.48485   0.90519   0.00000  Uiso   1.00
C771   C     0.19937   0.64490   0.70525   0.00000  Uiso   1.00
C772   C     0.14138   0.49530   0.84945   0.00000  Uiso   1.00
C773   C     0.19787   0.35520   0.70505   0.00000  Uiso   1.00
C774   C     0.16732   0.37609   0.74863   0.00000  Uiso   1.00
C775   C     0.13600   0.35425   0.79031   0.00000  Uiso   1.00
C776   C     0.13558   0.64468   0.78800   0.00000  Uiso   1.00
C777   C     0.16727   0.62370   0.74680   0.00000  Uiso   1.00
C778   C     0.29921   0.52377   0.78440   0.00000  Uiso   1.00
C779   C     0.01546   0.52369   0.78447   0.00000  Uiso   1.00
C780   C     0.14911   0.48302   0.98768   0.00000  Uiso   1.00
C781   C     0.03413   0.47624   0.71557   0.00000  Uiso   1.00
C782   C     0.31785   0.47624   0.71560   0.00000  Uiso   1.00
C783   C     0.16682   0.42082   0.74961   0.00000  Uiso   1.00
C784   C     0.19248   0.50049   0.65031   0.00000  Uiso   1.00
C785   C     0.26632   0.51712   0.51221   0.00000  Uiso   1.00
C786   C     0.20691   0.50156   0.59405   0.00000  Uiso   1.00
C787   C     0.07948   0.47766   0.93181   0.00000  Uiso   1.00
C788   C     0.06534   0.47163   0.98493   0.00000  Uiso   1.00
C789   C     0.09900   0.47608   0.51300   0.00000  Uiso   1.00
C790   C     0.22479   0.37919   0.65843   0.00000  Uiso   1.00
C791   C     0.16443   0.48295   0.93290   0.00000  Uiso   1.00
C792   C     0.10440   0.37564   0.83694   0.00000  Uiso   1.00
C793   C     0.31236   0.53849   0.98399   0.00000  Uiso   1.00
C794   C     0.23397   0.62098   0.66306   0.00000  Uiso   1.00
C795   C     0.18455   0.49105   0.51460   0.00000  Uiso   1.00
C796   C     0.23348   0.50098   0.98640   0.00000  Uiso   1.00
C797   C     0.24882   0.49222   0.93365   0.00000  Uiso   1.00
C798   C     0.21521   0.48071   0.90822   0.00000  Uiso   1.00
C799   C     0.17280   0.49024   0.56851   0.00000  Uiso   1.00
C800   C     0.25290   0.51604   0.56624   0.00000  Uiso   1.00
Cu801  Cu    0.11978   0.49999   0.75000   0.00000  Uiso   1.00
Cu802  Cu    0.21355   0.50001   0.75000   0.00000  Uiso   1.00
H803   H     0.27777   0.52737   0.58686   0.00000  Uiso   1.00
H804   H     0.02740   0.46550   0.50498   0.00000  Uiso   1.00
H805   H     0.23048   0.46905   0.86957   0.00000  Uiso   1.00
H806   H     0.24054   0.40905   0.66230   0.00000  Uiso   1.00
H807   H     0.10687   0.40874   0.84184   0.00000  Uiso   1.00
H808   H     0.32217   0.54270   0.94249   0.00000  Uiso   1.00
H809   H     0.13758   0.47991   0.59170   0.00000  Uiso   1.00
H810   H     0.22355   0.59095   0.65172   0.00000  Uiso   1.00
H811   H     0.11178   0.62715   0.81946   0.00000  Uiso   1.00
H812   H     0.27307   0.54284   0.81196   0.00000  Uiso   1.00
H813   H     0.02667   0.54268   0.81208   0.00000  Uiso   1.00
H814   H     0.06027   0.45716   0.68803   0.00000  Uiso   1.00
H815   H     0.30662   0.45718   0.68807   0.00000  Uiso   1.00
H816   H     0.28706   0.49229   0.91195   0.00000  Uiso   1.00
H817   H     0.05177   0.47683   0.91155   0.00000  Uiso   1.00
H818   H     0.08428   0.47419   0.55436   0.00000  Uiso   1.00
N819   N     0.04931   0.49999   0.74998   0.00000  Uiso   1.00
N820   N     0.28402   0.50002   0.74999   0.00000  Uiso   1.00
O821   O     0.12708   0.56011   0.75000   0.00000  Uiso   1.00
O822   O     0.07520   0.35637   0.87094   0.00000  Uiso   1.00
O823   O     0.00615   0.55307   0.50719   0.00000  Uiso   1.00
O824   O     0.27508   0.63372   0.64214   0.00000  Uiso   1.00
O825   O     0.20627   0.56012   0.75000   0.00000  Uiso   1.00
O826   O     0.10775   0.49998   0.82549   0.00000  Uiso   1.00
O827   O     0.18694   0.49999   0.82549   0.00000  Uiso   1.00
O828   O     0.12706   0.43988   0.74999   0.00000  Uiso   1.00
O829   O     0.20625   0.43989   0.75000   0.00000  Uiso   1.00
O830   O     0.14640   0.50001   0.67451   0.00000  Uiso   1.00
O831   O     0.22559   0.50002   0.67451   0.00000  Uiso   1.00
O832   O     0.22775   0.36658   0.61497   0.00000  Uiso   1.00
C833   C     0.50022   0.57915   0.74905   0.00000  Uiso   1.00
C834   C     0.46191   0.48485   0.90519   0.00000  Uiso   1.00
C835   C     0.53270   0.64490   0.70525   0.00000  Uiso   1.00
C836   C     0.47471   0.49530   0.84945   0.00000  Uiso   1.00
C837   C     0.53120   0.35520   0.70505   0.00000  Uiso   1.00
C838   C     0.50065   0.37609   0.74863   0.00000  Uiso   1.00
C839   C     0.46934   0.35425   0.79031   0.00000  Uiso   1.00
C840   C     0.46892   0.64468   0.78800   0.00000  Uiso   1.00
C841   C     0.50060   0.62370   0.74680   0.00000  Uiso   1.00
C842   C     0.63255   0.52377   0.78440   0.00000  Uiso   1.00
C843   C     0.34880   0.52369   0.78447   0.00000  Uiso   1.00
C844   C     0.48245   0.48302   0.98768   0.00000  Uiso   1.00
C845   C     0.36746   0.47624   0.71557   0.00000  Uiso   1.00
C846   C     0.65118   0.47624   0.71560   0.00000  Uiso   1.00
C847   C     0.50015   0.42082   0.74961   0.00000  Uiso   1.00
C848   C     0.52582   0.50049   0.65031   0.00000  Uiso   1.00
C849   C     0.59965   0.51712   0.51221   0.00000  Uiso   1.00
C850   C     0.54024   0.50156   0.59405   0.00000  Uiso   1.00
C851   C     0.41281   0.47766   0.93181   0.00000  Uiso   1.00
C852   C     0.39868   0.47163   0.98493   0.00000  Uiso   1.00
C853   C     0.43233   0.47608   0.51300   0.00000  Uiso   1.00
C854   C     0.55812   0.37919   0.65843   0.00000  Uiso   1.00
C855   C     0.49777   0.48295   0.93290   0.00000  Uiso   1.00
C856   C     0.43774   0.37564   0.83694   0.00000  Uiso   1.00
C857   C     0.64569   0.53849   0.98399   0.00000  Uiso   1.00
C858   C     0.56730   0.62098   0.66306   0.00000  Uiso   1.00
C859   C     0.51788   0.49105   0.51460   0.00000  Uiso   1.00
C860   C     0.56682   0.50098   0.98640   0.00000  Uiso   1.00
C861   C     0.58215   0.49222   0.93365   0.00000  Uiso   1.00
C862   C     0.54854   0.48071   0.90822   0.00000  Uiso   1.00
C863   C     0.50614   0.49024   0.56851   0.00000  Uiso   1.00
C864   C     0.58623   0.51604   0.56624   0.00000  Uiso   1.00
Cu865  Cu    0.45311   0.49999   0.75000   0.00000  Uiso   1.00
Cu866  Cu    0.54689   0.50001   0.75000   0.00000  Uiso   1.00
H867   H     0.61110   0.52737   0.58686   0.00000  Uiso   1.00
H868   H     0.36073   0.46550   0.50498   0.00000  Uiso   1.00
H869   H     0.56381   0.46905   0.86957   0.00000  Uiso   1.00
H870   H     0.57388   0.40905   0.66230   0.00000  Uiso   1.00
H871   H     0.44021   0.40874   0.84184   0.00000  Uiso   1.00
H872   H     0.65550   0.54270   0.94249   0.00000  Uiso   1.00
H873   H     0.47091   0.47991   0.59170   0.00000  Uiso   1.00
H874   H     0.55688   0.59095   0.65172   0.00000  Uiso   1.00
H875   H     0.44512   0.62715   0.81946   0.00000  Uiso   1.00
H876   H     0.60641   0.54284   0.81196   0.00000  Uiso   1.00
H877   H     0.36000   0.54268   0.81208   0.00000  Uiso   1.00
H878   H     0.39360   0.45716   0.68803   0.00000  Uiso   1.00
H879   H     0.63995   0.45718   0.68807   0.00000  Uiso   1.00
H880   H     0.62040   0.49229   0.91195   0.00000  Uiso   1.00
H881   H     0.38510   0.47683   0.91155   0.00000  Uiso   1.00
H882   H     0.41762   0.47419   0.55436   0.00000  Uiso   1.00
N883   N     0.38265   0.49999   0.74998   0.00000  Uiso   1.00
N884   N     0.61735   0.50002   0.74999   0.00000  Uiso   1.00
O885   O     0.46042   0.56011   0.75000   0.00000  Uiso   1.00
O886   O     0.40854   0.35637   0.87094   0.00000  Uiso   1.00
O887   O     0.33949   0.55307   0.50719   0.00000  Uiso   1.00
O888   O     0.60841   0.63372   0.64214   0.00000  Uiso   1.00
O889   O     0.53961   0.56012   0.75000   0.00000  Uiso   1.00
O890   O     0.44108   0.49998   0.82549   0.00000  Uiso   1.00
O891   O     0.52027   0.49999   0.82549   0.00000  Uiso   1.00
O892   O     0.46039   0.43988   0.74999   0.00000  Uiso   1.00
O893   O     0.53958   0.43989   0.75000   0.00000  Uiso   1.00
O894   O     0.47973   0.50001   0.67451   0.00000  Uiso   1.00
O895   O     0.55892   0.50002   0.67451   0.00000  Uiso   1.00
O896   O     0.56109   0.36658   0.61497   0.00000  Uiso   1.00
C897   C     0.83355   0.57915   0.74905   0.00000  Uiso   1.00
C898   C     0.79525   0.48485   0.90519   0.00000  Uiso   1.00
C899   C     0.86604   0.64490   0.70525   0.00000  Uiso   1.00
C900   C     0.80804   0.49530   0.84945   0.00000  Uiso   1.00
C901   C     0.86454   0.35520   0.70505   0.00000  Uiso   1.00
C902   C     0.83399   0.37609   0.74863   0.00000  Uiso   1.00
C903   C     0.80267   0.35425   0.79031   0.00000  Uiso   1.00
C904   C     0.80225   0.64468   0.78800   0.00000  Uiso   1.00
C905   C     0.83393   0.62370   0.74680   0.00000  Uiso   1.00
C906   C     0.96588   0.52377   0.78440   0.00000  Uiso   1.00
C907   C     0.68213   0.52369   0.78447   0.00000  Uiso   1.00
C908   C     0.81578   0.48302   0.98768   0.00000  Uiso   1.00
C909   C     0.70079   0.47624   0.71557   0.00000  Uiso   1.00
C910   C     0.98451   0.47624   0.71560   0.00000  Uiso   1.00
C911   C     0.83349   0.42082   0.74961   0.00000  Uiso   1.00
C912   C     0.85915   0.50049   0.65031   0.00000  Uiso   1.00
C913   C     0.93299   0.51712   0.51221   0.00000  Uiso   1.00
C914   C     0.87358   0.50156   0.59405   0.00000  Uiso   1.00
C915   C     0.74614   0.47766   0.93181   0.00000  Uiso   1.00
C916   C     0.73201   0.47163   0.98493   0.00000  Uiso   1.00
C917   C     0.76566   0.47608   0.51300   0.00000  Uiso   1.00
C918   C     0.89146   0.37919   0.65843   0.00000  Uiso   1.00
C919   C     0.83110   0.48295   0.93290   0.00000  Uiso   1.00
C920   C     0.77107   0.37564   0.83694   0.00000  Uiso   1.00
C921   C     0.97903   0.53849   0.98399   0.00000  Uiso   1.00
C922   C     0.90063   0.62098   0.66306   0.00000  Uiso   1.00
C923   C     0.85121   0.49105   0.51460   0.00000  Uiso   1.00
C924   C     0.90015   0.50098   0.98640   0.00000  Uiso   1.00
C925   C     0.91548   0.49222   0.93365   0.00000  Uiso   1.00
C926   C     0.88187   0.48071   0.90822   0.00000  Uiso   1.00
C927   C     0.83947   0.49024   0.56851   0.00000  Uiso   1.00
C928   C     0.91956   0.51604   0.56624   0.00000  Uiso   1.00
Cu929  Cu    0.78645   0.49999   0.75000   0.00000  Uiso   1.00
Cu930  Cu    0.88022   0.50001   0.75000   0.00000  Uiso   1.00
H931   H     0.94443   0.52737   0.58686   0.00000  Uiso   1.00
H932   H     0.69407   0.46550   0.50498   0.00000  Uiso   1.00
H933   H     0.89715   0.46905   0.86957   0.00000  Uiso   1.00
H934   H     0.90721   0.40905   0.66230   0.00000  Uiso   1.00
H935   H     0.77354   0.40874   0.84184   0.00000  Uiso   1.00
H936   H     0.98883   0.54270   0.94249   0.00000  Uiso   1.00
H937   H     0.80425   0.47991   0.59170   0.00000  Uiso   1.00
H938   H     0.89021   0.59095   0.65172   0.00000  Uiso   1.00
H939   H     0.77845   0.62715   0.81946   0.00000  Uiso   1.00
H940   H     0.93974   0.54284   0.81196   0.00000  Uiso   1.00
H941   H     0.69333   0.54268   0.81208   0.00000  Uiso   1.00
H942   H     0.72693   0.45716   0.68803   0.00000  Uiso   1.00
H943   H     0.97328   0.45718   0.68807   0.00000  Uiso   1.00
H944   H     0.95373   0.49229   0.91195   0.00000  Uiso   1.00
H945   H     0.71843   0.47683   0.91155   0.00000  Uiso   1.00
H946   H     0.75095   0.47419   0.55436   0.00000  Uiso   1.00
N947   N     0.71598   0.49999   0.74998   0.00000  Uiso   1.00
N948   N     0.95069   0.50002   0.74999   0.00000  Uiso   1.00
O949   O     0.79375   0.56011   0.75000   0.00000  Uiso   1.00
O950   O     0.74187   0.35637   0.87094   0.00000  Uiso   1.00
O951   O     0.67282   0.55307   0.50719   0.00000  Uiso   1.00
O952   O     0.94175   0.63372   0.64214   0.00000  Uiso   1.00
O953   O     0.87294   0.56012   0.75000   0.00000  Uiso   1.00
O954   O     0.77441   0.49998   0.82549   0.00000  Uiso   1.00
O955   O     0.85360   0.49999   0.82549   0.00000  Uiso   1.00
O956   O     0.79373   0.43988   0.74999   0.00000  Uiso   1.00
O957   O     0.87292   0.43989   0.75000   0.00000  Uiso   1.00
O958   O     0.81306   0.50001   0.67451   0.00000  Uiso   1.00
O959   O     0.89225   0.50002   0.67451   0.00000  Uiso   1.00
O960   O     0.89442   0.36658   0.61497   0.00000  Uiso   1.00
C961   C     0.16688   0.91248   0.74905   0.00000  Uiso   1.00
C962   C     0.12858   0.81819   0.90519   0.00000  Uiso   1.00
C963   C     0.19937   0.97823   0.70525   0.00000  Uiso   1.00
C964   C     0.14138   0.82863   0.84945   0.00000  Uiso   1.00
C965   C     0.19787   0.68853   0.70505   0.00000  Uiso   1.00
C966   C     0.16732   0.70943   0.74863   0.00000  Uiso   1.00
C967   C     0.13600   0.68758   0.79031   0.00000  Uiso   1.00
C968   C     0.13558   0.97802   0.78800   0.00000  Uiso   1.00
C969   C     0.16727   0.95703   0.74680   0.00000  Uiso   1.00
C970   C     0.29921   0.85710   0.78440   0.00000  Uiso   1.00
C971   C     0.01546   0.85703   0.78447   0.00000  Uiso   1.00
C972   C     0.14911   0.81635   0.98768   0.00000  Uiso   1.00
C973   C     0.03413   0.80958   0.71557   0.00000  Uiso   1.00
C974   C     0.31785   0.80958   0.71560   0.00000  Uiso   1.00
C975   C     0.16682   0.75415   0.74961   0.00000  Uiso   1.00
C976   C     0.19248   0.83382   0.65031   0.00000  Uiso   1.00
C977   C     0.26632   0.85046   0.51221   0.00000  Uiso   1.00
C978   C     0.20691   0.83490   0.59405   0.00000  Uiso   1.00
C979   C     0.07948   0.81099   0.93181   0.00000  Uiso   1.00
C980   C     0.06534   0.80496   0.98493   0.00000  Uiso   1.00
C981   C     0.09900   0.80941   0.51300   0.00000  Uiso   1.00
C982   C     0.22479   0.71253   0.65843   0.00000  Uiso   1.00
C983   C     0.16443   0.81628   0.93290   0.00000  Uiso   1.00
C984   C     0.10440   0.70897   0.83694   0.00000  Uiso   1.00
C985   C     0.31236   0.87182   0.98399   0.00000  Uiso   1.00
C986   C     0.23397   0.95431   0.66306   0.00000  Uiso   1.00
C987   C     0.18455   0.82439   0.51460   0.00000  Uiso   1.00
C988   C     0.23348   0.83432   0.98640   0.00000  Uiso   1.00
C989   C     0.24882   0.82556   0.93365   0.00000  Uiso   1.00
C990   C     0.21521   0.81404   0.90822   0.00000  Uiso   1.00
C991   C     0.17280   0.82357   0.56851   0.00000  Uiso   1.00
C992   C     0.25290   0.84937   0.56624   0.00000  Uiso   1.00
Cu993  Cu    0.11978   0.83333   0.75000   0.00000  Uiso   1.00
Cu994  Cu    0.21355   0.83334   0.75000   0.00000  Uiso   1.00
H995   H     0.27777   0.86070   0.58686   0.00000  Uiso   1.00
H996   H     0.02740   0.79883   0.50498   0.00000  Uiso   1.00
H997   H     0.23048   0.80239   0.86957   0.00000  Uiso   1.00
H998   H     0.24054   0.74238   0.66230   0.00000  Uiso   1.00
H999   H     0.10687   0.74207   0.84184   0.00000  Uiso   1.00
H1000  H     0.32217   0.87603   0.94249   0.00000  Uiso   1.00
H1001  H     0.13758   0.81324   0.59170   0.00000  Uiso   1.00
H1002  H     0.22355   0.92429   0.65172   0.00000  Uiso   1.00
H1003  H     0.11178   0.96049   0.81946   0.00000  Uiso   1.00
H1004  H     0.27307   0.87617   0.81196   0.00000  Uiso   1.00
H1005  H     0.02667   0.87602   0.81208   0.00000  Uiso   1.00
H1006  H     0.06027   0.79049   0.68803   0.00000  Uiso   1.00
H1007  H     0.30662   0.79052   0.68807   0.00000  Uiso   1.00
H1008  H     0.28706   0.82562   0.91195   0.00000  Uiso   1.00
H1009  H     0.05177   0.81016   0.91155   0.00000  Uiso   1.00
H1010  H     0.08428   0.80752   0.55436   0.00000  Uiso   1.00
N1011  N     0.04931   0.83332   0.74998   0.00000  Uiso   1.00
N1012  N     0.28402   0.83335   0.74999   0.00000  Uiso   1.00
O1013  O     0.12708   0.89345   0.75000   0.00000  Uiso   1.00
O1014  O     0.07520   0.68970   0.87094   0.00000  Uiso   1.00
O1015  O     0.00615   0.88641   0.50719   0.00000  Uiso   1.00
O1016  O     0.27508   0.96706   0.64214   0.00000  Uiso   1.00
O1017  O     0.20627   0.89346   0.75000   0.00000  Uiso   1.00
O1018  O     0.10775   0.83332   0.82549   0.00000  Uiso   1.00
O1019  O     0.18694   0.83333   0.82549   0.00000  Uiso   1.00
O1020  O     0.12706   0.77321   0.74999   0.00000  Uiso   1.00
O1021  O     0.20625   0.77322   0.75000   0.00000  Uiso   1.00
O1022  O     0.14640   0.83334   0.67451   0.00000  Uiso   1.00
O1023  O     0.22559   0.83335   0.67451   0.00000  Uiso   1.00
O1024  O     0.22775   0.69991   0.61497   0.00000  Uiso   1.00
C1025  C     0.50022   0.91248   0.74905   0.00000  Uiso   1.00
C1026  C     0.46191   0.81819   0.90519   0.00000  Uiso   1.00
C1027  C     0.53270   0.97823   0.70525   0.00000  Uiso   1.00
C1028  C     0.47471   0.82863   0.84945   0.00000  Uiso   1.00
C1029  C     0.53120   0.68853   0.70505   0.00000  Uiso   1.00
C1030  C     0.50065   0.70943   0.74863   0.00000  Uiso   1.00
C1031  C     0.46934   0.68758   0.79031   0.00000  Uiso   1.00
C1032  C     0.46892   0.97802   0.78800   0.00000  Uiso   1.00
C1033  C     0.50060   0.95703   0.74680   0.00000  Uiso   1.00
C1034  C     0.63255   0.85710   0.78440   0.00000  Uiso   1.00
C1035  C     0.34880   0.85703   0.78447   0.00000  Uiso   1.00
C1036  C     0.48245   0.81635   0.98768   0.00000  Uiso   1.00
C1037  C     0.36746   0.80958   0.71557   0.00000  Uiso   1.00
C1038  C     0.65118   0.80958   0.71560   0.00000  Uiso   1.00
C1039  C     0.50015   0.75415   0.74961   0.00000  Uiso   1.00
C1040  C     0.52582   0.83382   0.65031   0.00000  Uiso   1.00
C1041  C     0.59965   0.85046   0.51221   0.00000  Uiso   1.00
C1042  C     0.54024   0.83490   0.59405   0.00000  Uiso   1.00
C1043  C     0.41281   0.81099   0.93181   0.00000  Uiso   1.00
C1044  C     0.39868   0.80496   0.98493   0.00000  Uiso   1.00
C1045  C     0.43233   0.80941   0.51300   0.00000  Uiso   1.00
C1046  C     0.55812   0.71253   0.65843   0.00000  Uiso   1.00
C1047  C     0.49777   0.81628   0.93290   0.00000  Uiso   1.00
C1048  C     0.43774   0.70897   0.83694   0.00000  Uiso   1.00
C1049  C     0.64569   0.87182   0.98399   0.00000  Uiso   1.00
C1050  C     0.56730   0.95431   0.66306   0.00000  Uiso   1.00
C1051  C     0.51788   0.82439   0.51460   0.00000  Uiso   1.00
C1052  C     0.56682   0.83432   0.98640   0.00000  Uiso   1.00
C1053  C     0.58215   0.82556   0.93365   0.00000  Uiso   1.00
C1054  C     0.54854   0.81404   0.90822   0.00000  Uiso   1.00
C1055  C     0.50614   0.82357   0.56851   0.00000  Uiso   1.00
C1056  C     0.58623   0.84937   0.56624   0.00000  Uiso   1.00
Cu1057 Cu    0.45311   0.83333   0.75000   0.00000  Uiso   1.00
Cu1058 Cu    0.54689   0.83334   0.75000   0.00000  Uiso   1.00
H1059  H     0.61110   0.86070   0.58686   0.00000  Uiso   1.00
H1060  H     0.36073   0.79883   0.50498   0.00000  Uiso   1.00
H1061  H     0.56381   0.80239   0.86957   0.00000  Uiso   1.00
H1062  H     0.57388   0.74238   0.66230   0.00000  Uiso   1.00
H1063  H     0.44021   0.74207   0.84184   0.00000  Uiso   1.00
H1064  H     0.65550   0.87603   0.94249   0.00000  Uiso   1.00
H1065  H     0.47091   0.81324   0.59170   0.00000  Uiso   1.00
H1066  H     0.55688   0.92429   0.65172   0.00000  Uiso   1.00
H1067  H     0.44512   0.96049   0.81946   0.00000  Uiso   1.00
H1068  H     0.60641   0.87617   0.81196   0.00000  Uiso   1.00
H1069  H     0.36000   0.87602   0.81208   0.00000  Uiso   1.00
H1070  H     0.39360   0.79049   0.68803   0.00000  Uiso   1.00
H1071  H     0.63995   0.79052   0.68807   0.00000  Uiso   1.00
H1072  H     0.62040   0.82562   0.91195   0.00000  Uiso   1.00
H1073  H     0.38510   0.81016   0.91155   0.00000  Uiso   1.00
H1074  H     0.41762   0.80752   0.55436   0.00000  Uiso   1.00
N1075  N     0.38265   0.83332   0.74998   0.00000  Uiso   1.00
N1076  N     0.61735   0.83335   0.74999   0.00000  Uiso   1.00
O1077  O     0.46042   0.89345   0.75000   0.00000  Uiso   1.00
O1078  O     0.40854   0.68970   0.87094   0.00000  Uiso   1.00
O1079  O     0.33949   0.88641   0.50719   0.00000  Uiso   1.00
O1080  O     0.60841   0.96706   0.64214   0.00000  Uiso   1.00
O1081  O     0.53961   0.89346   0.75000   0.00000  Uiso   1.00
O1082  O     0.44108   0.83332   0.82549   0.00000  Uiso   1.00
O1083  O     0.52027   0.83333   0.82549   0.00000  Uiso   1.00
O1084  O     0.46039   0.77321   0.74999   0.00000  Uiso   1.00
O1085  O     0.53958   0.77322   0.75000   0.00000  Uiso   1.00
O1086  O     0.47973   0.83334   0.67451   0.00000  Uiso   1.00
O1087  O     0.55892   0.83335   0.67451   0.00000  Uiso   1.00
O1088  O     0.56109   0.69991   0.61497   0.00000  Uiso   1.00
C1089  C     0.83355   0.91248   0.74905   0.00000  Uiso   1.00
C1090  C     0.79525   0.81819   0.90519   0.00000  Uiso   1.00
C1091  C     0.86604   0.97823   0.70525   0.00000  Uiso   1.00
C1092  C     0.80804   0.82863   0.84945   0.00000  Uiso   1.00
C1093  C     0.86454   0.68853   0.70505   0.00000  Uiso   1.00
C1094  C     0.83399   0.70943   0.74863   0.00000  Uiso   1.00
C1095  C     0.80267   0.68758   0.79031   0.00000  Uiso   1.00
C1096  C     0.80225   0.97802   0.78800   0.00000  Uiso   1.00
C1097  C     0.83393   0.95703   0.74680   0.00000  Uiso   1.00
C1098  C     0.96588   0.85710   0.78440   0.00000  Uiso   1.00
C1099  C     0.68213   0.85703   0.78447   0.00000  Uiso   1.00
C1100  C     0.81578   0.81635   0.98768   0.00000  Uiso   1.00
C1101  C     0.70079   0.80958   0.71557   0.00000  Uiso   1.00
C1102  C     0.98451   0.80958   0.71560   0.00000  Uiso   1.00
C1103  C     0.83349   0.75415   0.74961   0.00000  Uiso   1.00
C1104  C     0.85915   0.83382   0.65031   0.00000  Uiso   1.00
C1105  C     0.93299   0.85046   0.51221   0.00000  Uiso   1.00
C1106  C     0.87358   0.83490   0.59405   0.00000  Uiso   1.00
C1107  C     0.74614   0.81099   0.93181   0.00000  Uiso   1.00
C1108  C     0.73201   0.80496   0.98493   0.00000  Uiso   1.00
C1109  C     0.76566   0.80941   0.51300   0.00000  Uiso   1.00
C1110  C     0.89146   0.71253   0.65843   0.00000  Uiso   1.00
C1111  C     0.83110   0.81628   0.93290   0.00000  Uiso   1.00
C1112  C     0.77107   0.70897   0.83694   0.00000  Uiso   1.00
C1113  C     0.97903   0.87182   0.98399   0.00000  Uiso   1.00
C1114  C     0.90063   0.95431   0.66306   0.00000  Uiso   1.00
C1115  C     0.85121   0.82439   0.51460   0.00000  Uiso   1.00
C1116  C     0.90015   0.83432   0.98640   0.00000  Uiso   1.00
C1117  C     0.91548   0.82556   0.93365   0.00000  Uiso   1.00
C1118  C     0.88187   0.81404   0.90822   0.00000  Uiso   1.00
C1119  C     0.83947   0.82357   0.56851   0.00000  Uiso   1.00
C1120  C     0.91956   0.84937   0.56624   0.00000  Uiso   1.00
Cu1121 Cu    0.78645   0.83333   0.75000   0.00000  Uiso   1.00
Cu1122 Cu    0.88022   0.83334   0.75000   0.00000  Uiso   1.00
H1123  H     0.94443   0.86070   0.58686   0.00000  Uiso   1.00
H1124  H     0.69407   0.79883   0.50498   0.00000  Uiso   1.00
H1125  H     0.89715   0.80239   0.86957   0.00000  Uiso   1.00
H1126  H     0.90721   0.74238   0.66230   0.00000  Uiso   1.00
H1127  H     0.77354   0.74207   0.84184   0.00000  Uiso   1.00
H1128  H     0.98883   0.87603   0.94249   0.00000  Uiso   1.00
H1129  H     0.80425   0.81324   0.59170   0.00000  Uiso   1.00
H1130  H     0.89021   0.92429   0.65172   0.00000  Uiso   1.00
H1131  H     0.77845   0.96049   0.81946   0.00000  Uiso   1.00
H1132  H     0.93974   0.87617   0.81196   0.00000  Uiso   1.00
H1133  H     0.69333   0.87602   0.81208   0.00000  Uiso   1.00
H1134  H     0.72693   0.79049   0.68803   0.00000  Uiso   1.00
H1135  H     0.97328   0.79052   0.68807   0.00000  Uiso   1.00
H1136  H     0.95373   0.82562   0.91195   0.00000  Uiso   1.00
H1137  H     0.71843   0.81016   0.91155   0.00000  Uiso   1.00
H1138  H     0.75095   0.80752   0.55436   0.00000  Uiso   1.00
N1139  N     0.71598   0.83332   0.74998   0.00000  Uiso   1.00
N1140  N     0.95069   0.83335   0.74999   0.00000  Uiso   1.00
O1141  O     0.79375   0.89345   0.75000   0.00000  Uiso   1.00
O1142  O     0.74187   0.68970   0.87094   0.00000  Uiso   1.00
O1143  O     0.67282   0.88641   0.50719   0.00000  Uiso   1.00
O1144  O     0.94175   0.96706   0.64214   0.00000  Uiso   1.00
O1145  O     0.87294   0.89346   0.75000   0.00000  Uiso   1.00
O1146  O     0.77441   0.83332   0.82549   0.00000  Uiso   1.00
O1147  O     0.85360   0.83333   0.82549   0.00000  Uiso   1.00
O1148  O     0.79373   0.77321   0.74999   0.00000  Uiso   1.00
O1149  O     0.87292   0.77322   0.75000   0.00000  Uiso   1.00
O1150  O     0.81306   0.83334   0.67451   0.00000  Uiso   1.00
O1151  O     0.89225   0.83335   0.67451   0.00000  Uiso   1.00
O1152  O     0.89442   0.69991   0.61497   0.00000  Uiso   1.00
loop_
_geom_bond_atom_site_label_1
_geom_bond_atom_site_label_2
_geom_bond_distance
_geom_bond_site_symmetry_2
_ccdc_geom_bond_type
C1     O57     1.288   .     A
C1     O53     1.287   .     A
C1     C9      1.442   .     S
C2     C4      1.483   .     S
C2     C23     1.432   .     A
C2     C19     1.401   .     A
C3     C9      1.409   .     A
C3     C26     1.491   .     S
C3     C197    1.411   .     S
C4     O59     1.286   .     A
C4     O58     1.311   .     A
C5     C6      1.418   .     A
C5     C22     1.493   .     S
C5     C387    1.411   1_545 S
C6     C7      1.412   .     A
C6     C15     1.446   .     S
C7     C24     1.491   .     S
C7     C392    1.389   1_545 S
C8     C9      1.391   .     A
C8     H43     1.085   .     S
C8     C199    1.389   .     S
C10    N52     1.367   .     A
C10    H44     1.082   .     S
C10    C75     1.417   .     S
C11    H45     1.082   .     S
C11    N51     1.367   .     A
C11    C138    1.417   1_455 S
C12    C23     1.417   .     A
C12    C597    1.417   .     S
C12    C603    1.428   .     S
C13    N51     1.367   .     A
C13    H46     1.082   .     S
C13    C142    1.417   1_455 S
C14    H47     1.082   .     S
C14    N52     1.367   .     A
C14    C77     1.417   .     S
C15    O60     1.288   .     A
C15    O61     1.287   .     A
C16    O63     1.294   .     A
C16    O62     1.291   .     A
C16    C18     1.456   .     S
C17    C32     1.398   .     A
C17    C601    1.489   1_554 S
C17    C604    1.418   1_554 S
C18    C32     1.395   .     A
C18    C31     1.394   .     A
C19    H49     1.083   .     S
C19    C20     1.388   .     A
C20    C597    1.391   .     S
C20    H612    1.083   .     S
C21    H50     1.076   .     S
C21    C596    1.391   1_554 S
C21    C588    1.417   1_554 S
C22    O64     1.221   .     D
C22    H38     1.083   .     S
C23    C30     1.414   .     A
C24    O54     1.221   .     D
C24    H39     1.083   .     S
C25    H40     1.083   .     S
C25    C593    1.489   .     S
C25    O695    1.222   .     S
C26    H42     1.085   .     S
C26    O56     1.221   .     D
C27    C31     1.397   .     A
C27    C588    1.428   1_554 S
C27    C604    1.425   1_554 S
C28    C29     1.393   .     A
C28    C603    1.425   .     S
C28    C593    1.418   .     S
C29    C30     1.381   .     A
C29    H48     1.082   .     S
C30    H37     1.076   .     S
C31    H41     1.076   .     S
C32    H35     1.084   .     S
Cu33   N51     2.012   .     S
Cu33   Cu34    2.678   .     S
Cu33   O58     1.967   .     S
Cu33   O60     1.954   .     S
Cu33   O53     1.955   .     S
Cu33   O62     1.961   .     S
Cu34   O57     1.954   .     S
Cu34   N52     2.012   .     S
Cu34   O59     1.961   .     S
Cu34   O63     1.967   .     S
Cu34   O61     1.955   .     S
H36    C596    1.083   1_554 S
O55    C729    1.222   1_454 S
C65    O121    1.288   .     A
C65    O117    1.287   .     A
C65    C73     1.442   .     S
C66    C68     1.483   .     S
C66    C87     1.432   .     A
C66    C83     1.401   .     A
C67    C73     1.409   .     A
C67    C90     1.491   .     S
C67    C261    1.411   .     S
C68    O123    1.286   .     A
C68    O122    1.311   .     A
C69    C70     1.418   .     A
C69    C86     1.493   .     S
C69    C451    1.411   1_545 S
C70    C71     1.412   .     A
C70    C79     1.446   .     S
C71    C88     1.491   .     S
C71    C456    1.389   1_545 S
C72    C73     1.391   .     A
C72    H107    1.085   .     S
C72    C263    1.389   .     S
C74    N116    1.367   .     A
C74    H108    1.082   .     S
C74    C139    1.417   .     S
C75    H109    1.082   .     S
C75    N115    1.367   .     A
C76    C87     1.417   .     A
C76    C661    1.417   .     S
C76    C667    1.428   .     S
C77    N115    1.367   .     A
C77    H110    1.082   .     S
C78    H111    1.082   .     S
C78    N116    1.367   .     A
C78    C141    1.417   .     S
C79    O124    1.288   .     A
C79    O125    1.287   .     A
C80    O127    1.294   .     A
C80    O126    1.291   .     A
C80    C82     1.456   .     S
C81    C96     1.398   .     A
C81    C665    1.489   1_554 S
C81    C668    1.418   1_554 S
C82    C96     1.395   .     A
C82    C95     1.394   .     A
C83    H113    1.083   .     S
C83    C84     1.388   .     A
C84    C661    1.391   .     S
C84    H676    1.083   .     S
C85    H114    1.076   .     S
C85    C660    1.391   1_554 S
C85    C652    1.417   1_554 S
C86    O128    1.221   .     D
C86    H102    1.083   .     S
C87    C94     1.414   .     A
C88    O118    1.221   .     D
C88    H103    1.083   .     S
C89    H104    1.083   .     S
C89    C657    1.489   .     S
C89    O759    1.222   .     S
C90    H106    1.085   .     S
C90    O120    1.221   .     D
C91    C95     1.397   .     A
C91    C652    1.428   1_554 S
C91    C668    1.425   1_554 S
C92    C93     1.393   .     A
C92    C667    1.425   .     S
C92    C657    1.418   .     S
C93    C94     1.381   .     A
C93    H112    1.082   .     S
C94    H101    1.076   .     S
C95    H105    1.076   .     S
C96    H99     1.084   .     S
Cu97   N115    2.012   .     S
Cu97   Cu98    2.678   .     S
Cu97   O122    1.967   .     S
Cu97   O124    1.954   .     S
Cu97   O117    1.955   .     S
Cu97   O126    1.961   .     S
Cu98   O121    1.954   .     S
Cu98   N116    2.012   .     S
Cu98   O123    1.961   .     S
Cu98   O127    1.967   .     S
Cu98   O125    1.955   .     S
H100   C660    1.083   1_554 S
O119   C601    1.222   1_554 S
C129   O185    1.288   .     A
C129   O181    1.287   .     A
C129   C137    1.442   .     S
C130   C132    1.483   .     S
C130   C151    1.432   .     A
C130   C147    1.401   .     A
C131   C137    1.409   .     A
C131   C154    1.491   .     S
C131   C325    1.411   .     S
C132   O187    1.286   .     A
C132   O186    1.311   .     A
C133   C134    1.418   .     A
C133   C150    1.493   .     S
C133   C515    1.411   1_545 S
C134   C135    1.412   .     A
C134   C143    1.446   .     S
C135   C152    1.491   .     S
C135   C520    1.389   1_545 S
C136   C137    1.391   .     A
C136   H171    1.085   .     S
C136   C327    1.389   .     S
C138   N180    1.367   .     A
C138   H172    1.082   .     S
C138   C11     1.417   1_655 S
C139   H173    1.082   .     S
C139   N179    1.367   .     A
C140   C151    1.417   .     A
C140   C725    1.417   .     S
C140   C731    1.428   .     S
C141   N179    1.367   .     A
C141   H174    1.082   .     S
C142   H175    1.082   .     S
C142   N180    1.367   .     A
C142   C13     1.417   1_655 S
C143   O188    1.288   .     A
C143   O189    1.287   .     A
C144   O191    1.294   .     A
C144   O190    1.291   .     A
C144   C146    1.456   .     S
C145   C160    1.398   .     A
C145   C729    1.489   1_554 S
C145   C732    1.418   1_554 S
C146   C160    1.395   .     A
C146   C159    1.394   .     A
C147   H177    1.083   .     S
C147   C148    1.388   .     A
C148   C725    1.391   .     S
C148   H740    1.083   .     S
C149   H178    1.076   .     S
C149   C724    1.391   1_554 S
C149   C716    1.417   1_554 S
C150   O192    1.221   .     D
C150   H166    1.083   .     S
C151   C158    1.414   .     A
C152   O182    1.221   .     D
C152   H167    1.083   .     S
C153   H168    1.083   .     S
C153   C721    1.489   .     S
C153   O631    1.222   1_655 S
C154   H170    1.085   .     S
C154   O184    1.221   .     D
C155   C159    1.397   .     A
C155   C716    1.428   1_554 S
C155   C732    1.425   1_554 S
C156   C157    1.393   .     A
C156   C731    1.425   .     S
C156   C721    1.418   .     S
C157   C158    1.381   .     A
C157   H176    1.082   .     S
C158   H165    1.076   .     S
C159   H169    1.076   .     S
C160   H163    1.084   .     S
Cu161  N179    2.012   .     S
Cu161  Cu162   2.678   .     S
Cu161  O186    1.967   .     S
Cu161  O188    1.954   .     S
Cu161  O181    1.955   .     S
Cu161  O190    1.961   .     S
Cu162  O185    1.954   .     S
Cu162  N180    2.012   .     S
Cu162  O187    1.961   .     S
Cu162  O191    1.967   .     S
Cu162  O189    1.955   .     S
H164   C724    1.083   1_554 S
O183   C665    1.222   1_554 S
C193   O249    1.288   .     A
C193   O245    1.287   .     A
C193   C201    1.442   .     S
C194   C196    1.483   .     S
C194   C215    1.432   .     A
C194   C211    1.401   .     A
C195   C201    1.409   .     A
C195   C218    1.491   .     S
C195   C389    1.411   .     S
C196   O251    1.286   .     A
C196   O250    1.311   .     A
C197   C198    1.418   .     A
C197   C214    1.493   .     S
C198   C199    1.412   .     A
C198   C207    1.446   .     S
C199   C216    1.491   .     S
C200   C201    1.391   .     A
C200   H235    1.085   .     S
C200   C391    1.389   .     S
C202   N244    1.367   .     A
C202   H236    1.082   .     S
C202   C267    1.417   .     S
C203   H237    1.082   .     S
C203   N243    1.367   .     A
C203   C330    1.417   1_455 S
C204   C215    1.417   .     A
C204   C789    1.417   .     S
C204   C795    1.428   .     S
C205   N243    1.367   .     A
C205   H238    1.082   .     S
C205   C334    1.417   1_455 S
C206   H239    1.082   .     S
C206   N244    1.367   .     A
C206   C269    1.417   .     S
C207   O252    1.288   .     A
C207   O253    1.287   .     A
C208   O255    1.294   .     A
C208   O254    1.291   .     A
C208   C210    1.456   .     S
C209   C224    1.398   .     A
C209   C793    1.489   1_554 S
C209   C796    1.418   1_554 S
C210   C224    1.395   .     A
C210   C223    1.394   .     A
C211   H241    1.083   .     S
C211   C212    1.388   .     A
C212   C789    1.391   .     S
C212   H804    1.083   .     S
C213   H242    1.076   .     S
C213   C788    1.391   1_554 S
C213   C780    1.417   1_554 S
C214   O256    1.221   .     D
C214   H230    1.083   .     S
C215   C222    1.414   .     A
C216   O246    1.221   .     D
C216   H231    1.083   .     S
C217   H232    1.083   .     S
C217   C785    1.489   .     S
C217   O887    1.222   .     S
C218   H234    1.085   .     S
C218   O248    1.221   .     D
C219   C223    1.397   .     A
C219   C780    1.428   1_554 S
C219   C796    1.425   1_554 S
C220   C221    1.393   .     A
C220   C795    1.425   .     S
C220   C785    1.418   .     S
C221   C222    1.381   .     A
C221   H240    1.082   .     S
C222   H229    1.076   .     S
C223   H233    1.076   .     S
C224   H227    1.084   .     S
Cu225  N243    2.012   .     S
Cu225  Cu226   2.678   .     S
Cu225  O250    1.967   .     S
Cu225  O252    1.954   .     S
Cu225  O245    1.955   .     S
Cu225  O254    1.961   .     S
Cu226  O249    1.954   .     S
Cu226  N244    2.012   .     S
Cu226  O251    1.961   .     S
Cu226  O255    1.967   .     S
Cu226  O253    1.955   .     S
H228   C788    1.083   1_554 S
O247   C921    1.222   1_454 S
C257   O313    1.288   .     A
C257   O309    1.287   .     A
C257   C265    1.442   .     S
C258   C260    1.483   .     S
C258   C279    1.432   .     A
C258   C275    1.401   .     A
C259   C265    1.409   .     A
C259   C282    1.491   .     S
C259   C453    1.411   .     S
C260   O315    1.286   .     A
C260   O314    1.311   .     A
C261   C262    1.418   .     A
C261   C278    1.493   .     S
C262   C263    1.412   .     A
C262   C271    1.446   .     S
C263   C280    1.491   .     S
C264   C265    1.391   .     A
C264   H299    1.085   .     S
C264   C455    1.389   .     S
C266   N308    1.367   .     A
C266   H300    1.082   .     S
C266   C331    1.417   .     S
C267   H301    1.082   .     S
C267   N307    1.367   .     A
C268   C279    1.417   .     A
C268   C853    1.417   .     S
C268   C859    1.428   .     S
C269   N307    1.367   .     A
C269   H302    1.082   .     S
C270   H303    1.082   .     S
C270   N308    1.367   .     A
C270   C333    1.417   .     S
C271   O316    1.288   .     A
C271   O317    1.287   .     A
C272   O319    1.294   .     A
C272   O318    1.291   .     A
C272   C274    1.456   .     S
C273   C288    1.398   .     A
C273   C857    1.489   1_554 S
C273   C860    1.418   1_554 S
C274   C288    1.395   .     A
C274   C287    1.394   .     A
C275   H305    1.083   .     S
C275   C276    1.388   .     A
C276   C853    1.391   .     S
C276   H868    1.083   .     S
C277   H306    1.076   .     S
C277   C852    1.391   1_554 S
C277   C844    1.417   1_554 S
C278   O320    1.221   .     D
C278   H294    1.083   .     S
C279   C286    1.414   .     A
C280   O310    1.221   .     D
C280   H295    1.083   .     S
C281   H296    1.083   .     S
C281   C849    1.489   .     S
C281   O951    1.222   .     S
C282   H298    1.085   .     S
C282   O312    1.221   .     D
C283   C287    1.397   .     A
C283   C844    1.428   1_554 S
C283   C860    1.425   1_554 S
C284   C285    1.393   .     A
C284   C859    1.425   .     S
C284   C849    1.418   .     S
C285   C286    1.381   .     A
C285   H304    1.082   .     S
C286   H293    1.076   .     S
C287   H297    1.076   .     S
C288   H291    1.084   .     S
Cu289  N307    2.012   .     S
Cu289  Cu290   2.678   .     S
Cu289  O314    1.967   .     S
Cu289  O316    1.954   .     S
Cu289  O309    1.955   .     S
Cu289  O318    1.961   .     S
Cu290  O313    1.954   .     S
Cu290  N308    2.012   .     S
Cu290  O315    1.961   .     S
Cu290  O319    1.967   .     S
Cu290  O317    1.955   .     S
H292   C852    1.083   1_554 S
O311   C793    1.222   1_554 S
C321   O377    1.288   .     A
C321   O373    1.287   .     A
C321   C329    1.442   .     S
C322   C324    1.483   .     S
C322   C343    1.432   .     A
C322   C339    1.401   .     A
C323   C329    1.409   .     A
C323   C346    1.491   .     S
C323   C517    1.411   .     S
C324   O379    1.286   .     A
C324   O378    1.311   .     A
C325   C326    1.418   .     A
C325   C342    1.493   .     S
C326   C327    1.412   .     A
C326   C335    1.446   .     S
C327   C344    1.491   .     S
C328   C329    1.391   .     A
C328   H363    1.085   .     S
C328   C519    1.389   .     S
C330   N372    1.367   .     A
C330   H364    1.082   .     S
C330   C203    1.417   1_655 S
C331   H365    1.082   .     S
C331   N371    1.367   .     A
C332   C343    1.417   .     A
C332   C917    1.417   .     S
C332   C923    1.428   .     S
C333   N371    1.367   .     A
C333   H366    1.082   .     S
C334   H367    1.082   .     S
C334   N372    1.367   .     A
C334   C205    1.417   1_655 S
C335   O380    1.288   .     A
C335   O381    1.287   .     A
C336   O383    1.294   .     A
C336   O382    1.291   .     A
C336   C338    1.456   .     S
C337   C352    1.398   .     A
C337   C921    1.489   1_554 S
C337   C924    1.418   1_554 S
C338   C352    1.395   .     A
C338   C351    1.394   .     A
C339   H369    1.083   .     S
C339   C340    1.388   .     A
C340   C917    1.391   .     S
C340   H932    1.083   .     S
C341   H370    1.076   .     S
C341   C916    1.391   1_554 S
C341   C908    1.417   1_554 S
C342   O384    1.221   .     D
C342   H358    1.083   .     S
C343   C350    1.414   .     A
C344   O374    1.221   .     D
C344   H359    1.083   .     S
C345   H360    1.083   .     S
C345   C913    1.489   .     S
C345   O823    1.222   1_655 S
C346   H362    1.085   .     S
C346   O376    1.221   .     D
C347   C351    1.397   .     A
C347   C908    1.428   1_554 S
C347   C924    1.425   1_554 S
C348   C349    1.393   .     A
C348   C923    1.425   .     S
C348   C913    1.418   .     S
C349   C350    1.381   .     A
C349   H368    1.082   .     S
C350   H357    1.076   .     S
C351   H361    1.076   .     S
C352   H355    1.084   .     S
Cu353  N371    2.012   .     S
Cu353  Cu354   2.678   .     S
Cu353  O378    1.967   .     S
Cu353  O380    1.954   .     S
Cu353  O373    1.955   .     S
Cu353  O382    1.961   .     S
Cu354  O377    1.954   .     S
Cu354  N372    2.012   .     S
Cu354  O379    1.961   .     S
Cu354  O383    1.967   .     S
Cu354  O381    1.955   .     S
H356   C916    1.083   1_554 S
O375   C857    1.222   1_554 S
C385   O441    1.288   .     A
C385   O437    1.287   .     A
C385   C393    1.442   .     S
C386   C388    1.483   .     S
C386   C407    1.432   .     A
C386   C403    1.401   .     A
C387   C393    1.409   .     A
C387   C410    1.491   .     S
C387   C5      1.411   1_565 S
C388   O443    1.286   .     A
C388   O442    1.311   .     A
C389   C390    1.418   .     A
C389   C406    1.493   .     S
C390   C391    1.412   .     A
C390   C399    1.446   .     S
C391   C408    1.491   .     S
C392   C393    1.391   .     A
C392   H427    1.085   .     S
C392   C7      1.389   1_565 S
C394   N436    1.367   .     A
C394   H428    1.082   .     S
C394   C459    1.417   .     S
C395   H429    1.082   .     S
C395   N435    1.367   .     A
C395   C522    1.417   1_455 S
C396   C407    1.417   .     A
C396   C981    1.417   .     S
C396   C987    1.428   .     S
C397   N435    1.367   .     A
C397   H430    1.082   .     S
C397   C526    1.417   1_455 S
C398   H431    1.082   .     S
C398   N436    1.367   .     A
C398   C461    1.417   .     S
C399   O444    1.288   .     A
C399   O445    1.287   .     A
C400   O447    1.294   .     A
C400   O446    1.291   .     A
C400   C402    1.456   .     S
C401   C416    1.398   .     A
C401   C985    1.489   1_554 S
C401   C988    1.418   1_554 S
C402   C416    1.395   .     A
C402   C415    1.394   .     A
C403   H433    1.083   .     S
C403   C404    1.388   .     A
C404   C981    1.391   .     S
C404   H996    1.083   .     S
C405   H434    1.076   .     S
C405   C980    1.391   1_554 S
C405   C972    1.417   1_554 S
C406   O448    1.221   .     D
C406   H422    1.083   .     S
C407   C414    1.414   .     A
C408   O438    1.221   .     D
C408   H423    1.083   .     S
C409   H424    1.083   .     S
C409   C977    1.489   .     S
C409   O1079   1.222   .     S
C410   H426    1.085   .     S
C410   O440    1.221   .     D
C411   C415    1.397   .     A
C411   C972    1.428   1_554 S
C411   C988    1.425   1_554 S
C412   C413    1.393   .     A
C412   C987    1.425   .     S
C412   C977    1.418   .     S
C413   C414    1.381   .     A
C413   H432    1.082   .     S
C414   H421    1.076   .     S
C415   H425    1.076   .     S
C416   H419    1.084   .     S
Cu417  N435    2.012   .     S
Cu417  Cu418   2.678   .     S
Cu417  O442    1.967   .     S
Cu417  O444    1.954   .     S
Cu417  O437    1.955   .     S
Cu417  O446    1.961   .     S
Cu418  O441    1.954   .     S
Cu418  N436    2.012   .     S
Cu418  O443    1.961   .     S
Cu418  O447    1.967   .     S
Cu418  O445    1.955   .     S
H420   C980    1.083   1_554 S
O439   C1113   1.222   1_454 S
C449   O505    1.288   .     A
C449   O501    1.287   .     A
C449   C457    1.442   .     S
C450   C452    1.483   .     S
C450   C471    1.432   .     A
C450   C467    1.401   .     A
C451   C457    1.409   .     A
C451   C474    1.491   .     S
C451   C69     1.411   1_565 S
C452   O507    1.286   .     A
C452   O506    1.311   .     A
C453   C454    1.418   .     A
C453   C470    1.493   .     S
C454   C455    1.412   .     A
C454   C463    1.446   .     S
C455   C472    1.491   .     S
C456   C457    1.391   .     A
C456   H491    1.085   .     S
C456   C71     1.389   1_565 S
C458   N500    1.367   .     A
C458   H492    1.082   .     S
C458   C523    1.417   .     S
C459   H493    1.082   .     S
C459   N499    1.367   .     A
C460   C471    1.417   .     A
C460   C1045   1.417   .     S
C460   C1051   1.428   .     S
C461   N499    1.367   .     A
C461   H494    1.082   .     S
C462   H495    1.082   .     S
C462   N500    1.367   .     A
C462   C525    1.417   .     S
C463   O508    1.288   .     A
C463   O509    1.287   .     A
C464   O511    1.294   .     A
C464   O510    1.291   .     A
C464   C466    1.456   .     S
C465   C480    1.398   .     A
C465   C1049   1.489   1_554 S
C465   C1052   1.418   1_554 S
C466   C480    1.395   .     A
C466   C479    1.394   .     A
C467   H497    1.083   .     S
C467   C468    1.388   .     A
C468   C1045   1.391   .     S
C468   H1060   1.083   .     S
C469   H498    1.076   .     S
C469   C1044   1.391   1_554 S
C469   C1036   1.417   1_554 S
C470   O512    1.221   .     D
C470   H486    1.083   .     S
C471   C478    1.414   .     A
C472   O502    1.221   .     D
C472   H487    1.083   .     S
C473   H488    1.083   .     S
C473   C1041   1.489   .     S
C473   O1143   1.222   .     S
C474   H490    1.085   .     S
C474   O504    1.221   .     D
C475   C479    1.397   .     A
C475   C1036   1.428   1_554 S
C475   C1052   1.425   1_554 S
C476   C477    1.393   .     A
C476   C1051   1.425   .     S
C476   C1041   1.418   .     S
C477   C478    1.381   .     A
C477   H496    1.082   .     S
C478   H485    1.076   .     S
C479   H489    1.076   .     S
C480   H483    1.084   .     S
Cu481  N499    2.012   .     S
Cu481  Cu482   2.678   .     S
Cu481  O506    1.967   .     S
Cu481  O508    1.954   .     S
Cu481  O501    1.955   .     S
Cu481  O510    1.961   .     S
Cu482  O505    1.954   .     S
Cu482  N500    2.012   .     S
Cu482  O507    1.961   .     S
Cu482  O511    1.967   .     S
Cu482  O509    1.955   .     S
H484   C1044   1.083   1_554 S
O503   C985    1.222   1_554 S
C513   O569    1.288   .     A
C513   O565    1.287   .     A
C513   C521    1.442   .     S
C514   C516    1.483   .     S
C514   C535    1.432   .     A
C514   C531    1.401   .     A
C515   C521    1.409   .     A
C515   C538    1.491   .     S
C515   C133    1.411   1_565 S
C516   O571    1.286   .     A
C516   O570    1.311   .     A
C517   C518    1.418   .     A
C517   C534    1.493   .     S
C518   C519    1.412   .     A
C518   C527    1.446   .     S
C519   C536    1.491   .     S
C520   C521    1.391   .     A
C520   H555    1.085   .     S
C520   C135    1.389   1_565 S
C522   N564    1.367   .     A
C522   H556    1.082   .     S
C522   C395    1.417   1_655 S
C523   H557    1.082   .     S
C523   N563    1.367   .     A
C524   C535    1.417   .     A
C524   C1109   1.417   .     S
C524   C1115   1.428   .     S
C525   N563    1.367   .     A
C525   H558    1.082   .     S
C526   H559    1.082   .     S
C526   N564    1.367   .     A
C526   C397    1.417   1_655 S
C527   O572    1.288   .     A
C527   O573    1.287   .     A
C528   O575    1.294   .     A
C528   O574    1.291   .     A
C528   C530    1.456   .     S
C529   C544    1.398   .     A
C529   C1113   1.489   1_554 S
C529   C1116   1.418   1_554 S
C530   C544    1.395   .     A
C530   C543    1.394   .     A
C531   H561    1.083   .     S
C531   C532    1.388   .     A
C532   C1109   1.391   .     S
C532   H1124   1.083   .     S
C533   H562    1.076   .     S
C533   C1108   1.391   1_554 S
C533   C1100   1.417   1_554 S
C534   O576    1.221   .     D
C534   H550    1.083   .     S
C535   C542    1.414   .     A
C536   O566    1.221   .     D
C536   H551    1.083   .     S
C537   H552    1.083   .     S
C537   C1105   1.489   .     S
C537   O1015   1.222   1_655 S
C538   H554    1.085   .     S
C538   O568    1.221   .     D
C539   C543    1.397   .     A
C539   C1100   1.428   1_554 S
C539   C1116   1.425   1_554 S
C540   C541    1.393   .     A
C540   C1115   1.425   .     S
C540   C1105   1.418   .     S
C541   C542    1.381   .     A
C541   H560    1.082   .     S
C542   H549    1.076   .     S
C543   H553    1.076   .     S
C544   H547    1.084   .     S
Cu545  N563    2.012   .     S
Cu545  Cu546   2.678   .     S
Cu545  O570    1.967   .     S
Cu545  O572    1.954   .     S
Cu545  O565    1.955   .     S
Cu545  O574    1.961   .     S
Cu546  O569    1.954   .     S
Cu546  N564    2.012   .     S
Cu546  O571    1.961   .     S
Cu546  O575    1.967   .     S
Cu546  O573    1.955   .     S
H548   C1108   1.083   1_554 S
O567   C1049   1.222   1_554 S
C577   O633    1.288   .     A
C577   O629    1.287   .     A
C577   C585    1.442   .     S
C578   C580    1.483   .     S
C578   C599    1.432   .     A
C578   C595    1.401   .     A
C579   C585    1.409   .     A
C579   C602    1.491   .     S
C579   C773    1.411   .     S
C580   O635    1.286   .     A
C580   O634    1.311   .     A
C581   C582    1.418   .     A
C581   C598    1.493   .     S
C581   C963    1.411   1_545 S
C582   C583    1.412   .     A
C582   C591    1.446   .     S
C583   C600    1.491   .     S
C583   C968    1.389   1_545 S
C584   C585    1.391   .     A
C584   H619    1.085   .     S
C584   C775    1.389   .     S
C586   N628    1.367   .     A
C586   H620    1.082   .     S
C586   C651    1.417   .     S
C587   H621    1.082   .     S
C587   N627    1.367   .     A
C587   C714    1.417   1_455 S
C588   C599    1.417   .     A
C588   C21     1.417   1_556 S
C588   C27     1.428   1_556 S
C589   N627    1.367   .     A
C589   H622    1.082   .     S
C589   C718    1.417   1_455 S
C590   H623    1.082   .     S
C590   N628    1.367   .     A
C590   C653    1.417   .     S
C591   O636    1.288   .     A
C591   O637    1.287   .     A
C592   O639    1.294   .     A
C592   O638    1.291   .     A
C592   C594    1.456   .     S
C593   C608    1.398   .     A
C594   C608    1.395   .     A
C594   C607    1.394   .     A
C595   H625    1.083   .     S
C595   C596    1.388   .     A
C596   C21     1.391   1_556 S
C596   H36     1.083   1_556 S
C597   H626    1.076   .     S
C598   O640    1.221   .     D
C598   H614    1.083   .     S
C599   C606    1.414   .     A
C600   O630    1.221   .     D
C600   H615    1.083   .     S
C601   H616    1.083   .     S
C601   C17     1.489   1_556 S
C601   O119    1.222   1_556 S
C602   H618    1.085   .     S
C602   O632    1.221   .     D
C603   C607    1.397   .     A
C604   C605    1.393   .     A
C604   C27     1.425   1_556 S
C604   C17     1.418   1_556 S
C605   C606    1.381   .     A
C605   H624    1.082   .     S
C606   H613    1.076   .     S
C607   H617    1.076   .     S
C608   H611    1.084   .     S
Cu609  N627    2.012   .     S
Cu609  Cu610   2.678   .     S
Cu609  O634    1.967   .     S
Cu609  O636    1.954   .     S
Cu609  O629    1.955   .     S
Cu609  O638    1.961   .     S
Cu610  O633    1.954   .     S
Cu610  N628    2.012   .     S
Cu610  O635    1.961   .     S
Cu610  O639    1.967   .     S
Cu610  O637    1.955   .     S
O631   C153    1.222   1_455 S
C641   O697    1.288   .     A
C641   O693    1.287   .     A
C641   C649    1.442   .     S
C642   C644    1.483   .     S
C642   C663    1.432   .     A
C642   C659    1.401   .     A
C643   C649    1.409   .     A
C643   C666    1.491   .     S
C643   C837    1.411   .     S
C644   O699    1.286   .     A
C644   O698    1.311   .     A
C645   C646    1.418   .     A
C645   C662    1.493   .     S
C645   C1027   1.411   1_545 S
C646   C647    1.412   .     A
C646   C655    1.446   .     S
C647   C664    1.491   .     S
C647   C1032   1.389   1_545 S
C648   C649    1.391   .     A
C648   H683    1.085   .     S
C648   C839    1.389   .     S
C650   N692    1.367   .     A
C650   H684    1.082   .     S
C650   C715    1.417   .     S
C651   H685    1.082   .     S
C651   N691    1.367   .     A
C652   C663    1.417   .     A
C652   C85     1.417   1_556 S
C652   C91     1.428   1_556 S
C653   N691    1.367   .     A
C653   H686    1.082   .     S
C654   H687    1.082   .     S
C654   N692    1.367   .     A
C654   C717    1.417   .     S
C655   O700    1.288   .     A
C655   O701    1.287   .     A
C656   O703    1.294   .     A
C656   O702    1.291   .     A
C656   C658    1.456   .     S
C657   C672    1.398   .     A
C658   C672    1.395   .     A
C658   C671    1.394   .     A
C659   H689    1.083   .     S
C659   C660    1.388   .     A
C660   C85     1.391   1_556 S
C660   H100    1.083   1_556 S
C661   H690    1.076   .     S
C662   O704    1.221   .     D
C662   H678    1.083   .     S
C663   C670    1.414   .     A
C664   O694    1.221   .     D
C664   H679    1.083   .     S
C665   H680    1.083   .     S
C665   C81     1.489   1_556 S
C665   O183    1.222   1_556 S
C666   H682    1.085   .     S
C666   O696    1.221   .     D
C667   C671    1.397   .     A
C668   C669    1.393   .     A
C668   C91     1.425   1_556 S
C668   C81     1.418   1_556 S
C669   C670    1.381   .     A
C669   H688    1.082   .     S
C670   H677    1.076   .     S
C671   H681    1.076   .     S
C672   H675    1.084   .     S
Cu673  N691    2.012   .     S
Cu673  Cu674   2.678   .     S
Cu673  O698    1.967   .     S
Cu673  O700    1.954   .     S
Cu673  O693    1.955   .     S
Cu673  O702    1.961   .     S
Cu674  O697    1.954   .     S
Cu674  N692    2.012   .     S
Cu674  O699    1.961   .     S
Cu674  O703    1.967   .     S
Cu674  O701    1.955   .     S
C705   O761    1.288   .     A
C705   O757    1.287   .     A
C705   C713    1.442   .     S
C706   C708    1.483   .     S
C706   C727    1.432   .     A
C706   C723    1.401   .     A
C707   C713    1.409   .     A
C707   C730    1.491   .     S
C707   C901    1.411   .     S
C708   O763    1.286   .     A
C708   O762    1.311   .     A
C709   C710    1.418   .     A
C709   C726    1.493   .     S
C709   C1091   1.411   1_545 S
C710   C711    1.412   .     A
C710   C719    1.446   .     S
C711   C728    1.491   .     S
C711   C1096   1.389   1_545 S
C712   C713    1.391   .     A
C712   H747    1.085   .     S
C712   C903    1.389   .     S
C714   N756    1.367   .     A
C714   H748    1.082   .     S
C714   C587    1.417   1_655 S
C715   H749    1.082   .     S
C715   N755    1.367   .     A
C716   C727    1.417   .     A
C716   C149    1.417   1_556 S
C716   C155    1.428   1_556 S
C717   N755    1.367   .     A
C717   H750    1.082   .     S
C718   H751    1.082   .     S
C718   N756    1.367   .     A
C718   C589    1.417   1_655 S
C719   O764    1.288   .     A
C719   O765    1.287   .     A
C720   O767    1.294   .     A
C720   O766    1.291   .     A
C720   C722    1.456   .     S
C721   C736    1.398   .     A
C722   C736    1.395   .     A
C722   C735    1.394   .     A
C723   H753    1.083   .     S
C723   C724    1.388   .     A
C724   C149    1.391   1_556 S
C724   H164    1.083   1_556 S
C725   H754    1.076   .     S
C726   O768    1.221   .     D
C726   H742    1.083   .     S
C727   C734    1.414   .     A
C728   O758    1.221   .     D
C728   H743    1.083   .     S
C729   H744    1.083   .     S
C729   C145    1.489   1_556 S
C729   O55     1.222   1_656 S
C730   H746    1.085   .     S
C730   O760    1.221   .     D
C731   C735    1.397   .     A
C732   C733    1.393   .     A
C732   C155    1.425   1_556 S
C732   C145    1.418   1_556 S
C733   C734    1.381   .     A
C733   H752    1.082   .     S
C734   H741    1.076   .     S
C735   H745    1.076   .     S
C736   H739    1.084   .     S
Cu737  N755    2.012   .     S
Cu737  Cu738   2.678   .     S
Cu737  O762    1.967   .     S
Cu737  O764    1.954   .     S
Cu737  O757    1.955   .     S
Cu737  O766    1.961   .     S
Cu738  O761    1.954   .     S
Cu738  N756    2.012   .     S
Cu738  O763    1.961   .     S
Cu738  O767    1.967   .     S
Cu738  O765    1.955   .     S
C769   O825    1.288   .     A
C769   O821    1.287   .     A
C769   C777    1.442   .     S
C770   C772    1.483   .     S
C770   C791    1.432   .     A
C770   C787    1.401   .     A
C771   C777    1.409   .     A
C771   C794    1.491   .     S
C771   C965    1.411   .     S
C772   O827    1.286   .     A
C772   O826    1.311   .     A
C773   C774    1.418   .     A
C773   C790    1.493   .     S
C774   C775    1.412   .     A
C774   C783    1.446   .     S
C775   C792    1.491   .     S
C776   C777    1.391   .     A
C776   H811    1.085   .     S
C776   C967    1.389   .     S
C778   N820    1.367   .     A
C778   H812    1.082   .     S
C778   C843    1.417   .     S
C779   H813    1.082   .     S
C779   N819    1.367   .     A
C779   C906    1.417   1_455 S
C780   C791    1.417   .     A
C780   C213    1.417   1_556 S
C780   C219    1.428   1_556 S
C781   N819    1.367   .     A
C781   H814    1.082   .     S
C781   C910    1.417   1_455 S
C782   H815    1.082   .     S
C782   N820    1.367   .     A
C782   C845    1.417   .     S
C783   O828    1.288   .     A
C783   O829    1.287   .     A
C784   O831    1.294   .     A
C784   O830    1.291   .     A
C784   C786    1.456   .     S
C785   C800    1.398   .     A
C786   C800    1.395   .     A
C786   C799    1.394   .     A
C787   H817    1.083   .     S
C787   C788    1.388   .     A
C788   C213    1.391   1_556 S
C788   H228    1.083   1_556 S
C789   H818    1.076   .     S
C790   O832    1.221   .     D
C790   H806    1.083   .     S
C791   C798    1.414   .     A
C792   O822    1.221   .     D
C792   H807    1.083   .     S
C793   H808    1.083   .     S
C793   C209    1.489   1_556 S
C793   O311    1.222   1_556 S
C794   H810    1.085   .     S
C794   O824    1.221   .     D
C795   C799    1.397   .     A
C796   C797    1.393   .     A
C796   C219    1.425   1_556 S
C796   C209    1.418   1_556 S
C797   C798    1.381   .     A
C797   H816    1.082   .     S
C798   H805    1.076   .     S
C799   H809    1.076   .     S
C800   H803    1.084   .     S
Cu801  N819    2.012   .     S
Cu801  Cu802   2.678   .     S
Cu801  O826    1.967   .     S
Cu801  O828    1.954   .     S
Cu801  O821    1.955   .     S
Cu801  O830    1.961   .     S
Cu802  O825    1.954   .     S
Cu802  N820    2.012   .     S
Cu802  O827    1.961   .     S
Cu802  O831    1.967   .     S
Cu802  O829    1.955   .     S
O823   C345    1.222   1_455 S
C833   O889    1.288   .     A
C833   O885    1.287   .     A
C833   C841    1.442   .     S
C834   C836    1.483   .     S
C834   C855    1.432   .     A
C834   C851    1.401   .     A
C835   C841    1.409   .     A
C835   C858    1.491   .     S
C835   C1029   1.411   .     S
C836   O891    1.286   .     A
C836   O890    1.311   .     A
C837   C838    1.418   .     A
C837   C854    1.493   .     S
C838   C839    1.412   .     A
C838   C847    1.446   .     S
C839   C856    1.491   .     S
C840   C841    1.391   .     A
C840   H875    1.085   .     S
C840   C1031   1.389   .     S
C842   N884    1.367   .     A
C842   H876    1.082   .     S
C842   C907    1.417   .     S
C843   H877    1.082   .     S
C843   N883    1.367   .     A
C844   C855    1.417   .     A
C844   C277    1.417   1_556 S
C844   C283    1.428   1_556 S
C845   N883    1.367   .     A
C845   H878    1.082   .     S
C846   H879    1.082   .     S
C846   N884    1.367   .     A
C846   C909    1.417   .     S
C847   O892    1.288   .     A
C847   O893    1.287   .     A
C848   O895    1.294   .     A
C848   O894    1.291   .     A
C848   C850    1.456   .     S
C849   C864    1.398   .     A
C850   C864    1.395   .     A
C850   C863    1.394   .     A
C851   H881    1.083   .     S
C851   C852    1.388   .     A
C852   C277    1.391   1_556 S
C852   H292    1.083   1_556 S
C853   H882    1.076   .     S
C854   O896    1.221   .     D
C854   H870    1.083   .     S
C855   C862    1.414   .     A
C856   O886    1.221   .     D
C856   H871    1.083   .     S
C857   H872    1.083   .     S
C857   C273    1.489   1_556 S
C857   O375    1.222   1_556 S
C858   H874    1.085   .     S
C858   O888    1.221   .     D
C859   C863    1.397   .     A
C860   C861    1.393   .     A
C860   C283    1.425   1_556 S
C860   C273    1.418   1_556 S
C861   C862    1.381   .     A
C861   H880    1.082   .     S
C862   H869    1.076   .     S
C863   H873    1.076   .     S
C864   H867    1.084   .     S
Cu865  N883    2.012   .     S
Cu865  Cu866   2.678   .     S
Cu865  O890    1.967   .     S
Cu865  O892    1.954   .     S
Cu865  O885    1.955   .     S
Cu865  O894    1.961   .     S
Cu866  O889    1.954   .     S
Cu866  N884    2.012   .     S
Cu866  O891    1.961   .     S
Cu866  O895    1.967   .     S
Cu866  O893    1.955   .     S
C897   O953    1.288   .     A
C897   O949    1.287   .     A
C897   C905    1.442   .     S
C898   C900    1.483   .     S
C898   C919    1.432   .     A
C898   C915    1.401   .     A
C899   C905    1.409   .     A
C899   C922    1.491   .     S
C899   C1093   1.411   .     S
C900   O955    1.286   .     A
C900   O954    1.311   .     A
C901   C902    1.418   .     A
C901   C918    1.493   .     S
C902   C903    1.412   .     A
C902   C911    1.446   .     S
C903   C920    1.491   .     S
C904   C905    1.391   .     A
C904   H939    1.085   .     S
C904   C1095   1.389   .     S
C906   N948    1.367   .     A
C906   H940    1.082   .     S
C906   C779    1.417   1_655 S
C907   H941    1.082   .     S
C907   N947    1.367   .     A
C908   C919    1.417   .     A
C908   C341    1.417   1_556 S
C908   C347    1.428   1_556 S
C909   N947    1.367   .     A
C909   H942    1.082   .     S
C910   H943    1.082   .     S
C910   N948    1.367   .     A
C910   C781    1.417   1_655 S
C911   O956    1.288   .     A
C911   O957    1.287   .     A
C912   O959    1.294   .     A
C912   O958    1.291   .     A
C912   C914    1.456   .     S
C913   C928    1.398   .     A
C914   C928    1.395   .     A
C914   C927    1.394   .     A
C915   H945    1.083   .     S
C915   C916    1.388   .     A
C916   C341    1.391   1_556 S
C916   H356    1.083   1_556 S
C917   H946    1.076   .     S
C918   O960    1.221   .     D
C918   H934    1.083   .     S
C919   C926    1.414   .     A
C920   O950    1.221   .     D
C920   H935    1.083   .     S
C921   H936    1.083   .     S
C921   C337    1.489   1_556 S
C921   O247    1.222   1_656 S
C922   H938    1.085   .     S
C922   O952    1.221   .     D
C923   C927    1.397   .     A
C924   C925    1.393   .     A
C924   C347    1.425   1_556 S
C924   C337    1.418   1_556 S
C925   C926    1.381   .     A
C925   H944    1.082   .     S
C926   H933    1.076   .     S
C927   H937    1.076   .     S
C928   H931    1.084   .     S
Cu929  N947    2.012   .     S
Cu929  Cu930   2.678   .     S
Cu929  O954    1.967   .     S
Cu929  O956    1.954   .     S
Cu929  O949    1.955   .     S
Cu929  O958    1.961   .     S
Cu930  O953    1.954   .     S
Cu930  N948    2.012   .     S
Cu930  O955    1.961   .     S
Cu930  O959    1.967   .     S
Cu930  O957    1.955   .     S
C961   O1017   1.288   .     A
C961   O1013   1.287   .     A
C961   C969    1.442   .     S
C962   C964    1.483   .     S
C962   C983    1.432   .     A
C962   C979    1.401   .     A
C963   C969    1.409   .     A
C963   C986    1.491   .     S
C963   C581    1.411   1_565 S
C964   O1019   1.286   .     A
C964   O1018   1.311   .     A
C965   C966    1.418   .     A
C965   C982    1.493   .     S
C966   C967    1.412   .     A
C966   C975    1.446   .     S
C967   C984    1.491   .     S
C968   C969    1.391   .     A
C968   H1003   1.085   .     S
C968   C583    1.389   1_565 S
C970   N1012   1.367   .     A
C970   H1004   1.082   .     S
C970   C1035   1.417   .     S
C971   H1005   1.082   .     S
C971   N1011   1.367   .     A
C971   C1098   1.417   1_455 S
C972   C983    1.417   .     A
C972   C405    1.417   1_556 S
C972   C411    1.428   1_556 S
C973   N1011   1.367   .     A
C973   H1006   1.082   .     S
C973   C1102   1.417   1_455 S
C974   H1007   1.082   .     S
C974   N1012   1.367   .     A
C974   C1037   1.417   .     S
C975   O1020   1.288   .     A
C975   O1021   1.287   .     A
C976   O1023   1.294   .     A
C976   O1022   1.291   .     A
C976   C978    1.456   .     S
C977   C992    1.398   .     A
C978   C992    1.395   .     A
C978   C991    1.394   .     A
C979   H1009   1.083   .     S
C979   C980    1.388   .     A
C980   C405    1.391   1_556 S
C980   H420    1.083   1_556 S
C981   H1010   1.076   .     S
C982   O1024   1.221   .     D
C982   H998    1.083   .     S
C983   C990    1.414   .     A
C984   O1014   1.221   .     D
C984   H999    1.083   .     S
C985   H1000   1.083   .     S
C985   C401    1.489   1_556 S
C985   O503    1.222   1_556 S
C986   H1002   1.085   .     S
C986   O1016   1.221   .     D
C987   C991    1.397   .     A
C988   C989    1.393   .     A
C988   C411    1.425   1_556 S
C988   C401    1.418   1_556 S
C989   C990    1.381   .     A
C989   H1008   1.082   .     S
C990   H997    1.076   .     S
C991   H1001   1.076   .     S
C992   H995    1.084   .     S
Cu993  N1011   2.012   .     S
Cu993  Cu994   2.678   .     S
Cu993  O1018   1.967   .     S
Cu993  O1020   1.954   .     S
Cu993  O1013   1.955   .     S
Cu993  O1022   1.961   .     S
Cu994  O1017   1.954   .     S
Cu994  N1012   2.012   .     S
Cu994  O1019   1.961   .     S
Cu994  O1023   1.967   .     S
Cu994  O1021   1.955   .     S
O1015  C537    1.222   1_455 S
C1025  O1081   1.288   .     A
C1025  O1077   1.287   .     A
C1025  C1033   1.442   .     S
C1026  C1028   1.483   .     S
C1026  C1047   1.432   .     A
C1026  C1043   1.401   .     A
C1027  C1033   1.409   .     A
C1027  C1050   1.491   .     S
C1027  C645    1.411   1_565 S
C1028  O1083   1.286   .     A
C1028  O1082   1.311   .     A
C1029  C1030   1.418   .     A
C1029  C1046   1.493   .     S
C1030  C1031   1.412   .     A
C1030  C1039   1.446   .     S
C1031  C1048   1.491   .     S
C1032  C1033   1.391   .     A
C1032  H1067   1.085   .     S
C1032  C647    1.389   1_565 S
C1034  N1076   1.367   .     A
C1034  H1068   1.082   .     S
C1034  C1099   1.417   .     S
C1035  H1069   1.082   .     S
C1035  N1075   1.367   .     A
C1036  C1047   1.417   .     A
C1036  C469    1.417   1_556 S
C1036  C475    1.428   1_556 S
C1037  N1075   1.367   .     A
C1037  H1070   1.082   .     S
C1038  H1071   1.082   .     S
C1038  N1076   1.367   .     A
C1038  C1101   1.417   .     S
C1039  O1084   1.288   .     A
C1039  O1085   1.287   .     A
C1040  O1087   1.294   .     A
C1040  O1086   1.291   .     A
C1040  C1042   1.456   .     S
C1041  C1056   1.398   .     A
C1042  C1056   1.395   .     A
C1042  C1055   1.394   .     A
C1043  H1073   1.083   .     S
C1043  C1044   1.388   .     A
C1044  C469    1.391   1_556 S
C1044  H484    1.083   1_556 S
C1045  H1074   1.076   .     S
C1046  O1088   1.221   .     D
C1046  H1062   1.083   .     S
C1047  C1054   1.414   .     A
C1048  O1078   1.221   .     D
C1048  H1063   1.083   .     S
C1049  H1064   1.083   .     S
C1049  C465    1.489   1_556 S
C1049  O567    1.222   1_556 S
C1050  H1066   1.085   .     S
C1050  O1080   1.221   .     D
C1051  C1055   1.397   .     A
C1052  C1053   1.393   .     A
C1052  C475    1.425   1_556 S
C1052  C465    1.418   1_556 S
C1053  C1054   1.381   .     A
C1053  H1072   1.082   .     S
C1054  H1061   1.076   .     S
C1055  H1065   1.076   .     S
C1056  H1059   1.084   .     S
Cu1057 N1075   2.012   .     S
Cu1057 Cu1058  2.678   .     S
Cu1057 O1082   1.967   .     S
Cu1057 O1084   1.954   .     S
Cu1057 O1077   1.955   .     S
Cu1057 O1086   1.961   .     S
Cu1058 O1081   1.954   .     S
Cu1058 N1076   2.012   .     S
Cu1058 O1083   1.961   .     S
Cu1058 O1087   1.967   .     S
Cu1058 O1085   1.955   .     S
C1089  O1145   1.288   .     A
C1089  O1141   1.287   .     A
C1089  C1097   1.442   .     S
C1090  C1092   1.483   .     S
C1090  C1111   1.432   .     A
C1090  C1107   1.401   .     A
C1091  C1097   1.409   .     A
C1091  C1114   1.491   .     S
C1091  C709    1.411   1_565 S
C1092  O1147   1.286   .     A
C1092  O1146   1.311   .     A
C1093  C1094   1.418   .     A
C1093  C1110   1.493   .     S
C1094  C1095   1.412   .     A
C1094  C1103   1.446   .     S
C1095  C1112   1.491   .     S
C1096  C1097   1.391   .     A
C1096  H1131   1.085   .     S
C1096  C711    1.389   1_565 S
C1098  N1140   1.367   .     A
C1098  H1132   1.082   .     S
C1098  C971    1.417   1_655 S
C1099  H1133   1.082   .     S
C1099  N1139   1.367   .     A
C1100  C1111   1.417   .     A
C1100  C533    1.417   1_556 S
C1100  C539    1.428   1_556 S
C1101  N1139   1.367   .     A
C1101  H1134   1.082   .     S
C1102  H1135   1.082   .     S
C1102  N1140   1.367   .     A
C1102  C973    1.417   1_655 S
C1103  O1148   1.288   .     A
C1103  O1149   1.287   .     A
C1104  O1151   1.294   .     A
C1104  O1150   1.291   .     A
C1104  C1106   1.456   .     S
C1105  C1120   1.398   .     A
C1106  C1120   1.395   .     A
C1106  C1119   1.394   .     A
C1107  H1137   1.083   .     S
C1107  C1108   1.388   .     A
C1108  C533    1.391   1_556 S
C1108  H548    1.083   1_556 S
C1109  H1138   1.076   .     S
C1110  O1152   1.221   .     D
C1110  H1126   1.083   .     S
C1111  C1118   1.414   .     A
C1112  O1142   1.221   .     D
C1112  H1127   1.083   .     S
C1113  H1128   1.083   .     S
C1113  C529    1.489   1_556 S
C1113  O439    1.222   1_656 S
C1114  H1130   1.085   .     S
C1114  O1144   1.221   .     D
C1115  C1119   1.397   .     A
C1116  C1117   1.393   .     A
C1116  C539    1.425   1_556 S
C1116  C529    1.418   1_556 S
C1117  C1118   1.381   .     A
C1117  H1136   1.082   .     S
C1118  H1125   1.076   .     S
C1119  H1129   1.076   .     S
C1120  H1123   1.084   .     S
Cu1121 N1139   2.012   .     S
Cu1121 Cu1122  2.678   .     S
Cu1121 O1146   1.967   .     S
Cu1121 O1148   1.954   .     S
Cu1121 O1141   1.955   .     S
Cu1121 O1150   1.961   .     S
Cu1122 O1145   1.954   .     S
Cu1122 N1140   2.012   .     S
Cu1122 O1147   1.961   .     S
Cu1122 O1151   1.967   .     S
Cu1122 O1149   1.955   .     S
