data_str_m2_o10_o16_pcu_sym.35
_audit_creation_date              2020-01-03
_audit_creation_method            'Materials Studio'
_symmetry_space_group_name_H-M    'P1'
_symmetry_Int_Tables_number       1
_symmetry_cell_setting            triclinic
loop_
_symmetry_equiv_pos_as_xyz
  x,y,z
_cell_length_a                    22.5517
_cell_length_b                    26.2973
_cell_length_c                    26.8184
_cell_angle_alpha                 96.8296
_cell_angle_beta                  78.0665
_cell_angle_gamma                 103.2569
loop_
_atom_site_label
_atom_site_type_symbol
_atom_site_fract_x
_atom_site_fract_y
_atom_site_fract_z
_atom_site_U_iso_or_equiv
_atom_site_adp_type
_atom_site_occupancy
C1     C     0.18059   0.26659   0.25456   0.00000  Uiso   1.00
C2     C     0.11321   0.16043   0.40277   0.00000  Uiso   1.00
C3     C     0.18473   0.32224   0.26509   0.00000  Uiso   1.00
C4     C     0.13344   0.16448   0.34709   0.00000  Uiso   1.00
C5     C     0.14522   0.01119   0.24745   0.00000  Uiso   1.00
C6     C     0.15128   0.06691   0.25014   0.00000  Uiso   1.00
C7     C     0.20011   0.17111   0.15340   0.00000  Uiso   1.00
C8     C     0.28306   0.23890   0.03534   0.00000  Uiso   1.00
C9     C     0.22019   0.18222   0.09966   0.00000  Uiso   1.00
C10    C     0.05401   0.13080   0.42163   0.00000  Uiso   1.00
C11    C     0.03731   0.12038   0.47282   0.00000  Uiso   1.00
C12    C     0.14072   0.16483   0.48728   0.00000  Uiso   1.00
C13    C     0.08018   0.13629   0.00512   0.00000  Uiso   1.00
C14    C     0.15466   0.18139   0.43701   0.00000  Uiso   1.00
C15    C     0.18656   0.18037   0.01872   0.00000  Uiso   1.00
C16    C     0.24039   0.21916   0.00286   0.00000  Uiso   1.00
C17    C     0.25040   0.23884   0.45526   0.00000  Uiso   1.00
C18    C     0.20857   0.21991   0.42277   0.00000  Uiso   1.00
C19    C     0.18104   0.15881   0.06544   0.00000  Uiso   1.00
C20    C     0.27180   0.22205   0.08431   0.00000  Uiso   1.00
Cu21   Cu    0.10710   0.16105   0.24435   0.00000  Uiso   1.00
Cu22   Cu    0.22623   0.17228   0.25564   0.00000  Uiso   1.00
F23    F     0.30943   0.24657   0.11730   0.00000  Uiso   1.00
F24    F     0.10156   0.31567   0.22117   0.00000  Uiso   1.00
F25    F     0.00211   0.20399   0.30654   0.00000  Uiso   1.00
F26    F     0.14087   0.11310   0.07704   0.00000  Uiso   1.00
F27    F     0.01248   0.11094   0.39045   0.00000  Uiso   1.00
F28    F     0.31280   0.09334   0.49114   0.00000  Uiso   1.00
H29    H     0.29080   0.26905   0.44298   0.00000  Uiso   1.00
H30    H     0.32347   0.26934   0.02377   0.00000  Uiso   1.00
H31    H     0.06364   0.12795   0.04449   0.00000  Uiso   1.00
H32    H     0.21766   0.23776   0.38726   0.00000  Uiso   1.00
H33    H     0.04037   0.05738   0.12964   0.00000  Uiso   1.00
H34    H     0.28782   0.00128   0.35787   0.00000  Uiso   1.00
N35    N     0.31574   0.18074   0.26416   0.00000  Uiso   1.00
N36    N     0.01759   0.15259   0.23584   0.00000  Uiso   1.00
O37    O     0.12797   0.23807   0.24633   0.00000  Uiso   1.00
O38    O     0.02345   0.16225   0.13763   0.00000  Uiso   1.00
O39    O     0.05506   0.08002   0.15880   0.00000  Uiso   1.00
O40    O     0.29531   0.05115   0.27417   0.00000  Uiso   1.00
O41    O     0.20801   0.06017   0.34416   0.00000  Uiso   1.00
O42    O     0.25745   0.31296   0.33787   0.00000  Uiso   1.00
O43    O     0.22858   0.24755   0.25586   0.00000  Uiso   1.00
O44    O     0.09181   0.15960   0.31839   0.00000  Uiso   1.00
O45    O     0.19242   0.16908   0.32793   0.00000  Uiso   1.00
O46    O     0.10476   0.08578   0.24413   0.00000  Uiso   1.00
O47    O     0.20536   0.09526   0.25367   0.00000  Uiso   1.00
O48    O     0.14092   0.16425   0.17207   0.00000  Uiso   1.00
O49    O     0.24152   0.17373   0.18160   0.00000  Uiso   1.00
O50    O     0.27680   0.08920   0.17392   0.00000  Uiso   1.00
S51    S     0.00678   0.12178   0.17610   0.00000  Uiso   1.00
S52    S     0.23735   0.02224   0.30598   0.00000  Uiso   1.00
C53    C     0.51393   0.26659   0.25456   0.00000  Uiso   1.00
C54    C     0.44655   0.16043   0.40277   0.00000  Uiso   1.00
C55    C     0.51807   0.32224   0.26509   0.00000  Uiso   1.00
C56    C     0.46677   0.16448   0.34709   0.00000  Uiso   1.00
C57    C     0.47856   0.01119   0.24745   0.00000  Uiso   1.00
C58    C     0.48462   0.06691   0.25014   0.00000  Uiso   1.00
C59    C     0.53345   0.17111   0.15340   0.00000  Uiso   1.00
C60    C     0.61639   0.23890   0.03534   0.00000  Uiso   1.00
C61    C     0.55352   0.18222   0.09966   0.00000  Uiso   1.00
C62    C     0.38734   0.13080   0.42163   0.00000  Uiso   1.00
C63    C     0.37064   0.12038   0.47282   0.00000  Uiso   1.00
C64    C     0.47405   0.16483   0.48728   0.00000  Uiso   1.00
C65    C     0.41351   0.13629   0.00512   0.00000  Uiso   1.00
C66    C     0.48799   0.18139   0.43701   0.00000  Uiso   1.00
C67    C     0.51990   0.18037   0.01872   0.00000  Uiso   1.00
C68    C     0.57373   0.21916   0.00286   0.00000  Uiso   1.00
C69    C     0.58373   0.23884   0.45526   0.00000  Uiso   1.00
C70    C     0.54191   0.21991   0.42277   0.00000  Uiso   1.00
C71    C     0.51437   0.15881   0.06544   0.00000  Uiso   1.00
C72    C     0.60514   0.22205   0.08431   0.00000  Uiso   1.00
Cu73   Cu    0.44043   0.16105   0.24435   0.00000  Uiso   1.00
Cu74   Cu    0.55957   0.17228   0.25564   0.00000  Uiso   1.00
F75    F     0.64277   0.24657   0.11730   0.00000  Uiso   1.00
F76    F     0.43489   0.31567   0.22117   0.00000  Uiso   1.00
F77    F     0.33544   0.20399   0.30654   0.00000  Uiso   1.00
F78    F     0.47420   0.11310   0.07704   0.00000  Uiso   1.00
F79    F     0.34581   0.11094   0.39045   0.00000  Uiso   1.00
F80    F     0.64614   0.09334   0.49114   0.00000  Uiso   1.00
H81    H     0.62413   0.26905   0.44298   0.00000  Uiso   1.00
H82    H     0.65680   0.26934   0.02377   0.00000  Uiso   1.00
H83    H     0.39698   0.12795   0.04449   0.00000  Uiso   1.00
H84    H     0.55099   0.23776   0.38726   0.00000  Uiso   1.00
H85    H     0.37371   0.05738   0.12964   0.00000  Uiso   1.00
H86    H     0.62116   0.00128   0.35787   0.00000  Uiso   1.00
N87    N     0.64908   0.18074   0.26416   0.00000  Uiso   1.00
N88    N     0.35092   0.15259   0.23584   0.00000  Uiso   1.00
O89    O     0.46131   0.23807   0.24633   0.00000  Uiso   1.00
O90    O     0.35678   0.16225   0.13763   0.00000  Uiso   1.00
O91    O     0.38839   0.08002   0.15880   0.00000  Uiso   1.00
O92    O     0.62864   0.05115   0.27417   0.00000  Uiso   1.00
O93    O     0.54134   0.06017   0.34416   0.00000  Uiso   1.00
O94    O     0.59079   0.31296   0.33787   0.00000  Uiso   1.00
O95    O     0.56191   0.24755   0.25586   0.00000  Uiso   1.00
O96    O     0.42515   0.15960   0.31839   0.00000  Uiso   1.00
O97    O     0.52575   0.16908   0.32793   0.00000  Uiso   1.00
O98    O     0.43809   0.08578   0.24413   0.00000  Uiso   1.00
O99    O     0.53869   0.09526   0.25367   0.00000  Uiso   1.00
O100   O     0.47425   0.16425   0.17207   0.00000  Uiso   1.00
O101   O     0.57485   0.17373   0.18160   0.00000  Uiso   1.00
O102   O     0.61013   0.08920   0.17392   0.00000  Uiso   1.00
S103   S     0.34011   0.12178   0.17610   0.00000  Uiso   1.00
S104   S     0.57069   0.02224   0.30598   0.00000  Uiso   1.00
C105   C     0.84726   0.26659   0.25456   0.00000  Uiso   1.00
C106   C     0.77988   0.16043   0.40277   0.00000  Uiso   1.00
C107   C     0.85140   0.32224   0.26509   0.00000  Uiso   1.00
C108   C     0.80011   0.16448   0.34709   0.00000  Uiso   1.00
C109   C     0.81189   0.01119   0.24745   0.00000  Uiso   1.00
C110   C     0.81795   0.06691   0.25014   0.00000  Uiso   1.00
C111   C     0.86678   0.17111   0.15340   0.00000  Uiso   1.00
C112   C     0.94972   0.23890   0.03534   0.00000  Uiso   1.00
C113   C     0.88686   0.18222   0.09966   0.00000  Uiso   1.00
C114   C     0.72067   0.13080   0.42163   0.00000  Uiso   1.00
C115   C     0.70397   0.12038   0.47282   0.00000  Uiso   1.00
C116   C     0.80738   0.16483   0.48728   0.00000  Uiso   1.00
C117   C     0.74684   0.13629   0.00512   0.00000  Uiso   1.00
C118   C     0.82133   0.18139   0.43701   0.00000  Uiso   1.00
C119   C     0.85323   0.18037   0.01872   0.00000  Uiso   1.00
C120   C     0.90706   0.21916   0.00286   0.00000  Uiso   1.00
C121   C     0.91706   0.23884   0.45526   0.00000  Uiso   1.00
C122   C     0.87524   0.21991   0.42277   0.00000  Uiso   1.00
C123   C     0.84770   0.15881   0.06544   0.00000  Uiso   1.00
C124   C     0.93847   0.22205   0.08431   0.00000  Uiso   1.00
Cu125  Cu    0.77377   0.16105   0.24435   0.00000  Uiso   1.00
Cu126  Cu    0.89290   0.17228   0.25564   0.00000  Uiso   1.00
F127   F     0.97610   0.24657   0.11730   0.00000  Uiso   1.00
F128   F     0.76822   0.31567   0.22117   0.00000  Uiso   1.00
F129   F     0.66877   0.20399   0.30654   0.00000  Uiso   1.00
F130   F     0.80753   0.11310   0.07704   0.00000  Uiso   1.00
F131   F     0.67915   0.11094   0.39045   0.00000  Uiso   1.00
F132   F     0.97947   0.09334   0.49114   0.00000  Uiso   1.00
H133   H     0.95746   0.26905   0.44298   0.00000  Uiso   1.00
H134   H     0.99013   0.26934   0.02377   0.00000  Uiso   1.00
H135   H     0.73031   0.12795   0.04449   0.00000  Uiso   1.00
H136   H     0.88433   0.23776   0.38726   0.00000  Uiso   1.00
H137   H     0.70704   0.05738   0.12964   0.00000  Uiso   1.00
H138   H     0.95449   0.00128   0.35787   0.00000  Uiso   1.00
N139   N     0.98241   0.18074   0.26416   0.00000  Uiso   1.00
N140   N     0.68426   0.15259   0.23584   0.00000  Uiso   1.00
O141   O     0.79464   0.23807   0.24633   0.00000  Uiso   1.00
O142   O     0.69012   0.16225   0.13763   0.00000  Uiso   1.00
O143   O     0.72173   0.08002   0.15880   0.00000  Uiso   1.00
O144   O     0.96198   0.05115   0.27417   0.00000  Uiso   1.00
O145   O     0.87468   0.06017   0.34416   0.00000  Uiso   1.00
O146   O     0.92412   0.31296   0.33787   0.00000  Uiso   1.00
O147   O     0.89524   0.24755   0.25586   0.00000  Uiso   1.00
O148   O     0.75848   0.15960   0.31839   0.00000  Uiso   1.00
O149   O     0.85908   0.16908   0.32793   0.00000  Uiso   1.00
O150   O     0.77142   0.08578   0.24413   0.00000  Uiso   1.00
O151   O     0.87203   0.09526   0.25367   0.00000  Uiso   1.00
O152   O     0.80758   0.16425   0.17207   0.00000  Uiso   1.00
O153   O     0.90819   0.17373   0.18160   0.00000  Uiso   1.00
O154   O     0.94347   0.08920   0.17392   0.00000  Uiso   1.00
S155   S     0.67345   0.12178   0.17610   0.00000  Uiso   1.00
S156   S     0.90402   0.02224   0.30598   0.00000  Uiso   1.00
C157   C     0.18059   0.59992   0.25456   0.00000  Uiso   1.00
C158   C     0.11321   0.49376   0.40277   0.00000  Uiso   1.00
C159   C     0.18473   0.65557   0.26509   0.00000  Uiso   1.00
C160   C     0.13344   0.49781   0.34709   0.00000  Uiso   1.00
C161   C     0.14522   0.34452   0.24745   0.00000  Uiso   1.00
C162   C     0.15128   0.40024   0.25014   0.00000  Uiso   1.00
C163   C     0.20011   0.50445   0.15340   0.00000  Uiso   1.00
C164   C     0.28306   0.57223   0.03534   0.00000  Uiso   1.00
C165   C     0.22019   0.51555   0.09966   0.00000  Uiso   1.00
C166   C     0.05401   0.46414   0.42163   0.00000  Uiso   1.00
C167   C     0.03731   0.45371   0.47282   0.00000  Uiso   1.00
C168   C     0.14072   0.49816   0.48728   0.00000  Uiso   1.00
C169   C     0.08018   0.46962   0.00512   0.00000  Uiso   1.00
C170   C     0.15466   0.51473   0.43701   0.00000  Uiso   1.00
C171   C     0.18656   0.51370   0.01872   0.00000  Uiso   1.00
C172   C     0.24039   0.55249   0.00286   0.00000  Uiso   1.00
C173   C     0.25040   0.57217   0.45526   0.00000  Uiso   1.00
C174   C     0.20857   0.55325   0.42277   0.00000  Uiso   1.00
C175   C     0.18104   0.49214   0.06544   0.00000  Uiso   1.00
C176   C     0.27180   0.55539   0.08431   0.00000  Uiso   1.00
Cu177  Cu    0.10710   0.49439   0.24435   0.00000  Uiso   1.00
Cu178  Cu    0.22623   0.50561   0.25564   0.00000  Uiso   1.00
F179   F     0.30943   0.57990   0.11730   0.00000  Uiso   1.00
F180   F     0.10156   0.64901   0.22117   0.00000  Uiso   1.00
F181   F     0.00211   0.53733   0.30654   0.00000  Uiso   1.00
F182   F     0.14087   0.44644   0.07704   0.00000  Uiso   1.00
F183   F     0.01248   0.44427   0.39045   0.00000  Uiso   1.00
F184   F     0.31280   0.42667   0.49114   0.00000  Uiso   1.00
H185   H     0.29080   0.60238   0.44298   0.00000  Uiso   1.00
H186   H     0.32347   0.60267   0.02377   0.00000  Uiso   1.00
H187   H     0.06364   0.46129   0.04449   0.00000  Uiso   1.00
H188   H     0.21766   0.57109   0.38726   0.00000  Uiso   1.00
H189   H     0.04037   0.39071   0.12964   0.00000  Uiso   1.00
H190   H     0.28782   0.33461   0.35787   0.00000  Uiso   1.00
N191   N     0.31574   0.51407   0.26416   0.00000  Uiso   1.00
N192   N     0.01759   0.48593   0.23584   0.00000  Uiso   1.00
O193   O     0.12797   0.57141   0.24633   0.00000  Uiso   1.00
O194   O     0.02345   0.49558   0.13763   0.00000  Uiso   1.00
O195   O     0.05506   0.41335   0.15880   0.00000  Uiso   1.00
O196   O     0.29531   0.38448   0.27417   0.00000  Uiso   1.00
O197   O     0.20801   0.39350   0.34416   0.00000  Uiso   1.00
O198   O     0.25745   0.64629   0.33787   0.00000  Uiso   1.00
O199   O     0.22858   0.58089   0.25586   0.00000  Uiso   1.00
O200   O     0.09181   0.49293   0.31839   0.00000  Uiso   1.00
O201   O     0.19242   0.50241   0.32793   0.00000  Uiso   1.00
O202   O     0.10476   0.41911   0.24413   0.00000  Uiso   1.00
O203   O     0.20536   0.42859   0.25367   0.00000  Uiso   1.00
O204   O     0.14092   0.49759   0.17207   0.00000  Uiso   1.00
O205   O     0.24152   0.50707   0.18160   0.00000  Uiso   1.00
O206   O     0.27680   0.42254   0.17392   0.00000  Uiso   1.00
S207   S     0.00678   0.45512   0.17610   0.00000  Uiso   1.00
S208   S     0.23735   0.35557   0.30598   0.00000  Uiso   1.00
C209   C     0.51393   0.59992   0.25456   0.00000  Uiso   1.00
C210   C     0.44655   0.49376   0.40277   0.00000  Uiso   1.00
C211   C     0.51807   0.65557   0.26509   0.00000  Uiso   1.00
C212   C     0.46677   0.49781   0.34709   0.00000  Uiso   1.00
C213   C     0.47856   0.34452   0.24745   0.00000  Uiso   1.00
C214   C     0.48462   0.40024   0.25014   0.00000  Uiso   1.00
C215   C     0.53345   0.50445   0.15340   0.00000  Uiso   1.00
C216   C     0.61639   0.57223   0.03534   0.00000  Uiso   1.00
C217   C     0.55352   0.51555   0.09966   0.00000  Uiso   1.00
C218   C     0.38734   0.46414   0.42163   0.00000  Uiso   1.00
C219   C     0.37064   0.45371   0.47282   0.00000  Uiso   1.00
C220   C     0.47405   0.49816   0.48728   0.00000  Uiso   1.00
C221   C     0.41351   0.46962   0.00512   0.00000  Uiso   1.00
C222   C     0.48799   0.51473   0.43701   0.00000  Uiso   1.00
C223   C     0.51990   0.51370   0.01872   0.00000  Uiso   1.00
C224   C     0.57373   0.55249   0.00286   0.00000  Uiso   1.00
C225   C     0.58373   0.57217   0.45526   0.00000  Uiso   1.00
C226   C     0.54191   0.55325   0.42277   0.00000  Uiso   1.00
C227   C     0.51437   0.49214   0.06544   0.00000  Uiso   1.00
C228   C     0.60514   0.55539   0.08431   0.00000  Uiso   1.00
Cu229  Cu    0.44043   0.49439   0.24435   0.00000  Uiso   1.00
Cu230  Cu    0.55957   0.50561   0.25564   0.00000  Uiso   1.00
F231   F     0.64277   0.57990   0.11730   0.00000  Uiso   1.00
F232   F     0.43489   0.64901   0.22117   0.00000  Uiso   1.00
F233   F     0.33544   0.53733   0.30654   0.00000  Uiso   1.00
F234   F     0.47420   0.44644   0.07704   0.00000  Uiso   1.00
F235   F     0.34581   0.44427   0.39045   0.00000  Uiso   1.00
F236   F     0.64614   0.42667   0.49114   0.00000  Uiso   1.00
H237   H     0.62413   0.60238   0.44298   0.00000  Uiso   1.00
H238   H     0.65680   0.60267   0.02377   0.00000  Uiso   1.00
H239   H     0.39698   0.46129   0.04449   0.00000  Uiso   1.00
H240   H     0.55099   0.57109   0.38726   0.00000  Uiso   1.00
H241   H     0.37371   0.39071   0.12964   0.00000  Uiso   1.00
H242   H     0.62116   0.33461   0.35787   0.00000  Uiso   1.00
N243   N     0.64908   0.51407   0.26416   0.00000  Uiso   1.00
N244   N     0.35092   0.48593   0.23584   0.00000  Uiso   1.00
O245   O     0.46131   0.57141   0.24633   0.00000  Uiso   1.00
O246   O     0.35678   0.49558   0.13763   0.00000  Uiso   1.00
O247   O     0.38839   0.41335   0.15880   0.00000  Uiso   1.00
O248   O     0.62864   0.38448   0.27417   0.00000  Uiso   1.00
O249   O     0.54134   0.39350   0.34416   0.00000  Uiso   1.00
O250   O     0.59079   0.64629   0.33787   0.00000  Uiso   1.00
O251   O     0.56191   0.58089   0.25586   0.00000  Uiso   1.00
O252   O     0.42515   0.49293   0.31839   0.00000  Uiso   1.00
O253   O     0.52575   0.50241   0.32793   0.00000  Uiso   1.00
O254   O     0.43809   0.41911   0.24413   0.00000  Uiso   1.00
O255   O     0.53869   0.42859   0.25367   0.00000  Uiso   1.00
O256   O     0.47425   0.49759   0.17207   0.00000  Uiso   1.00
O257   O     0.57485   0.50707   0.18160   0.00000  Uiso   1.00
O258   O     0.61013   0.42254   0.17392   0.00000  Uiso   1.00
S259   S     0.34011   0.45512   0.17610   0.00000  Uiso   1.00
S260   S     0.57069   0.35557   0.30598   0.00000  Uiso   1.00
C261   C     0.84726   0.59992   0.25456   0.00000  Uiso   1.00
C262   C     0.77988   0.49376   0.40277   0.00000  Uiso   1.00
C263   C     0.85140   0.65557   0.26509   0.00000  Uiso   1.00
C264   C     0.80011   0.49781   0.34709   0.00000  Uiso   1.00
C265   C     0.81189   0.34452   0.24745   0.00000  Uiso   1.00
C266   C     0.81795   0.40024   0.25014   0.00000  Uiso   1.00
C267   C     0.86678   0.50445   0.15340   0.00000  Uiso   1.00
C268   C     0.94972   0.57223   0.03534   0.00000  Uiso   1.00
C269   C     0.88686   0.51555   0.09966   0.00000  Uiso   1.00
C270   C     0.72067   0.46414   0.42163   0.00000  Uiso   1.00
C271   C     0.70397   0.45371   0.47282   0.00000  Uiso   1.00
C272   C     0.80738   0.49816   0.48728   0.00000  Uiso   1.00
C273   C     0.74684   0.46962   0.00512   0.00000  Uiso   1.00
C274   C     0.82133   0.51473   0.43701   0.00000  Uiso   1.00
C275   C     0.85323   0.51370   0.01872   0.00000  Uiso   1.00
C276   C     0.90706   0.55249   0.00286   0.00000  Uiso   1.00
C277   C     0.91706   0.57217   0.45526   0.00000  Uiso   1.00
C278   C     0.87524   0.55325   0.42277   0.00000  Uiso   1.00
C279   C     0.84770   0.49214   0.06544   0.00000  Uiso   1.00
C280   C     0.93847   0.55539   0.08431   0.00000  Uiso   1.00
Cu281  Cu    0.77377   0.49439   0.24435   0.00000  Uiso   1.00
Cu282  Cu    0.89290   0.50561   0.25564   0.00000  Uiso   1.00
F283   F     0.97610   0.57990   0.11730   0.00000  Uiso   1.00
F284   F     0.76822   0.64901   0.22117   0.00000  Uiso   1.00
F285   F     0.66877   0.53733   0.30654   0.00000  Uiso   1.00
F286   F     0.80753   0.44644   0.07704   0.00000  Uiso   1.00
F287   F     0.67915   0.44427   0.39045   0.00000  Uiso   1.00
F288   F     0.97947   0.42667   0.49114   0.00000  Uiso   1.00
H289   H     0.95746   0.60238   0.44298   0.00000  Uiso   1.00
H290   H     0.99013   0.60267   0.02377   0.00000  Uiso   1.00
H291   H     0.73031   0.46129   0.04449   0.00000  Uiso   1.00
H292   H     0.88433   0.57109   0.38726   0.00000  Uiso   1.00
H293   H     0.70704   0.39071   0.12964   0.00000  Uiso   1.00
H294   H     0.95449   0.33461   0.35787   0.00000  Uiso   1.00
N295   N     0.98241   0.51407   0.26416   0.00000  Uiso   1.00
N296   N     0.68426   0.48593   0.23584   0.00000  Uiso   1.00
O297   O     0.79464   0.57141   0.24633   0.00000  Uiso   1.00
O298   O     0.69012   0.49558   0.13763   0.00000  Uiso   1.00
O299   O     0.72173   0.41335   0.15880   0.00000  Uiso   1.00
O300   O     0.96198   0.38448   0.27417   0.00000  Uiso   1.00
O301   O     0.87468   0.39350   0.34416   0.00000  Uiso   1.00
O302   O     0.92412   0.64629   0.33787   0.00000  Uiso   1.00
O303   O     0.89524   0.58089   0.25586   0.00000  Uiso   1.00
O304   O     0.75848   0.49293   0.31839   0.00000  Uiso   1.00
O305   O     0.85908   0.50241   0.32793   0.00000  Uiso   1.00
O306   O     0.77142   0.41911   0.24413   0.00000  Uiso   1.00
O307   O     0.87203   0.42859   0.25367   0.00000  Uiso   1.00
O308   O     0.80758   0.49759   0.17207   0.00000  Uiso   1.00
O309   O     0.90819   0.50707   0.18160   0.00000  Uiso   1.00
O310   O     0.94347   0.42254   0.17392   0.00000  Uiso   1.00
S311   S     0.67345   0.45512   0.17610   0.00000  Uiso   1.00
S312   S     0.90402   0.35557   0.30598   0.00000  Uiso   1.00
C313   C     0.18059   0.93326   0.25456   0.00000  Uiso   1.00
C314   C     0.11321   0.82710   0.40277   0.00000  Uiso   1.00
C315   C     0.18473   0.98891   0.26509   0.00000  Uiso   1.00
C316   C     0.13344   0.83115   0.34709   0.00000  Uiso   1.00
C317   C     0.14522   0.67785   0.24745   0.00000  Uiso   1.00
C318   C     0.15128   0.73358   0.25014   0.00000  Uiso   1.00
C319   C     0.20011   0.83778   0.15340   0.00000  Uiso   1.00
C320   C     0.28306   0.90556   0.03534   0.00000  Uiso   1.00
C321   C     0.22019   0.84889   0.09966   0.00000  Uiso   1.00
C322   C     0.05401   0.79747   0.42163   0.00000  Uiso   1.00
C323   C     0.03731   0.78705   0.47282   0.00000  Uiso   1.00
C324   C     0.14072   0.83149   0.48728   0.00000  Uiso   1.00
C325   C     0.08018   0.80296   0.00512   0.00000  Uiso   1.00
C326   C     0.15466   0.84806   0.43701   0.00000  Uiso   1.00
C327   C     0.18656   0.84704   0.01872   0.00000  Uiso   1.00
C328   C     0.24039   0.88583   0.00286   0.00000  Uiso   1.00
C329   C     0.25040   0.90550   0.45526   0.00000  Uiso   1.00
C330   C     0.20857   0.88658   0.42277   0.00000  Uiso   1.00
C331   C     0.18104   0.82547   0.06544   0.00000  Uiso   1.00
C332   C     0.27180   0.88872   0.08431   0.00000  Uiso   1.00
Cu333  Cu    0.10710   0.82772   0.24435   0.00000  Uiso   1.00
Cu334  Cu    0.22623   0.83895   0.25564   0.00000  Uiso   1.00
F335   F     0.30943   0.91324   0.11730   0.00000  Uiso   1.00
F336   F     0.10156   0.98234   0.22117   0.00000  Uiso   1.00
F337   F     0.00211   0.87066   0.30654   0.00000  Uiso   1.00
F338   F     0.14087   0.77977   0.07704   0.00000  Uiso   1.00
F339   F     0.01248   0.77760   0.39045   0.00000  Uiso   1.00
F340   F     0.31280   0.76000   0.49114   0.00000  Uiso   1.00
H341   H     0.29080   0.93571   0.44298   0.00000  Uiso   1.00
H342   H     0.32347   0.93601   0.02377   0.00000  Uiso   1.00
H343   H     0.06364   0.79462   0.04449   0.00000  Uiso   1.00
H344   H     0.21766   0.90442   0.38726   0.00000  Uiso   1.00
H345   H     0.04037   0.72405   0.12964   0.00000  Uiso   1.00
H346   H     0.28782   0.66794   0.35787   0.00000  Uiso   1.00
N347   N     0.31574   0.84741   0.26416   0.00000  Uiso   1.00
N348   N     0.01759   0.81926   0.23584   0.00000  Uiso   1.00
O349   O     0.12797   0.90474   0.24633   0.00000  Uiso   1.00
O350   O     0.02345   0.82891   0.13763   0.00000  Uiso   1.00
O351   O     0.05506   0.74668   0.15880   0.00000  Uiso   1.00
O352   O     0.29531   0.71782   0.27417   0.00000  Uiso   1.00
O353   O     0.20801   0.72684   0.34416   0.00000  Uiso   1.00
O354   O     0.25745   0.97962   0.33787   0.00000  Uiso   1.00
O355   O     0.22858   0.91422   0.25586   0.00000  Uiso   1.00
O356   O     0.09181   0.82627   0.31839   0.00000  Uiso   1.00
O357   O     0.19242   0.83575   0.32793   0.00000  Uiso   1.00
O358   O     0.10476   0.75245   0.24413   0.00000  Uiso   1.00
O359   O     0.20536   0.76193   0.25367   0.00000  Uiso   1.00
O360   O     0.14092   0.83092   0.17207   0.00000  Uiso   1.00
O361   O     0.24152   0.84040   0.18160   0.00000  Uiso   1.00
O362   O     0.27680   0.75587   0.17392   0.00000  Uiso   1.00
S363   S     0.00678   0.78845   0.17610   0.00000  Uiso   1.00
S364   S     0.23735   0.68890   0.30598   0.00000  Uiso   1.00
C365   C     0.51393   0.93326   0.25456   0.00000  Uiso   1.00
C366   C     0.44655   0.82710   0.40277   0.00000  Uiso   1.00
C367   C     0.51807   0.98891   0.26509   0.00000  Uiso   1.00
C368   C     0.46677   0.83115   0.34709   0.00000  Uiso   1.00
C369   C     0.47856   0.67785   0.24745   0.00000  Uiso   1.00
C370   C     0.48462   0.73358   0.25014   0.00000  Uiso   1.00
C371   C     0.53345   0.83778   0.15340   0.00000  Uiso   1.00
C372   C     0.61639   0.90556   0.03534   0.00000  Uiso   1.00
C373   C     0.55352   0.84889   0.09966   0.00000  Uiso   1.00
C374   C     0.38734   0.79747   0.42163   0.00000  Uiso   1.00
C375   C     0.37064   0.78705   0.47282   0.00000  Uiso   1.00
C376   C     0.47405   0.83149   0.48728   0.00000  Uiso   1.00
C377   C     0.41351   0.80296   0.00512   0.00000  Uiso   1.00
C378   C     0.48799   0.84806   0.43701   0.00000  Uiso   1.00
C379   C     0.51990   0.84704   0.01872   0.00000  Uiso   1.00
C380   C     0.57373   0.88583   0.00286   0.00000  Uiso   1.00
C381   C     0.58373   0.90550   0.45526   0.00000  Uiso   1.00
C382   C     0.54191   0.88658   0.42277   0.00000  Uiso   1.00
C383   C     0.51437   0.82547   0.06544   0.00000  Uiso   1.00
C384   C     0.60514   0.88872   0.08431   0.00000  Uiso   1.00
Cu385  Cu    0.44043   0.82772   0.24435   0.00000  Uiso   1.00
Cu386  Cu    0.55957   0.83895   0.25564   0.00000  Uiso   1.00
F387   F     0.64277   0.91324   0.11730   0.00000  Uiso   1.00
F388   F     0.43489   0.98234   0.22117   0.00000  Uiso   1.00
F389   F     0.33544   0.87066   0.30654   0.00000  Uiso   1.00
F390   F     0.47420   0.77977   0.07704   0.00000  Uiso   1.00
F391   F     0.34581   0.77760   0.39045   0.00000  Uiso   1.00
F392   F     0.64614   0.76000   0.49114   0.00000  Uiso   1.00
H393   H     0.62413   0.93571   0.44298   0.00000  Uiso   1.00
H394   H     0.65680   0.93601   0.02377   0.00000  Uiso   1.00
H395   H     0.39698   0.79462   0.04449   0.00000  Uiso   1.00
H396   H     0.55099   0.90442   0.38726   0.00000  Uiso   1.00
H397   H     0.37371   0.72405   0.12964   0.00000  Uiso   1.00
H398   H     0.62116   0.66794   0.35787   0.00000  Uiso   1.00
N399   N     0.64908   0.84741   0.26416   0.00000  Uiso   1.00
N400   N     0.35092   0.81926   0.23584   0.00000  Uiso   1.00
O401   O     0.46131   0.90474   0.24633   0.00000  Uiso   1.00
O402   O     0.35678   0.82891   0.13763   0.00000  Uiso   1.00
O403   O     0.38839   0.74668   0.15880   0.00000  Uiso   1.00
O404   O     0.62864   0.71782   0.27417   0.00000  Uiso   1.00
O405   O     0.54134   0.72684   0.34416   0.00000  Uiso   1.00
O406   O     0.59079   0.97962   0.33787   0.00000  Uiso   1.00
O407   O     0.56191   0.91422   0.25586   0.00000  Uiso   1.00
O408   O     0.42515   0.82627   0.31839   0.00000  Uiso   1.00
O409   O     0.52575   0.83575   0.32793   0.00000  Uiso   1.00
O410   O     0.43809   0.75245   0.24413   0.00000  Uiso   1.00
O411   O     0.53869   0.76193   0.25367   0.00000  Uiso   1.00
O412   O     0.47425   0.83092   0.17207   0.00000  Uiso   1.00
O413   O     0.57485   0.84040   0.18160   0.00000  Uiso   1.00
O414   O     0.61013   0.75587   0.17392   0.00000  Uiso   1.00
S415   S     0.34011   0.78845   0.17610   0.00000  Uiso   1.00
S416   S     0.57069   0.68890   0.30598   0.00000  Uiso   1.00
C417   C     0.84726   0.93326   0.25456   0.00000  Uiso   1.00
C418   C     0.77988   0.82710   0.40277   0.00000  Uiso   1.00
C419   C     0.85140   0.98891   0.26509   0.00000  Uiso   1.00
C420   C     0.80011   0.83115   0.34709   0.00000  Uiso   1.00
C421   C     0.81189   0.67785   0.24745   0.00000  Uiso   1.00
C422   C     0.81795   0.73358   0.25014   0.00000  Uiso   1.00
C423   C     0.86678   0.83778   0.15340   0.00000  Uiso   1.00
C424   C     0.94972   0.90556   0.03534   0.00000  Uiso   1.00
C425   C     0.88686   0.84889   0.09966   0.00000  Uiso   1.00
C426   C     0.72067   0.79747   0.42163   0.00000  Uiso   1.00
C427   C     0.70397   0.78705   0.47282   0.00000  Uiso   1.00
C428   C     0.80738   0.83149   0.48728   0.00000  Uiso   1.00
C429   C     0.74684   0.80296   0.00512   0.00000  Uiso   1.00
C430   C     0.82133   0.84806   0.43701   0.00000  Uiso   1.00
C431   C     0.85323   0.84704   0.01872   0.00000  Uiso   1.00
C432   C     0.90706   0.88583   0.00286   0.00000  Uiso   1.00
C433   C     0.91706   0.90550   0.45526   0.00000  Uiso   1.00
C434   C     0.87524   0.88658   0.42277   0.00000  Uiso   1.00
C435   C     0.84770   0.82547   0.06544   0.00000  Uiso   1.00
C436   C     0.93847   0.88872   0.08431   0.00000  Uiso   1.00
Cu437  Cu    0.77377   0.82772   0.24435   0.00000  Uiso   1.00
Cu438  Cu    0.89290   0.83895   0.25564   0.00000  Uiso   1.00
F439   F     0.97610   0.91324   0.11730   0.00000  Uiso   1.00
F440   F     0.76822   0.98234   0.22117   0.00000  Uiso   1.00
F441   F     0.66877   0.87066   0.30654   0.00000  Uiso   1.00
F442   F     0.80753   0.77977   0.07704   0.00000  Uiso   1.00
F443   F     0.67915   0.77760   0.39045   0.00000  Uiso   1.00
F444   F     0.97947   0.76000   0.49114   0.00000  Uiso   1.00
H445   H     0.95746   0.93571   0.44298   0.00000  Uiso   1.00
H446   H     0.99013   0.93601   0.02377   0.00000  Uiso   1.00
H447   H     0.73031   0.79462   0.04449   0.00000  Uiso   1.00
H448   H     0.88433   0.90442   0.38726   0.00000  Uiso   1.00
H449   H     0.70704   0.72405   0.12964   0.00000  Uiso   1.00
H450   H     0.95449   0.66794   0.35787   0.00000  Uiso   1.00
N451   N     0.98241   0.84741   0.26416   0.00000  Uiso   1.00
N452   N     0.68426   0.81926   0.23584   0.00000  Uiso   1.00
O453   O     0.79464   0.90474   0.24633   0.00000  Uiso   1.00
O454   O     0.69012   0.82891   0.13763   0.00000  Uiso   1.00
O455   O     0.72173   0.74668   0.15880   0.00000  Uiso   1.00
O456   O     0.96198   0.71782   0.27417   0.00000  Uiso   1.00
O457   O     0.87468   0.72684   0.34416   0.00000  Uiso   1.00
O458   O     0.92412   0.97962   0.33787   0.00000  Uiso   1.00
O459   O     0.89524   0.91422   0.25586   0.00000  Uiso   1.00
O460   O     0.75848   0.82627   0.31839   0.00000  Uiso   1.00
O461   O     0.85908   0.83575   0.32793   0.00000  Uiso   1.00
O462   O     0.77142   0.75245   0.24413   0.00000  Uiso   1.00
O463   O     0.87203   0.76193   0.25367   0.00000  Uiso   1.00
O464   O     0.80758   0.83092   0.17207   0.00000  Uiso   1.00
O465   O     0.90819   0.84040   0.18160   0.00000  Uiso   1.00
O466   O     0.94347   0.75587   0.17392   0.00000  Uiso   1.00
S467   S     0.67345   0.78845   0.17610   0.00000  Uiso   1.00
S468   S     0.90402   0.68890   0.30598   0.00000  Uiso   1.00
C469   C     0.18059   0.26659   0.75456   0.00000  Uiso   1.00
C470   C     0.11321   0.16043   0.90277   0.00000  Uiso   1.00
C471   C     0.18473   0.32224   0.76509   0.00000  Uiso   1.00
C472   C     0.13344   0.16448   0.84709   0.00000  Uiso   1.00
C473   C     0.14522   0.01119   0.74745   0.00000  Uiso   1.00
C474   C     0.15128   0.06691   0.75014   0.00000  Uiso   1.00
C475   C     0.20011   0.17111   0.65340   0.00000  Uiso   1.00
C476   C     0.28306   0.23890   0.53534   0.00000  Uiso   1.00
C477   C     0.22019   0.18222   0.59966   0.00000  Uiso   1.00
C478   C     0.05401   0.13080   0.92163   0.00000  Uiso   1.00
C479   C     0.03731   0.12038   0.97282   0.00000  Uiso   1.00
C480   C     0.14072   0.16483   0.98728   0.00000  Uiso   1.00
C481   C     0.08018   0.13629   0.50512   0.00000  Uiso   1.00
C482   C     0.15466   0.18139   0.93701   0.00000  Uiso   1.00
C483   C     0.18656   0.18037   0.51872   0.00000  Uiso   1.00
C484   C     0.24039   0.21916   0.50286   0.00000  Uiso   1.00
C485   C     0.25040   0.23884   0.95526   0.00000  Uiso   1.00
C486   C     0.20857   0.21991   0.92277   0.00000  Uiso   1.00
C487   C     0.18104   0.15881   0.56544   0.00000  Uiso   1.00
C488   C     0.27180   0.22205   0.58431   0.00000  Uiso   1.00
Cu489  Cu    0.10710   0.16105   0.74435   0.00000  Uiso   1.00
Cu490  Cu    0.22623   0.17228   0.75564   0.00000  Uiso   1.00
F491   F     0.30943   0.24657   0.61730   0.00000  Uiso   1.00
F492   F     0.10156   0.31567   0.72117   0.00000  Uiso   1.00
F493   F     0.00211   0.20399   0.80654   0.00000  Uiso   1.00
F494   F     0.14087   0.11310   0.57704   0.00000  Uiso   1.00
F495   F     0.01248   0.11094   0.89045   0.00000  Uiso   1.00
F496   F     0.31280   0.09334   0.99114   0.00000  Uiso   1.00
H497   H     0.29080   0.26905   0.94298   0.00000  Uiso   1.00
H498   H     0.32347   0.26934   0.52377   0.00000  Uiso   1.00
H499   H     0.06364   0.12795   0.54449   0.00000  Uiso   1.00
H500   H     0.21766   0.23776   0.88726   0.00000  Uiso   1.00
H501   H     0.04037   0.05738   0.62964   0.00000  Uiso   1.00
H502   H     0.28782   0.00128   0.85787   0.00000  Uiso   1.00
N503   N     0.31574   0.18074   0.76416   0.00000  Uiso   1.00
N504   N     0.01759   0.15259   0.73584   0.00000  Uiso   1.00
O505   O     0.12797   0.23807   0.74633   0.00000  Uiso   1.00
O506   O     0.02345   0.16225   0.63763   0.00000  Uiso   1.00
O507   O     0.05506   0.08002   0.65880   0.00000  Uiso   1.00
O508   O     0.29531   0.05115   0.77417   0.00000  Uiso   1.00
O509   O     0.20801   0.06017   0.84416   0.00000  Uiso   1.00
O510   O     0.25745   0.31296   0.83787   0.00000  Uiso   1.00
O511   O     0.22858   0.24755   0.75586   0.00000  Uiso   1.00
O512   O     0.09181   0.15960   0.81839   0.00000  Uiso   1.00
O513   O     0.19242   0.16908   0.82793   0.00000  Uiso   1.00
O514   O     0.10476   0.08578   0.74413   0.00000  Uiso   1.00
O515   O     0.20536   0.09526   0.75367   0.00000  Uiso   1.00
O516   O     0.14092   0.16425   0.67207   0.00000  Uiso   1.00
O517   O     0.24152   0.17373   0.68160   0.00000  Uiso   1.00
O518   O     0.27680   0.08920   0.67392   0.00000  Uiso   1.00
S519   S     0.00678   0.12178   0.67610   0.00000  Uiso   1.00
S520   S     0.23735   0.02224   0.80598   0.00000  Uiso   1.00
C521   C     0.51393   0.26659   0.75456   0.00000  Uiso   1.00
C522   C     0.44655   0.16043   0.90277   0.00000  Uiso   1.00
C523   C     0.51807   0.32224   0.76509   0.00000  Uiso   1.00
C524   C     0.46677   0.16448   0.84709   0.00000  Uiso   1.00
C525   C     0.47856   0.01119   0.74745   0.00000  Uiso   1.00
C526   C     0.48462   0.06691   0.75014   0.00000  Uiso   1.00
C527   C     0.53345   0.17111   0.65340   0.00000  Uiso   1.00
C528   C     0.61639   0.23890   0.53534   0.00000  Uiso   1.00
C529   C     0.55352   0.18222   0.59966   0.00000  Uiso   1.00
C530   C     0.38734   0.13080   0.92163   0.00000  Uiso   1.00
C531   C     0.37064   0.12038   0.97282   0.00000  Uiso   1.00
C532   C     0.47405   0.16483   0.98728   0.00000  Uiso   1.00
C533   C     0.41351   0.13629   0.50512   0.00000  Uiso   1.00
C534   C     0.48799   0.18139   0.93701   0.00000  Uiso   1.00
C535   C     0.51990   0.18037   0.51872   0.00000  Uiso   1.00
C536   C     0.57373   0.21916   0.50286   0.00000  Uiso   1.00
C537   C     0.58373   0.23884   0.95526   0.00000  Uiso   1.00
C538   C     0.54191   0.21991   0.92277   0.00000  Uiso   1.00
C539   C     0.51437   0.15881   0.56544   0.00000  Uiso   1.00
C540   C     0.60514   0.22205   0.58431   0.00000  Uiso   1.00
Cu541  Cu    0.44043   0.16105   0.74435   0.00000  Uiso   1.00
Cu542  Cu    0.55957   0.17228   0.75564   0.00000  Uiso   1.00
F543   F     0.64277   0.24657   0.61730   0.00000  Uiso   1.00
F544   F     0.43489   0.31567   0.72117   0.00000  Uiso   1.00
F545   F     0.33544   0.20399   0.80654   0.00000  Uiso   1.00
F546   F     0.47420   0.11310   0.57704   0.00000  Uiso   1.00
F547   F     0.34581   0.11094   0.89045   0.00000  Uiso   1.00
F548   F     0.64614   0.09334   0.99114   0.00000  Uiso   1.00
H549   H     0.62413   0.26905   0.94298   0.00000  Uiso   1.00
H550   H     0.65680   0.26934   0.52377   0.00000  Uiso   1.00
H551   H     0.39698   0.12795   0.54449   0.00000  Uiso   1.00
H552   H     0.55099   0.23776   0.88726   0.00000  Uiso   1.00
H553   H     0.37371   0.05738   0.62964   0.00000  Uiso   1.00
H554   H     0.62116   0.00128   0.85787   0.00000  Uiso   1.00
N555   N     0.64908   0.18074   0.76416   0.00000  Uiso   1.00
N556   N     0.35092   0.15259   0.73584   0.00000  Uiso   1.00
O557   O     0.46131   0.23807   0.74633   0.00000  Uiso   1.00
O558   O     0.35678   0.16225   0.63763   0.00000  Uiso   1.00
O559   O     0.38839   0.08002   0.65880   0.00000  Uiso   1.00
O560   O     0.62864   0.05115   0.77417   0.00000  Uiso   1.00
O561   O     0.54134   0.06017   0.84416   0.00000  Uiso   1.00
O562   O     0.59079   0.31296   0.83787   0.00000  Uiso   1.00
O563   O     0.56191   0.24755   0.75586   0.00000  Uiso   1.00
O564   O     0.42515   0.15960   0.81839   0.00000  Uiso   1.00
O565   O     0.52575   0.16908   0.82793   0.00000  Uiso   1.00
O566   O     0.43809   0.08578   0.74413   0.00000  Uiso   1.00
O567   O     0.53869   0.09526   0.75367   0.00000  Uiso   1.00
O568   O     0.47425   0.16425   0.67207   0.00000  Uiso   1.00
O569   O     0.57485   0.17373   0.68160   0.00000  Uiso   1.00
O570   O     0.61013   0.08920   0.67392   0.00000  Uiso   1.00
S571   S     0.34011   0.12178   0.67610   0.00000  Uiso   1.00
S572   S     0.57069   0.02224   0.80598   0.00000  Uiso   1.00
C573   C     0.84726   0.26659   0.75456   0.00000  Uiso   1.00
C574   C     0.77988   0.16043   0.90277   0.00000  Uiso   1.00
C575   C     0.85140   0.32224   0.76509   0.00000  Uiso   1.00
C576   C     0.80011   0.16448   0.84709   0.00000  Uiso   1.00
C577   C     0.81189   0.01119   0.74745   0.00000  Uiso   1.00
C578   C     0.81795   0.06691   0.75014   0.00000  Uiso   1.00
C579   C     0.86678   0.17111   0.65340   0.00000  Uiso   1.00
C580   C     0.94972   0.23890   0.53534   0.00000  Uiso   1.00
C581   C     0.88686   0.18222   0.59966   0.00000  Uiso   1.00
C582   C     0.72067   0.13080   0.92163   0.00000  Uiso   1.00
C583   C     0.70397   0.12038   0.97282   0.00000  Uiso   1.00
C584   C     0.80738   0.16483   0.98728   0.00000  Uiso   1.00
C585   C     0.74684   0.13629   0.50512   0.00000  Uiso   1.00
C586   C     0.82133   0.18139   0.93701   0.00000  Uiso   1.00
C587   C     0.85323   0.18037   0.51872   0.00000  Uiso   1.00
C588   C     0.90706   0.21916   0.50286   0.00000  Uiso   1.00
C589   C     0.91706   0.23884   0.95526   0.00000  Uiso   1.00
C590   C     0.87524   0.21991   0.92277   0.00000  Uiso   1.00
C591   C     0.84770   0.15881   0.56544   0.00000  Uiso   1.00
C592   C     0.93847   0.22205   0.58431   0.00000  Uiso   1.00
Cu593  Cu    0.77377   0.16105   0.74435   0.00000  Uiso   1.00
Cu594  Cu    0.89290   0.17228   0.75564   0.00000  Uiso   1.00
F595   F     0.97610   0.24657   0.61730   0.00000  Uiso   1.00
F596   F     0.76822   0.31567   0.72117   0.00000  Uiso   1.00
F597   F     0.66877   0.20399   0.80654   0.00000  Uiso   1.00
F598   F     0.80753   0.11310   0.57704   0.00000  Uiso   1.00
F599   F     0.67915   0.11094   0.89045   0.00000  Uiso   1.00
F600   F     0.97947   0.09334   0.99114   0.00000  Uiso   1.00
H601   H     0.95746   0.26905   0.94298   0.00000  Uiso   1.00
H602   H     0.99013   0.26934   0.52377   0.00000  Uiso   1.00
H603   H     0.73031   0.12795   0.54449   0.00000  Uiso   1.00
H604   H     0.88433   0.23776   0.88726   0.00000  Uiso   1.00
H605   H     0.70704   0.05738   0.62964   0.00000  Uiso   1.00
H606   H     0.95449   0.00128   0.85787   0.00000  Uiso   1.00
N607   N     0.98241   0.18074   0.76416   0.00000  Uiso   1.00
N608   N     0.68426   0.15259   0.73584   0.00000  Uiso   1.00
O609   O     0.79464   0.23807   0.74633   0.00000  Uiso   1.00
O610   O     0.69012   0.16225   0.63763   0.00000  Uiso   1.00
O611   O     0.72173   0.08002   0.65880   0.00000  Uiso   1.00
O612   O     0.96198   0.05115   0.77417   0.00000  Uiso   1.00
O613   O     0.87468   0.06017   0.84416   0.00000  Uiso   1.00
O614   O     0.92412   0.31296   0.83787   0.00000  Uiso   1.00
O615   O     0.89524   0.24755   0.75586   0.00000  Uiso   1.00
O616   O     0.75848   0.15960   0.81839   0.00000  Uiso   1.00
O617   O     0.85908   0.16908   0.82793   0.00000  Uiso   1.00
O618   O     0.77142   0.08578   0.74413   0.00000  Uiso   1.00
O619   O     0.87203   0.09526   0.75367   0.00000  Uiso   1.00
O620   O     0.80758   0.16425   0.67207   0.00000  Uiso   1.00
O621   O     0.90819   0.17373   0.68160   0.00000  Uiso   1.00
O622   O     0.94347   0.08920   0.67392   0.00000  Uiso   1.00
S623   S     0.67345   0.12178   0.67610   0.00000  Uiso   1.00
S624   S     0.90402   0.02224   0.80598   0.00000  Uiso   1.00
C625   C     0.18059   0.59992   0.75456   0.00000  Uiso   1.00
C626   C     0.11321   0.49376   0.90277   0.00000  Uiso   1.00
C627   C     0.18473   0.65557   0.76509   0.00000  Uiso   1.00
C628   C     0.13344   0.49781   0.84709   0.00000  Uiso   1.00
C629   C     0.14522   0.34452   0.74745   0.00000  Uiso   1.00
C630   C     0.15128   0.40024   0.75014   0.00000  Uiso   1.00
C631   C     0.20011   0.50445   0.65340   0.00000  Uiso   1.00
C632   C     0.28306   0.57223   0.53534   0.00000  Uiso   1.00
C633   C     0.22019   0.51555   0.59966   0.00000  Uiso   1.00
C634   C     0.05401   0.46414   0.92163   0.00000  Uiso   1.00
C635   C     0.03731   0.45371   0.97282   0.00000  Uiso   1.00
C636   C     0.14072   0.49816   0.98728   0.00000  Uiso   1.00
C637   C     0.08018   0.46962   0.50512   0.00000  Uiso   1.00
C638   C     0.15466   0.51473   0.93701   0.00000  Uiso   1.00
C639   C     0.18656   0.51370   0.51872   0.00000  Uiso   1.00
C640   C     0.24039   0.55249   0.50286   0.00000  Uiso   1.00
C641   C     0.25040   0.57217   0.95526   0.00000  Uiso   1.00
C642   C     0.20857   0.55325   0.92277   0.00000  Uiso   1.00
C643   C     0.18104   0.49214   0.56544   0.00000  Uiso   1.00
C644   C     0.27180   0.55539   0.58431   0.00000  Uiso   1.00
Cu645  Cu    0.10710   0.49439   0.74435   0.00000  Uiso   1.00
Cu646  Cu    0.22623   0.50561   0.75564   0.00000  Uiso   1.00
F647   F     0.30943   0.57990   0.61730   0.00000  Uiso   1.00
F648   F     0.10156   0.64901   0.72117   0.00000  Uiso   1.00
F649   F     0.00211   0.53733   0.80654   0.00000  Uiso   1.00
F650   F     0.14087   0.44644   0.57704   0.00000  Uiso   1.00
F651   F     0.01248   0.44427   0.89045   0.00000  Uiso   1.00
F652   F     0.31280   0.42667   0.99114   0.00000  Uiso   1.00
H653   H     0.29080   0.60238   0.94298   0.00000  Uiso   1.00
H654   H     0.32347   0.60267   0.52377   0.00000  Uiso   1.00
H655   H     0.06364   0.46129   0.54449   0.00000  Uiso   1.00
H656   H     0.21766   0.57109   0.88726   0.00000  Uiso   1.00
H657   H     0.04037   0.39071   0.62964   0.00000  Uiso   1.00
H658   H     0.28782   0.33461   0.85787   0.00000  Uiso   1.00
N659   N     0.31574   0.51407   0.76416   0.00000  Uiso   1.00
N660   N     0.01759   0.48593   0.73584   0.00000  Uiso   1.00
O661   O     0.12797   0.57141   0.74633   0.00000  Uiso   1.00
O662   O     0.02345   0.49558   0.63763   0.00000  Uiso   1.00
O663   O     0.05506   0.41335   0.65880   0.00000  Uiso   1.00
O664   O     0.29531   0.38448   0.77417   0.00000  Uiso   1.00
O665   O     0.20801   0.39350   0.84416   0.00000  Uiso   1.00
O666   O     0.25745   0.64629   0.83787   0.00000  Uiso   1.00
O667   O     0.22858   0.58089   0.75586   0.00000  Uiso   1.00
O668   O     0.09181   0.49293   0.81839   0.00000  Uiso   1.00
O669   O     0.19242   0.50241   0.82793   0.00000  Uiso   1.00
O670   O     0.10476   0.41911   0.74413   0.00000  Uiso   1.00
O671   O     0.20536   0.42859   0.75367   0.00000  Uiso   1.00
O672   O     0.14092   0.49759   0.67207   0.00000  Uiso   1.00
O673   O     0.24152   0.50707   0.68160   0.00000  Uiso   1.00
O674   O     0.27680   0.42254   0.67392   0.00000  Uiso   1.00
S675   S     0.00678   0.45512   0.67610   0.00000  Uiso   1.00
S676   S     0.23735   0.35557   0.80598   0.00000  Uiso   1.00
C677   C     0.51393   0.59992   0.75456   0.00000  Uiso   1.00
C678   C     0.44655   0.49376   0.90277   0.00000  Uiso   1.00
C679   C     0.51807   0.65557   0.76509   0.00000  Uiso   1.00
C680   C     0.46677   0.49781   0.84709   0.00000  Uiso   1.00
C681   C     0.47856   0.34452   0.74745   0.00000  Uiso   1.00
C682   C     0.48462   0.40024   0.75014   0.00000  Uiso   1.00
C683   C     0.53345   0.50445   0.65340   0.00000  Uiso   1.00
C684   C     0.61639   0.57223   0.53534   0.00000  Uiso   1.00
C685   C     0.55352   0.51555   0.59966   0.00000  Uiso   1.00
C686   C     0.38734   0.46414   0.92163   0.00000  Uiso   1.00
C687   C     0.37064   0.45371   0.97282   0.00000  Uiso   1.00
C688   C     0.47405   0.49816   0.98728   0.00000  Uiso   1.00
C689   C     0.41351   0.46962   0.50512   0.00000  Uiso   1.00
C690   C     0.48799   0.51473   0.93701   0.00000  Uiso   1.00
C691   C     0.51990   0.51370   0.51872   0.00000  Uiso   1.00
C692   C     0.57373   0.55249   0.50286   0.00000  Uiso   1.00
C693   C     0.58373   0.57217   0.95526   0.00000  Uiso   1.00
C694   C     0.54191   0.55325   0.92277   0.00000  Uiso   1.00
C695   C     0.51437   0.49214   0.56544   0.00000  Uiso   1.00
C696   C     0.60514   0.55539   0.58431   0.00000  Uiso   1.00
Cu697  Cu    0.44043   0.49439   0.74435   0.00000  Uiso   1.00
Cu698  Cu    0.55957   0.50561   0.75564   0.00000  Uiso   1.00
F699   F     0.64277   0.57990   0.61730   0.00000  Uiso   1.00
F700   F     0.43489   0.64901   0.72117   0.00000  Uiso   1.00
F701   F     0.33544   0.53733   0.80654   0.00000  Uiso   1.00
F702   F     0.47420   0.44644   0.57704   0.00000  Uiso   1.00
F703   F     0.34581   0.44427   0.89045   0.00000  Uiso   1.00
F704   F     0.64614   0.42667   0.99114   0.00000  Uiso   1.00
H705   H     0.62413   0.60238   0.94298   0.00000  Uiso   1.00
H706   H     0.65680   0.60267   0.52377   0.00000  Uiso   1.00
H707   H     0.39698   0.46129   0.54449   0.00000  Uiso   1.00
H708   H     0.55099   0.57109   0.88726   0.00000  Uiso   1.00
H709   H     0.37371   0.39071   0.62964   0.00000  Uiso   1.00
H710   H     0.62116   0.33461   0.85787   0.00000  Uiso   1.00
N711   N     0.64908   0.51407   0.76416   0.00000  Uiso   1.00
N712   N     0.35092   0.48593   0.73584   0.00000  Uiso   1.00
O713   O     0.46131   0.57141   0.74633   0.00000  Uiso   1.00
O714   O     0.35678   0.49558   0.63763   0.00000  Uiso   1.00
O715   O     0.38839   0.41335   0.65880   0.00000  Uiso   1.00
O716   O     0.62864   0.38448   0.77417   0.00000  Uiso   1.00
O717   O     0.54134   0.39350   0.84416   0.00000  Uiso   1.00
O718   O     0.59079   0.64629   0.83787   0.00000  Uiso   1.00
O719   O     0.56191   0.58089   0.75586   0.00000  Uiso   1.00
O720   O     0.42515   0.49293   0.81839   0.00000  Uiso   1.00
O721   O     0.52575   0.50241   0.82793   0.00000  Uiso   1.00
O722   O     0.43809   0.41911   0.74413   0.00000  Uiso   1.00
O723   O     0.53869   0.42859   0.75367   0.00000  Uiso   1.00
O724   O     0.47425   0.49759   0.67207   0.00000  Uiso   1.00
O725   O     0.57485   0.50707   0.68160   0.00000  Uiso   1.00
O726   O     0.61013   0.42254   0.67392   0.00000  Uiso   1.00
S727   S     0.34011   0.45512   0.67610   0.00000  Uiso   1.00
S728   S     0.57069   0.35557   0.80598   0.00000  Uiso   1.00
C729   C     0.84726   0.59992   0.75456   0.00000  Uiso   1.00
C730   C     0.77988   0.49376   0.90277   0.00000  Uiso   1.00
C731   C     0.85140   0.65557   0.76509   0.00000  Uiso   1.00
C732   C     0.80011   0.49781   0.84709   0.00000  Uiso   1.00
C733   C     0.81189   0.34452   0.74745   0.00000  Uiso   1.00
C734   C     0.81795   0.40024   0.75014   0.00000  Uiso   1.00
C735   C     0.86678   0.50445   0.65340   0.00000  Uiso   1.00
C736   C     0.94972   0.57223   0.53534   0.00000  Uiso   1.00
C737   C     0.88686   0.51555   0.59966   0.00000  Uiso   1.00
C738   C     0.72067   0.46414   0.92163   0.00000  Uiso   1.00
C739   C     0.70397   0.45371   0.97282   0.00000  Uiso   1.00
C740   C     0.80738   0.49816   0.98728   0.00000  Uiso   1.00
C741   C     0.74684   0.46962   0.50512   0.00000  Uiso   1.00
C742   C     0.82133   0.51473   0.93701   0.00000  Uiso   1.00
C743   C     0.85323   0.51370   0.51872   0.00000  Uiso   1.00
C744   C     0.90706   0.55249   0.50286   0.00000  Uiso   1.00
C745   C     0.91706   0.57217   0.95526   0.00000  Uiso   1.00
C746   C     0.87524   0.55325   0.92277   0.00000  Uiso   1.00
C747   C     0.84770   0.49214   0.56544   0.00000  Uiso   1.00
C748   C     0.93847   0.55539   0.58431   0.00000  Uiso   1.00
Cu749  Cu    0.77377   0.49439   0.74435   0.00000  Uiso   1.00
Cu750  Cu    0.89290   0.50561   0.75564   0.00000  Uiso   1.00
F751   F     0.97610   0.57990   0.61730   0.00000  Uiso   1.00
F752   F     0.76822   0.64901   0.72117   0.00000  Uiso   1.00
F753   F     0.66877   0.53733   0.80654   0.00000  Uiso   1.00
F754   F     0.80753   0.44644   0.57704   0.00000  Uiso   1.00
F755   F     0.67915   0.44427   0.89045   0.00000  Uiso   1.00
F756   F     0.97947   0.42667   0.99114   0.00000  Uiso   1.00
H757   H     0.95746   0.60238   0.94298   0.00000  Uiso   1.00
H758   H     0.99013   0.60267   0.52377   0.00000  Uiso   1.00
H759   H     0.73031   0.46129   0.54449   0.00000  Uiso   1.00
H760   H     0.88433   0.57109   0.88726   0.00000  Uiso   1.00
H761   H     0.70704   0.39071   0.62964   0.00000  Uiso   1.00
H762   H     0.95449   0.33461   0.85787   0.00000  Uiso   1.00
N763   N     0.98241   0.51407   0.76416   0.00000  Uiso   1.00
N764   N     0.68426   0.48593   0.73584   0.00000  Uiso   1.00
O765   O     0.79464   0.57141   0.74633   0.00000  Uiso   1.00
O766   O     0.69012   0.49558   0.63763   0.00000  Uiso   1.00
O767   O     0.72173   0.41335   0.65880   0.00000  Uiso   1.00
O768   O     0.96198   0.38448   0.77417   0.00000  Uiso   1.00
O769   O     0.87468   0.39350   0.84416   0.00000  Uiso   1.00
O770   O     0.92412   0.64629   0.83787   0.00000  Uiso   1.00
O771   O     0.89524   0.58089   0.75586   0.00000  Uiso   1.00
O772   O     0.75848   0.49293   0.81839   0.00000  Uiso   1.00
O773   O     0.85908   0.50241   0.82793   0.00000  Uiso   1.00
O774   O     0.77142   0.41911   0.74413   0.00000  Uiso   1.00
O775   O     0.87203   0.42859   0.75367   0.00000  Uiso   1.00
O776   O     0.80758   0.49759   0.67207   0.00000  Uiso   1.00
O777   O     0.90819   0.50707   0.68160   0.00000  Uiso   1.00
O778   O     0.94347   0.42254   0.67392   0.00000  Uiso   1.00
S779   S     0.67345   0.45512   0.67610   0.00000  Uiso   1.00
S780   S     0.90402   0.35557   0.80598   0.00000  Uiso   1.00
C781   C     0.18059   0.93326   0.75456   0.00000  Uiso   1.00
C782   C     0.11321   0.82710   0.90277   0.00000  Uiso   1.00
C783   C     0.18473   0.98891   0.76509   0.00000  Uiso   1.00
C784   C     0.13344   0.83115   0.84709   0.00000  Uiso   1.00
C785   C     0.14522   0.67785   0.74745   0.00000  Uiso   1.00
C786   C     0.15128   0.73358   0.75014   0.00000  Uiso   1.00
C787   C     0.20011   0.83778   0.65340   0.00000  Uiso   1.00
C788   C     0.28306   0.90556   0.53534   0.00000  Uiso   1.00
C789   C     0.22019   0.84889   0.59966   0.00000  Uiso   1.00
C790   C     0.05401   0.79747   0.92163   0.00000  Uiso   1.00
C791   C     0.03731   0.78705   0.97282   0.00000  Uiso   1.00
C792   C     0.14072   0.83149   0.98728   0.00000  Uiso   1.00
C793   C     0.08018   0.80296   0.50512   0.00000  Uiso   1.00
C794   C     0.15466   0.84806   0.93701   0.00000  Uiso   1.00
C795   C     0.18656   0.84704   0.51872   0.00000  Uiso   1.00
C796   C     0.24039   0.88583   0.50286   0.00000  Uiso   1.00
C797   C     0.25040   0.90550   0.95526   0.00000  Uiso   1.00
C798   C     0.20857   0.88658   0.92277   0.00000  Uiso   1.00
C799   C     0.18104   0.82547   0.56544   0.00000  Uiso   1.00
C800   C     0.27180   0.88872   0.58431   0.00000  Uiso   1.00
Cu801  Cu    0.10710   0.82772   0.74435   0.00000  Uiso   1.00
Cu802  Cu    0.22623   0.83895   0.75564   0.00000  Uiso   1.00
F803   F     0.30943   0.91324   0.61730   0.00000  Uiso   1.00
F804   F     0.10156   0.98234   0.72117   0.00000  Uiso   1.00
F805   F     0.00211   0.87066   0.80654   0.00000  Uiso   1.00
F806   F     0.14087   0.77977   0.57704   0.00000  Uiso   1.00
F807   F     0.01248   0.77760   0.89045   0.00000  Uiso   1.00
F808   F     0.31280   0.76000   0.99114   0.00000  Uiso   1.00
H809   H     0.29080   0.93571   0.94298   0.00000  Uiso   1.00
H810   H     0.32347   0.93601   0.52377   0.00000  Uiso   1.00
H811   H     0.06364   0.79462   0.54449   0.00000  Uiso   1.00
H812   H     0.21766   0.90442   0.88726   0.00000  Uiso   1.00
H813   H     0.04037   0.72405   0.62964   0.00000  Uiso   1.00
H814   H     0.28782   0.66794   0.85787   0.00000  Uiso   1.00
N815   N     0.31574   0.84741   0.76416   0.00000  Uiso   1.00
N816   N     0.01759   0.81926   0.73584   0.00000  Uiso   1.00
O817   O     0.12797   0.90474   0.74633   0.00000  Uiso   1.00
O818   O     0.02345   0.82891   0.63763   0.00000  Uiso   1.00
O819   O     0.05506   0.74668   0.65880   0.00000  Uiso   1.00
O820   O     0.29531   0.71782   0.77417   0.00000  Uiso   1.00
O821   O     0.20801   0.72684   0.84416   0.00000  Uiso   1.00
O822   O     0.25745   0.97962   0.83787   0.00000  Uiso   1.00
O823   O     0.22858   0.91422   0.75586   0.00000  Uiso   1.00
O824   O     0.09181   0.82627   0.81839   0.00000  Uiso   1.00
O825   O     0.19242   0.83575   0.82793   0.00000  Uiso   1.00
O826   O     0.10476   0.75245   0.74413   0.00000  Uiso   1.00
O827   O     0.20536   0.76193   0.75367   0.00000  Uiso   1.00
O828   O     0.14092   0.83092   0.67207   0.00000  Uiso   1.00
O829   O     0.24152   0.84040   0.68160   0.00000  Uiso   1.00
O830   O     0.27680   0.75587   0.67392   0.00000  Uiso   1.00
S831   S     0.00678   0.78845   0.67610   0.00000  Uiso   1.00
S832   S     0.23735   0.68890   0.80598   0.00000  Uiso   1.00
C833   C     0.51393   0.93326   0.75456   0.00000  Uiso   1.00
C834   C     0.44655   0.82710   0.90277   0.00000  Uiso   1.00
C835   C     0.51807   0.98891   0.76509   0.00000  Uiso   1.00
C836   C     0.46677   0.83115   0.84709   0.00000  Uiso   1.00
C837   C     0.47856   0.67785   0.74745   0.00000  Uiso   1.00
C838   C     0.48462   0.73358   0.75014   0.00000  Uiso   1.00
C839   C     0.53345   0.83778   0.65340   0.00000  Uiso   1.00
C840   C     0.61639   0.90556   0.53534   0.00000  Uiso   1.00
C841   C     0.55352   0.84889   0.59966   0.00000  Uiso   1.00
C842   C     0.38734   0.79747   0.92163   0.00000  Uiso   1.00
C843   C     0.37064   0.78705   0.97282   0.00000  Uiso   1.00
C844   C     0.47405   0.83149   0.98728   0.00000  Uiso   1.00
C845   C     0.41351   0.80296   0.50512   0.00000  Uiso   1.00
C846   C     0.48799   0.84806   0.93701   0.00000  Uiso   1.00
C847   C     0.51990   0.84704   0.51872   0.00000  Uiso   1.00
C848   C     0.57373   0.88583   0.50286   0.00000  Uiso   1.00
C849   C     0.58373   0.90550   0.95526   0.00000  Uiso   1.00
C850   C     0.54191   0.88658   0.92277   0.00000  Uiso   1.00
C851   C     0.51437   0.82547   0.56544   0.00000  Uiso   1.00
C852   C     0.60514   0.88872   0.58431   0.00000  Uiso   1.00
Cu853  Cu    0.44043   0.82772   0.74435   0.00000  Uiso   1.00
Cu854  Cu    0.55957   0.83895   0.75564   0.00000  Uiso   1.00
F855   F     0.64277   0.91324   0.61730   0.00000  Uiso   1.00
F856   F     0.43489   0.98234   0.72117   0.00000  Uiso   1.00
F857   F     0.33544   0.87066   0.80654   0.00000  Uiso   1.00
F858   F     0.47420   0.77977   0.57704   0.00000  Uiso   1.00
F859   F     0.34581   0.77760   0.89045   0.00000  Uiso   1.00
F860   F     0.64614   0.76000   0.99114   0.00000  Uiso   1.00
H861   H     0.62413   0.93571   0.94298   0.00000  Uiso   1.00
H862   H     0.65680   0.93601   0.52377   0.00000  Uiso   1.00
H863   H     0.39698   0.79462   0.54449   0.00000  Uiso   1.00
H864   H     0.55099   0.90442   0.88726   0.00000  Uiso   1.00
H865   H     0.37371   0.72405   0.62964   0.00000  Uiso   1.00
H866   H     0.62116   0.66794   0.85787   0.00000  Uiso   1.00
N867   N     0.64908   0.84741   0.76416   0.00000  Uiso   1.00
N868   N     0.35092   0.81926   0.73584   0.00000  Uiso   1.00
O869   O     0.46131   0.90474   0.74633   0.00000  Uiso   1.00
O870   O     0.35678   0.82891   0.63763   0.00000  Uiso   1.00
O871   O     0.38839   0.74668   0.65880   0.00000  Uiso   1.00
O872   O     0.62864   0.71782   0.77417   0.00000  Uiso   1.00
O873   O     0.54134   0.72684   0.84416   0.00000  Uiso   1.00
O874   O     0.59079   0.97962   0.83787   0.00000  Uiso   1.00
O875   O     0.56191   0.91422   0.75586   0.00000  Uiso   1.00
O876   O     0.42515   0.82627   0.81839   0.00000  Uiso   1.00
O877   O     0.52575   0.83575   0.82793   0.00000  Uiso   1.00
O878   O     0.43809   0.75245   0.74413   0.00000  Uiso   1.00
O879   O     0.53869   0.76193   0.75367   0.00000  Uiso   1.00
O880   O     0.47425   0.83092   0.67207   0.00000  Uiso   1.00
O881   O     0.57485   0.84040   0.68160   0.00000  Uiso   1.00
O882   O     0.61013   0.75587   0.67392   0.00000  Uiso   1.00
S883   S     0.34011   0.78845   0.67610   0.00000  Uiso   1.00
S884   S     0.57069   0.68890   0.80598   0.00000  Uiso   1.00
C885   C     0.84726   0.93326   0.75456   0.00000  Uiso   1.00
C886   C     0.77988   0.82710   0.90277   0.00000  Uiso   1.00
C887   C     0.85140   0.98891   0.76509   0.00000  Uiso   1.00
C888   C     0.80011   0.83115   0.84709   0.00000  Uiso   1.00
C889   C     0.81189   0.67785   0.74745   0.00000  Uiso   1.00
C890   C     0.81795   0.73358   0.75014   0.00000  Uiso   1.00
C891   C     0.86678   0.83778   0.65340   0.00000  Uiso   1.00
C892   C     0.94972   0.90556   0.53534   0.00000  Uiso   1.00
C893   C     0.88686   0.84889   0.59966   0.00000  Uiso   1.00
C894   C     0.72067   0.79747   0.92163   0.00000  Uiso   1.00
C895   C     0.70397   0.78705   0.97282   0.00000  Uiso   1.00
C896   C     0.80738   0.83149   0.98728   0.00000  Uiso   1.00
C897   C     0.74684   0.80296   0.50512   0.00000  Uiso   1.00
C898   C     0.82133   0.84806   0.93701   0.00000  Uiso   1.00
C899   C     0.85323   0.84704   0.51872   0.00000  Uiso   1.00
C900   C     0.90706   0.88583   0.50286   0.00000  Uiso   1.00
C901   C     0.91706   0.90550   0.95526   0.00000  Uiso   1.00
C902   C     0.87524   0.88658   0.92277   0.00000  Uiso   1.00
C903   C     0.84770   0.82547   0.56544   0.00000  Uiso   1.00
C904   C     0.93847   0.88872   0.58431   0.00000  Uiso   1.00
Cu905  Cu    0.77377   0.82772   0.74435   0.00000  Uiso   1.00
Cu906  Cu    0.89290   0.83895   0.75564   0.00000  Uiso   1.00
F907   F     0.97610   0.91324   0.61730   0.00000  Uiso   1.00
F908   F     0.76822   0.98234   0.72117   0.00000  Uiso   1.00
F909   F     0.66877   0.87066   0.80654   0.00000  Uiso   1.00
F910   F     0.80753   0.77977   0.57704   0.00000  Uiso   1.00
F911   F     0.67915   0.77760   0.89045   0.00000  Uiso   1.00
F912   F     0.97947   0.76000   0.99114   0.00000  Uiso   1.00
H913   H     0.95746   0.93571   0.94298   0.00000  Uiso   1.00
H914   H     0.99013   0.93601   0.52377   0.00000  Uiso   1.00
H915   H     0.73031   0.79462   0.54449   0.00000  Uiso   1.00
H916   H     0.88433   0.90442   0.88726   0.00000  Uiso   1.00
H917   H     0.70704   0.72405   0.62964   0.00000  Uiso   1.00
H918   H     0.95449   0.66794   0.85787   0.00000  Uiso   1.00
N919   N     0.98241   0.84741   0.76416   0.00000  Uiso   1.00
N920   N     0.68426   0.81926   0.73584   0.00000  Uiso   1.00
O921   O     0.79464   0.90474   0.74633   0.00000  Uiso   1.00
O922   O     0.69012   0.82891   0.63763   0.00000  Uiso   1.00
O923   O     0.72173   0.74668   0.65880   0.00000  Uiso   1.00
O924   O     0.96198   0.71782   0.77417   0.00000  Uiso   1.00
O925   O     0.87468   0.72684   0.84416   0.00000  Uiso   1.00
O926   O     0.92412   0.97962   0.83787   0.00000  Uiso   1.00
O927   O     0.89524   0.91422   0.75586   0.00000  Uiso   1.00
O928   O     0.75848   0.82627   0.81839   0.00000  Uiso   1.00
O929   O     0.85908   0.83575   0.82793   0.00000  Uiso   1.00
O930   O     0.77142   0.75245   0.74413   0.00000  Uiso   1.00
O931   O     0.87203   0.76193   0.75367   0.00000  Uiso   1.00
O932   O     0.80758   0.83092   0.67207   0.00000  Uiso   1.00
O933   O     0.90819   0.84040   0.68160   0.00000  Uiso   1.00
O934   O     0.94347   0.75587   0.67392   0.00000  Uiso   1.00
S935   S     0.67345   0.78845   0.67610   0.00000  Uiso   1.00
S936   S     0.90402   0.68890   0.80598   0.00000  Uiso   1.00
loop_
_geom_bond_atom_site_label_1
_geom_bond_atom_site_label_2
_geom_bond_distance
_geom_bond_site_symmetry_2
_ccdc_geom_bond_type
C1     O37     1.296   .     A
C1     O43     1.300   .     A
C1     C3      1.442   .     S
C2     C4      1.478   .     S
C2     C14     1.421   .     A
C2     C10     1.408   .     A
C3     C161    1.357   .     S
C3     S208    1.792   .     S
C4     O45     1.306   .     A
C4     O44     1.308   .     A
C5     C6      1.435   .     S
C5     C315    1.357   1_545 S
C5     F336    1.364   1_545 S
C6     O46     1.304   .     A
C6     O47     1.291   .     A
C7     O48     1.304   .     A
C7     O49     1.304   .     A
C7     C9      1.462   .     S
C8     H30     1.084   .     S
C8     C16     1.401   .     A
C8     C20     1.391   .     A
C9     C20     1.402   .     A
C9     C19     1.397   .     A
C10    F27     1.358   .     S
C10    C11     1.389   .     A
C11    C481    1.391   .     S
C11    F132    1.357   1_455 S
C12    C14     1.417   .     A
C12    C481    1.415   .     S
C12    C483    1.425   .     S
C13    H31     1.076   .     S
C13    C479    1.391   1_554 S
C13    C480    1.415   1_554 S
C14    C18     1.409   .     A
C15    C19     1.407   .     A
C15    C16     1.420   .     A
C15    C480    1.425   1_554 S
C16    C485    1.390   1_554 S
C17    H29     1.084   .     S
C17    C18     1.385   .     A
C17    C484    1.390   .     S
C18    H32     1.073   .     S
C19    F26     1.355   .     S
C20    F23     1.357   .     S
Cu21   O44     1.947   .     S
Cu21   O48     1.935   .     S
Cu21   N36     2.037   .     S
Cu21   Cu22    2.711   .     S
Cu21   O37     1.968   .     S
Cu21   O46     1.967   .     S
Cu22   N35     2.037   .     S
Cu22   O49     1.947   .     S
Cu22   O47     1.968   .     S
Cu22   O45     1.935   .     S
Cu22   O43     1.967   .     S
F24    C161    1.364   .     S
F25    N139    1.335   1_455 S
F28    C63     1.357   .     S
H33    O39     0.991   .     S
H34    O354    0.991   1_545 S
N35    F77     1.335   .     S
N35    N88     1.281   .     S
N36    S51     1.745   .     S
N36    N139    1.281   1_455 S
O38    S51     1.502   .     D
O39    S51     1.681   .     S
O40    S52     1.500   .     D
O41    S52     1.504   .     D
O42    H190    0.991   .     S
O42    S208    1.677   .     S
O50    S103    1.496   .     S
S51    O154    1.496   1_455 S
S52    O354    1.677   1_545 S
S52    C315    1.792   1_545 S
C53    O89     1.296   .     A
C53    O95     1.300   .     A
C53    C55     1.442   .     S
C54    C56     1.478   .     S
C54    C66     1.421   .     A
C54    C62     1.408   .     A
C55    C213    1.357   .     S
C55    S260    1.792   .     S
C56    O97     1.306   .     A
C56    O96     1.308   .     A
C57    C58     1.435   .     S
C57    C367    1.357   1_545 S
C57    F388    1.364   1_545 S
C58    O98     1.304   .     A
C58    O99     1.291   .     A
C59    O100    1.304   .     A
C59    O101    1.304   .     A
C59    C61     1.462   .     S
C60    H82     1.084   .     S
C60    C68     1.401   .     A
C60    C72     1.391   .     A
C61    C72     1.402   .     A
C61    C71     1.397   .     A
C62    F79     1.358   .     S
C62    C63     1.389   .     A
C63    C533    1.391   .     S
C64    C66     1.417   .     A
C64    C533    1.415   .     S
C64    C535    1.425   .     S
C65    H83     1.076   .     S
C65    C531    1.391   1_554 S
C65    C532    1.415   1_554 S
C66    C70     1.409   .     A
C67    C71     1.407   .     A
C67    C68     1.420   .     A
C67    C532    1.425   1_554 S
C68    C537    1.390   1_554 S
C69    H81     1.084   .     S
C69    C70     1.385   .     A
C69    C536    1.390   .     S
C70    H84     1.073   .     S
C71    F78     1.355   .     S
C72    F75     1.357   .     S
Cu73   O96     1.947   .     S
Cu73   O100    1.935   .     S
Cu73   N88     2.037   .     S
Cu73   Cu74    2.711   .     S
Cu73   O89     1.968   .     S
Cu73   O98     1.967   .     S
Cu74   N87     2.037   .     S
Cu74   O101    1.947   .     S
Cu74   O99     1.968   .     S
Cu74   O97     1.935   .     S
Cu74   O95     1.967   .     S
F76    C213    1.364   .     S
F80    C115    1.357   .     S
H85    O91     0.991   .     S
H86    O406    0.991   1_545 S
N87    F129    1.335   .     S
N87    N140    1.281   .     S
N88    S103    1.745   .     S
O90    S103    1.502   .     D
O91    S103    1.681   .     S
O92    S104    1.500   .     D
O93    S104    1.504   .     D
O94    H242    0.991   .     S
O94    S260    1.677   .     S
O102   S155    1.496   .     S
S104   O406    1.677   1_545 S
S104   C367    1.792   1_545 S
C105   O141    1.296   .     A
C105   O147    1.300   .     A
C105   C107    1.442   .     S
C106   C108    1.478   .     S
C106   C118    1.421   .     A
C106   C114    1.408   .     A
C107   C265    1.357   .     S
C107   S312    1.792   .     S
C108   O149    1.306   .     A
C108   O148    1.308   .     A
C109   C110    1.435   .     S
C109   C419    1.357   1_545 S
C109   F440    1.364   1_545 S
C110   O150    1.304   .     A
C110   O151    1.291   .     A
C111   O152    1.304   .     A
C111   O153    1.304   .     A
C111   C113    1.462   .     S
C112   H134    1.084   .     S
C112   C120    1.401   .     A
C112   C124    1.391   .     A
C113   C124    1.402   .     A
C113   C123    1.397   .     A
C114   F131    1.358   .     S
C114   C115    1.389   .     A
C115   C585    1.391   .     S
C116   C118    1.417   .     A
C116   C585    1.415   .     S
C116   C587    1.425   .     S
C117   H135    1.076   .     S
C117   C583    1.391   1_554 S
C117   C584    1.415   1_554 S
C118   C122    1.409   .     A
C119   C123    1.407   .     A
C119   C120    1.420   .     A
C119   C584    1.425   1_554 S
C120   C589    1.390   1_554 S
C121   H133    1.084   .     S
C121   C122    1.385   .     A
C121   C588    1.390   .     S
C122   H136    1.073   .     S
C123   F130    1.355   .     S
C124   F127    1.357   .     S
Cu125  O148    1.947   .     S
Cu125  O152    1.935   .     S
Cu125  N140    2.037   .     S
Cu125  Cu126   2.711   .     S
Cu125  O141    1.968   .     S
Cu125  O150    1.967   .     S
Cu126  N139    2.037   .     S
Cu126  O153    1.947   .     S
Cu126  O151    1.968   .     S
Cu126  O149    1.935   .     S
Cu126  O147    1.967   .     S
F128   C265    1.364   .     S
F132   C11     1.357   1_655 S
H137   O143    0.991   .     S
H138   O458    0.991   1_545 S
N139   F25     1.335   1_655 S
N139   N36     1.281   1_655 S
N140   S155    1.745   .     S
O142   S155    1.502   .     D
O143   S155    1.681   .     S
O144   S156    1.500   .     D
O145   S156    1.504   .     D
O146   H294    0.991   .     S
O146   S312    1.677   .     S
O154   S51     1.496   1_655 S
S156   O458    1.677   1_545 S
S156   C419    1.792   1_545 S
C157   O193    1.296   .     A
C157   O199    1.300   .     A
C157   C159    1.442   .     S
C158   C160    1.478   .     S
C158   C170    1.421   .     A
C158   C166    1.408   .     A
C159   C317    1.357   .     S
C159   S364    1.792   .     S
C160   O201    1.306   .     A
C160   O200    1.308   .     A
C161   C162    1.435   .     S
C162   O202    1.304   .     A
C162   O203    1.291   .     A
C163   O204    1.304   .     A
C163   O205    1.304   .     A
C163   C165    1.462   .     S
C164   H186    1.084   .     S
C164   C172    1.401   .     A
C164   C176    1.391   .     A
C165   C176    1.402   .     A
C165   C175    1.397   .     A
C166   F183    1.358   .     S
C166   C167    1.389   .     A
C167   C637    1.391   .     S
C167   F288    1.357   1_455 S
C168   C170    1.417   .     A
C168   C637    1.415   .     S
C168   C639    1.425   .     S
C169   H187    1.076   .     S
C169   C635    1.391   1_554 S
C169   C636    1.415   1_554 S
C170   C174    1.409   .     A
C171   C175    1.407   .     A
C171   C172    1.420   .     A
C171   C636    1.425   1_554 S
C172   C641    1.390   1_554 S
C173   H185    1.084   .     S
C173   C174    1.385   .     A
C173   C640    1.390   .     S
C174   H188    1.073   .     S
C175   F182    1.355   .     S
C176   F179    1.357   .     S
Cu177  O200    1.947   .     S
Cu177  O204    1.935   .     S
Cu177  N192    2.037   .     S
Cu177  Cu178   2.711   .     S
Cu177  O193    1.968   .     S
Cu177  O202    1.967   .     S
Cu178  N191    2.037   .     S
Cu178  O205    1.947   .     S
Cu178  O203    1.968   .     S
Cu178  O201    1.935   .     S
Cu178  O199    1.967   .     S
F180   C317    1.364   .     S
F181   N295    1.335   1_455 S
F184   C219    1.357   .     S
H189   O195    0.991   .     S
N191   F233    1.335   .     S
N191   N244    1.281   .     S
N192   S207    1.745   .     S
N192   N295    1.281   1_455 S
O194   S207    1.502   .     D
O195   S207    1.681   .     S
O196   S208    1.500   .     D
O197   S208    1.504   .     D
O198   H346    0.991   .     S
O198   S364    1.677   .     S
O206   S259    1.496   .     S
S207   O310    1.496   1_455 S
C209   O245    1.296   .     A
C209   O251    1.300   .     A
C209   C211    1.442   .     S
C210   C212    1.478   .     S
C210   C222    1.421   .     A
C210   C218    1.408   .     A
C211   C369    1.357   .     S
C211   S416    1.792   .     S
C212   O253    1.306   .     A
C212   O252    1.308   .     A
C213   C214    1.435   .     S
C214   O254    1.304   .     A
C214   O255    1.291   .     A
C215   O256    1.304   .     A
C215   O257    1.304   .     A
C215   C217    1.462   .     S
C216   H238    1.084   .     S
C216   C224    1.401   .     A
C216   C228    1.391   .     A
C217   C228    1.402   .     A
C217   C227    1.397   .     A
C218   F235    1.358   .     S
C218   C219    1.389   .     A
C219   C689    1.391   .     S
C220   C222    1.417   .     A
C220   C689    1.415   .     S
C220   C691    1.425   .     S
C221   H239    1.076   .     S
C221   C687    1.391   1_554 S
C221   C688    1.415   1_554 S
C222   C226    1.409   .     A
C223   C227    1.407   .     A
C223   C224    1.420   .     A
C223   C688    1.425   1_554 S
C224   C693    1.390   1_554 S
C225   H237    1.084   .     S
C225   C226    1.385   .     A
C225   C692    1.390   .     S
C226   H240    1.073   .     S
C227   F234    1.355   .     S
C228   F231    1.357   .     S
Cu229  O252    1.947   .     S
Cu229  O256    1.935   .     S
Cu229  N244    2.037   .     S
Cu229  Cu230   2.711   .     S
Cu229  O245    1.968   .     S
Cu229  O254    1.967   .     S
Cu230  N243    2.037   .     S
Cu230  O257    1.947   .     S
Cu230  O255    1.968   .     S
Cu230  O253    1.935   .     S
Cu230  O251    1.967   .     S
F232   C369    1.364   .     S
F236   C271    1.357   .     S
H241   O247    0.991   .     S
N243   F285    1.335   .     S
N243   N296    1.281   .     S
N244   S259    1.745   .     S
O246   S259    1.502   .     D
O247   S259    1.681   .     S
O248   S260    1.500   .     D
O249   S260    1.504   .     D
O250   H398    0.991   .     S
O250   S416    1.677   .     S
O258   S311    1.496   .     S
C261   O297    1.296   .     A
C261   O303    1.300   .     A
C261   C263    1.442   .     S
C262   C264    1.478   .     S
C262   C274    1.421   .     A
C262   C270    1.408   .     A
C263   C421    1.357   .     S
C263   S468    1.792   .     S
C264   O305    1.306   .     A
C264   O304    1.308   .     A
C265   C266    1.435   .     S
C266   O306    1.304   .     A
C266   O307    1.291   .     A
C267   O308    1.304   .     A
C267   O309    1.304   .     A
C267   C269    1.462   .     S
C268   H290    1.084   .     S
C268   C276    1.401   .     A
C268   C280    1.391   .     A
C269   C280    1.402   .     A
C269   C279    1.397   .     A
C270   F287    1.358   .     S
C270   C271    1.389   .     A
C271   C741    1.391   .     S
C272   C274    1.417   .     A
C272   C741    1.415   .     S
C272   C743    1.425   .     S
C273   H291    1.076   .     S
C273   C739    1.391   1_554 S
C273   C740    1.415   1_554 S
C274   C278    1.409   .     A
C275   C279    1.407   .     A
C275   C276    1.420   .     A
C275   C740    1.425   1_554 S
C276   C745    1.390   1_554 S
C277   H289    1.084   .     S
C277   C278    1.385   .     A
C277   C744    1.390   .     S
C278   H292    1.073   .     S
C279   F286    1.355   .     S
C280   F283    1.357   .     S
Cu281  O304    1.947   .     S
Cu281  O308    1.935   .     S
Cu281  N296    2.037   .     S
Cu281  Cu282   2.711   .     S
Cu281  O297    1.968   .     S
Cu281  O306    1.967   .     S
Cu282  N295    2.037   .     S
Cu282  O309    1.947   .     S
Cu282  O307    1.968   .     S
Cu282  O305    1.935   .     S
Cu282  O303    1.967   .     S
F284   C421    1.364   .     S
F288   C167    1.357   1_655 S
H293   O299    0.991   .     S
N295   F181    1.335   1_655 S
N295   N192    1.281   1_655 S
N296   S311    1.745   .     S
O298   S311    1.502   .     D
O299   S311    1.681   .     S
O300   S312    1.500   .     D
O301   S312    1.504   .     D
O302   H450    0.991   .     S
O302   S468    1.677   .     S
O310   S207    1.496   1_655 S
C313   O349    1.296   .     A
C313   O355    1.300   .     A
C313   C315    1.442   .     S
C314   C316    1.478   .     S
C314   C326    1.421   .     A
C314   C322    1.408   .     A
C315   C5      1.357   1_565 S
C315   S52     1.792   1_565 S
C316   O357    1.306   .     A
C316   O356    1.308   .     A
C317   C318    1.435   .     S
C318   O358    1.304   .     A
C318   O359    1.291   .     A
C319   O360    1.304   .     A
C319   O361    1.304   .     A
C319   C321    1.462   .     S
C320   H342    1.084   .     S
C320   C328    1.401   .     A
C320   C332    1.391   .     A
C321   C332    1.402   .     A
C321   C331    1.397   .     A
C322   F339    1.358   .     S
C322   C323    1.389   .     A
C323   C793    1.391   .     S
C323   F444    1.357   1_455 S
C324   C326    1.417   .     A
C324   C793    1.415   .     S
C324   C795    1.425   .     S
C325   H343    1.076   .     S
C325   C791    1.391   1_554 S
C325   C792    1.415   1_554 S
C326   C330    1.409   .     A
C327   C331    1.407   .     A
C327   C328    1.420   .     A
C327   C792    1.425   1_554 S
C328   C797    1.390   1_554 S
C329   H341    1.084   .     S
C329   C330    1.385   .     A
C329   C796    1.390   .     S
C330   H344    1.073   .     S
C331   F338    1.355   .     S
C332   F335    1.357   .     S
Cu333  O356    1.947   .     S
Cu333  O360    1.935   .     S
Cu333  N348    2.037   .     S
Cu333  Cu334   2.711   .     S
Cu333  O349    1.968   .     S
Cu333  O358    1.967   .     S
Cu334  N347    2.037   .     S
Cu334  O361    1.947   .     S
Cu334  O359    1.968   .     S
Cu334  O357    1.935   .     S
Cu334  O355    1.967   .     S
F336   C5      1.364   1_565 S
F337   N451    1.335   1_455 S
F340   C375    1.357   .     S
H345   O351    0.991   .     S
N347   F389    1.335   .     S
N347   N400    1.281   .     S
N348   S363    1.745   .     S
N348   N451    1.281   1_455 S
O350   S363    1.502   .     D
O351   S363    1.681   .     S
O352   S364    1.500   .     D
O353   S364    1.504   .     D
O354   H34     0.991   1_565 S
O354   S52     1.677   1_565 S
O362   S415    1.496   .     S
S363   O466    1.496   1_455 S
C365   O401    1.296   .     A
C365   O407    1.300   .     A
C365   C367    1.442   .     S
C366   C368    1.478   .     S
C366   C378    1.421   .     A
C366   C374    1.408   .     A
C367   C57     1.357   1_565 S
C367   S104    1.792   1_565 S
C368   O409    1.306   .     A
C368   O408    1.308   .     A
C369   C370    1.435   .     S
C370   O410    1.304   .     A
C370   O411    1.291   .     A
C371   O412    1.304   .     A
C371   O413    1.304   .     A
C371   C373    1.462   .     S
C372   H394    1.084   .     S
C372   C380    1.401   .     A
C372   C384    1.391   .     A
C373   C384    1.402   .     A
C373   C383    1.397   .     A
C374   F391    1.358   .     S
C374   C375    1.389   .     A
C375   C845    1.391   .     S
C376   C378    1.417   .     A
C376   C845    1.415   .     S
C376   C847    1.425   .     S
C377   H395    1.076   .     S
C377   C843    1.391   1_554 S
C377   C844    1.415   1_554 S
C378   C382    1.409   .     A
C379   C383    1.407   .     A
C379   C380    1.420   .     A
C379   C844    1.425   1_554 S
C380   C849    1.390   1_554 S
C381   H393    1.084   .     S
C381   C382    1.385   .     A
C381   C848    1.390   .     S
C382   H396    1.073   .     S
C383   F390    1.355   .     S
C384   F387    1.357   .     S
Cu385  O408    1.947   .     S
Cu385  O412    1.935   .     S
Cu385  N400    2.037   .     S
Cu385  Cu386   2.711   .     S
Cu385  O401    1.968   .     S
Cu385  O410    1.967   .     S
Cu386  N399    2.037   .     S
Cu386  O413    1.947   .     S
Cu386  O411    1.968   .     S
Cu386  O409    1.935   .     S
Cu386  O407    1.967   .     S
F388   C57     1.364   1_565 S
F392   C427    1.357   .     S
H397   O403    0.991   .     S
N399   F441    1.335   .     S
N399   N452    1.281   .     S
N400   S415    1.745   .     S
O402   S415    1.502   .     D
O403   S415    1.681   .     S
O404   S416    1.500   .     D
O405   S416    1.504   .     D
O406   H86     0.991   1_565 S
O406   S104    1.677   1_565 S
O414   S467    1.496   .     S
C417   O453    1.296   .     A
C417   O459    1.300   .     A
C417   C419    1.442   .     S
C418   C420    1.478   .     S
C418   C430    1.421   .     A
C418   C426    1.408   .     A
C419   C109    1.357   1_565 S
C419   S156    1.792   1_565 S
C420   O461    1.306   .     A
C420   O460    1.308   .     A
C421   C422    1.435   .     S
C422   O462    1.304   .     A
C422   O463    1.291   .     A
C423   O464    1.304   .     A
C423   O465    1.304   .     A
C423   C425    1.462   .     S
C424   H446    1.084   .     S
C424   C432    1.401   .     A
C424   C436    1.391   .     A
C425   C436    1.402   .     A
C425   C435    1.397   .     A
C426   F443    1.358   .     S
C426   C427    1.389   .     A
C427   C897    1.391   .     S
C428   C430    1.417   .     A
C428   C897    1.415   .     S
C428   C899    1.425   .     S
C429   H447    1.076   .     S
C429   C895    1.391   1_554 S
C429   C896    1.415   1_554 S
C430   C434    1.409   .     A
C431   C435    1.407   .     A
C431   C432    1.420   .     A
C431   C896    1.425   1_554 S
C432   C901    1.390   1_554 S
C433   H445    1.084   .     S
C433   C434    1.385   .     A
C433   C900    1.390   .     S
C434   H448    1.073   .     S
C435   F442    1.355   .     S
C436   F439    1.357   .     S
Cu437  O460    1.947   .     S
Cu437  O464    1.935   .     S
Cu437  N452    2.037   .     S
Cu437  Cu438   2.711   .     S
Cu437  O453    1.968   .     S
Cu437  O462    1.967   .     S
Cu438  N451    2.037   .     S
Cu438  O465    1.947   .     S
Cu438  O463    1.968   .     S
Cu438  O461    1.935   .     S
Cu438  O459    1.967   .     S
F440   C109    1.364   1_565 S
F444   C323    1.357   1_655 S
H449   O455    0.991   .     S
N451   F337    1.335   1_655 S
N451   N348    1.281   1_655 S
N452   S467    1.745   .     S
O454   S467    1.502   .     D
O455   S467    1.681   .     S
O456   S468    1.500   .     D
O457   S468    1.504   .     D
O458   H138    0.991   1_565 S
O458   S156    1.677   1_565 S
O466   S363    1.496   1_655 S
C469   O505    1.296   .     A
C469   O511    1.300   .     A
C469   C471    1.442   .     S
C470   C472    1.478   .     S
C470   C482    1.421   .     A
C470   C478    1.408   .     A
C471   C629    1.357   .     S
C471   S676    1.792   .     S
C472   O513    1.306   .     A
C472   O512    1.308   .     A
C473   C474    1.435   .     S
C473   C783    1.357   1_545 S
C473   F804    1.364   1_545 S
C474   O514    1.304   .     A
C474   O515    1.291   .     A
C475   O516    1.304   .     A
C475   O517    1.304   .     A
C475   C477    1.462   .     S
C476   H498    1.084   .     S
C476   C484    1.401   .     A
C476   C488    1.391   .     A
C477   C488    1.402   .     A
C477   C487    1.397   .     A
C478   F495    1.358   .     S
C478   C479    1.389   .     A
C479   C13     1.391   1_556 S
C479   F600    1.357   1_455 S
C480   C482    1.417   .     A
C480   C13     1.415   1_556 S
C480   C15     1.425   1_556 S
C481   H499    1.076   .     S
C482   C486    1.409   .     A
C483   C487    1.407   .     A
C483   C484    1.420   .     A
C485   H497    1.084   .     S
C485   C486    1.385   .     A
C485   C16     1.390   1_556 S
C486   H500    1.073   .     S
C487   F494    1.355   .     S
C488   F491    1.357   .     S
Cu489  O512    1.947   .     S
Cu489  O516    1.935   .     S
Cu489  N504    2.037   .     S
Cu489  Cu490   2.711   .     S
Cu489  O505    1.968   .     S
Cu489  O514    1.967   .     S
Cu490  N503    2.037   .     S
Cu490  O517    1.947   .     S
Cu490  O515    1.968   .     S
Cu490  O513    1.935   .     S
Cu490  O511    1.967   .     S
F492   C629    1.364   .     S
F493   N607    1.335   1_455 S
F496   C531    1.357   .     S
H501   O507    0.991   .     S
H502   O822    0.991   1_545 S
N503   F545    1.335   .     S
N503   N556    1.281   .     S
N504   S519    1.745   .     S
N504   N607    1.281   1_455 S
O506   S519    1.502   .     D
O507   S519    1.681   .     S
O508   S520    1.500   .     D
O509   S520    1.504   .     D
O510   H658    0.991   .     S
O510   S676    1.677   .     S
O518   S571    1.496   .     S
S519   O622    1.496   1_455 S
S520   O822    1.677   1_545 S
S520   C783    1.792   1_545 S
C521   O557    1.296   .     A
C521   O563    1.300   .     A
C521   C523    1.442   .     S
C522   C524    1.478   .     S
C522   C534    1.421   .     A
C522   C530    1.408   .     A
C523   C681    1.357   .     S
C523   S728    1.792   .     S
C524   O565    1.306   .     A
C524   O564    1.308   .     A
C525   C526    1.435   .     S
C525   C835    1.357   1_545 S
C525   F856    1.364   1_545 S
C526   O566    1.304   .     A
C526   O567    1.291   .     A
C527   O568    1.304   .     A
C527   O569    1.304   .     A
C527   C529    1.462   .     S
C528   H550    1.084   .     S
C528   C536    1.401   .     A
C528   C540    1.391   .     A
C529   C540    1.402   .     A
C529   C539    1.397   .     A
C530   F547    1.358   .     S
C530   C531    1.389   .     A
C531   C65     1.391   1_556 S
C532   C534    1.417   .     A
C532   C65     1.415   1_556 S
C532   C67     1.425   1_556 S
C533   H551    1.076   .     S
C534   C538    1.409   .     A
C535   C539    1.407   .     A
C535   C536    1.420   .     A
C537   H549    1.084   .     S
C537   C538    1.385   .     A
C537   C68     1.390   1_556 S
C538   H552    1.073   .     S
C539   F546    1.355   .     S
C540   F543    1.357   .     S
Cu541  O564    1.947   .     S
Cu541  O568    1.935   .     S
Cu541  N556    2.037   .     S
Cu541  Cu542   2.711   .     S
Cu541  O557    1.968   .     S
Cu541  O566    1.967   .     S
Cu542  N555    2.037   .     S
Cu542  O569    1.947   .     S
Cu542  O567    1.968   .     S
Cu542  O565    1.935   .     S
Cu542  O563    1.967   .     S
F544   C681    1.364   .     S
F548   C583    1.357   .     S
H553   O559    0.991   .     S
H554   O874    0.991   1_545 S
N555   F597    1.335   .     S
N555   N608    1.281   .     S
N556   S571    1.745   .     S
O558   S571    1.502   .     D
O559   S571    1.681   .     S
O560   S572    1.500   .     D
O561   S572    1.504   .     D
O562   H710    0.991   .     S
O562   S728    1.677   .     S
O570   S623    1.496   .     S
S572   O874    1.677   1_545 S
S572   C835    1.792   1_545 S
C573   O609    1.296   .     A
C573   O615    1.300   .     A
C573   C575    1.442   .     S
C574   C576    1.478   .     S
C574   C586    1.421   .     A
C574   C582    1.408   .     A
C575   C733    1.357   .     S
C575   S780    1.792   .     S
C576   O617    1.306   .     A
C576   O616    1.308   .     A
C577   C578    1.435   .     S
C577   C887    1.357   1_545 S
C577   F908    1.364   1_545 S
C578   O618    1.304   .     A
C578   O619    1.291   .     A
C579   O620    1.304   .     A
C579   O621    1.304   .     A
C579   C581    1.462   .     S
C580   H602    1.084   .     S
C580   C588    1.401   .     A
C580   C592    1.391   .     A
C581   C592    1.402   .     A
C581   C591    1.397   .     A
C582   F599    1.358   .     S
C582   C583    1.389   .     A
C583   C117    1.391   1_556 S
C584   C586    1.417   .     A
C584   C117    1.415   1_556 S
C584   C119    1.425   1_556 S
C585   H603    1.076   .     S
C586   C590    1.409   .     A
C587   C591    1.407   .     A
C587   C588    1.420   .     A
C589   H601    1.084   .     S
C589   C590    1.385   .     A
C589   C120    1.390   1_556 S
C590   H604    1.073   .     S
C591   F598    1.355   .     S
C592   F595    1.357   .     S
Cu593  O616    1.947   .     S
Cu593  O620    1.935   .     S
Cu593  N608    2.037   .     S
Cu593  Cu594   2.711   .     S
Cu593  O609    1.968   .     S
Cu593  O618    1.967   .     S
Cu594  N607    2.037   .     S
Cu594  O621    1.947   .     S
Cu594  O619    1.968   .     S
Cu594  O617    1.935   .     S
Cu594  O615    1.967   .     S
F596   C733    1.364   .     S
F600   C479    1.357   1_655 S
H605   O611    0.991   .     S
H606   O926    0.991   1_545 S
N607   F493    1.335   1_655 S
N607   N504    1.281   1_655 S
N608   S623    1.745   .     S
O610   S623    1.502   .     D
O611   S623    1.681   .     S
O612   S624    1.500   .     D
O613   S624    1.504   .     D
O614   H762    0.991   .     S
O614   S780    1.677   .     S
O622   S519    1.496   1_655 S
S624   O926    1.677   1_545 S
S624   C887    1.792   1_545 S
C625   O661    1.296   .     A
C625   O667    1.300   .     A
C625   C627    1.442   .     S
C626   C628    1.478   .     S
C626   C638    1.421   .     A
C626   C634    1.408   .     A
C627   C785    1.357   .     S
C627   S832    1.792   .     S
C628   O669    1.306   .     A
C628   O668    1.308   .     A
C629   C630    1.435   .     S
C630   O670    1.304   .     A
C630   O671    1.291   .     A
C631   O672    1.304   .     A
C631   O673    1.304   .     A
C631   C633    1.462   .     S
C632   H654    1.084   .     S
C632   C640    1.401   .     A
C632   C644    1.391   .     A
C633   C644    1.402   .     A
C633   C643    1.397   .     A
C634   F651    1.358   .     S
C634   C635    1.389   .     A
C635   C169    1.391   1_556 S
C635   F756    1.357   1_455 S
C636   C638    1.417   .     A
C636   C169    1.415   1_556 S
C636   C171    1.425   1_556 S
C637   H655    1.076   .     S
C638   C642    1.409   .     A
C639   C643    1.407   .     A
C639   C640    1.420   .     A
C641   H653    1.084   .     S
C641   C642    1.385   .     A
C641   C172    1.390   1_556 S
C642   H656    1.073   .     S
C643   F650    1.355   .     S
C644   F647    1.357   .     S
Cu645  O668    1.947   .     S
Cu645  O672    1.935   .     S
Cu645  N660    2.037   .     S
Cu645  Cu646   2.711   .     S
Cu645  O661    1.968   .     S
Cu645  O670    1.967   .     S
Cu646  N659    2.037   .     S
Cu646  O673    1.947   .     S
Cu646  O671    1.968   .     S
Cu646  O669    1.935   .     S
Cu646  O667    1.967   .     S
F648   C785    1.364   .     S
F649   N763    1.335   1_455 S
F652   C687    1.357   .     S
H657   O663    0.991   .     S
N659   F701    1.335   .     S
N659   N712    1.281   .     S
N660   S675    1.745   .     S
N660   N763    1.281   1_455 S
O662   S675    1.502   .     D
O663   S675    1.681   .     S
O664   S676    1.500   .     D
O665   S676    1.504   .     D
O666   H814    0.991   .     S
O666   S832    1.677   .     S
O674   S727    1.496   .     S
S675   O778    1.496   1_455 S
C677   O713    1.296   .     A
C677   O719    1.300   .     A
C677   C679    1.442   .     S
C678   C680    1.478   .     S
C678   C690    1.421   .     A
C678   C686    1.408   .     A
C679   C837    1.357   .     S
C679   S884    1.792   .     S
C680   O721    1.306   .     A
C680   O720    1.308   .     A
C681   C682    1.435   .     S
C682   O722    1.304   .     A
C682   O723    1.291   .     A
C683   O724    1.304   .     A
C683   O725    1.304   .     A
C683   C685    1.462   .     S
C684   H706    1.084   .     S
C684   C692    1.401   .     A
C684   C696    1.391   .     A
C685   C696    1.402   .     A
C685   C695    1.397   .     A
C686   F703    1.358   .     S
C686   C687    1.389   .     A
C687   C221    1.391   1_556 S
C688   C690    1.417   .     A
C688   C221    1.415   1_556 S
C688   C223    1.425   1_556 S
C689   H707    1.076   .     S
C690   C694    1.409   .     A
C691   C695    1.407   .     A
C691   C692    1.420   .     A
C693   H705    1.084   .     S
C693   C694    1.385   .     A
C693   C224    1.390   1_556 S
C694   H708    1.073   .     S
C695   F702    1.355   .     S
C696   F699    1.357   .     S
Cu697  O720    1.947   .     S
Cu697  O724    1.935   .     S
Cu697  N712    2.037   .     S
Cu697  Cu698   2.711   .     S
Cu697  O713    1.968   .     S
Cu697  O722    1.967   .     S
Cu698  N711    2.037   .     S
Cu698  O725    1.947   .     S
Cu698  O723    1.968   .     S
Cu698  O721    1.935   .     S
Cu698  O719    1.967   .     S
F700   C837    1.364   .     S
F704   C739    1.357   .     S
H709   O715    0.991   .     S
N711   F753    1.335   .     S
N711   N764    1.281   .     S
N712   S727    1.745   .     S
O714   S727    1.502   .     D
O715   S727    1.681   .     S
O716   S728    1.500   .     D
O717   S728    1.504   .     D
O718   H866    0.991   .     S
O718   S884    1.677   .     S
O726   S779    1.496   .     S
C729   O765    1.296   .     A
C729   O771    1.300   .     A
C729   C731    1.442   .     S
C730   C732    1.478   .     S
C730   C742    1.421   .     A
C730   C738    1.408   .     A
C731   C889    1.357   .     S
C731   S936    1.792   .     S
C732   O773    1.306   .     A
C732   O772    1.308   .     A
C733   C734    1.435   .     S
C734   O774    1.304   .     A
C734   O775    1.291   .     A
C735   O776    1.304   .     A
C735   O777    1.304   .     A
C735   C737    1.462   .     S
C736   H758    1.084   .     S
C736   C744    1.401   .     A
C736   C748    1.391   .     A
C737   C748    1.402   .     A
C737   C747    1.397   .     A
C738   F755    1.358   .     S
C738   C739    1.389   .     A
C739   C273    1.391   1_556 S
C740   C742    1.417   .     A
C740   C273    1.415   1_556 S
C740   C275    1.425   1_556 S
C741   H759    1.076   .     S
C742   C746    1.409   .     A
C743   C747    1.407   .     A
C743   C744    1.420   .     A
C745   H757    1.084   .     S
C745   C746    1.385   .     A
C745   C276    1.390   1_556 S
C746   H760    1.073   .     S
C747   F754    1.355   .     S
C748   F751    1.357   .     S
Cu749  O772    1.947   .     S
Cu749  O776    1.935   .     S
Cu749  N764    2.037   .     S
Cu749  Cu750   2.711   .     S
Cu749  O765    1.968   .     S
Cu749  O774    1.967   .     S
Cu750  N763    2.037   .     S
Cu750  O777    1.947   .     S
Cu750  O775    1.968   .     S
Cu750  O773    1.935   .     S
Cu750  O771    1.967   .     S
F752   C889    1.364   .     S
F756   C635    1.357   1_655 S
H761   O767    0.991   .     S
N763   F649    1.335   1_655 S
N763   N660    1.281   1_655 S
N764   S779    1.745   .     S
O766   S779    1.502   .     D
O767   S779    1.681   .     S
O768   S780    1.500   .     D
O769   S780    1.504   .     D
O770   H918    0.991   .     S
O770   S936    1.677   .     S
O778   S675    1.496   1_655 S
C781   O817    1.296   .     A
C781   O823    1.300   .     A
C781   C783    1.442   .     S
C782   C784    1.478   .     S
C782   C794    1.421   .     A
C782   C790    1.408   .     A
C783   C473    1.357   1_565 S
C783   S520    1.792   1_565 S
C784   O825    1.306   .     A
C784   O824    1.308   .     A
C785   C786    1.435   .     S
C786   O826    1.304   .     A
C786   O827    1.291   .     A
C787   O828    1.304   .     A
C787   O829    1.304   .     A
C787   C789    1.462   .     S
C788   H810    1.084   .     S
C788   C796    1.401   .     A
C788   C800    1.391   .     A
C789   C800    1.402   .     A
C789   C799    1.397   .     A
C790   F807    1.358   .     S
C790   C791    1.389   .     A
C791   C325    1.391   1_556 S
C791   F912    1.357   1_455 S
C792   C794    1.417   .     A
C792   C325    1.415   1_556 S
C792   C327    1.425   1_556 S
C793   H811    1.076   .     S
C794   C798    1.409   .     A
C795   C799    1.407   .     A
C795   C796    1.420   .     A
C797   H809    1.084   .     S
C797   C798    1.385   .     A
C797   C328    1.390   1_556 S
C798   H812    1.073   .     S
C799   F806    1.355   .     S
C800   F803    1.357   .     S
Cu801  O824    1.947   .     S
Cu801  O828    1.935   .     S
Cu801  N816    2.037   .     S
Cu801  Cu802   2.711   .     S
Cu801  O817    1.968   .     S
Cu801  O826    1.967   .     S
Cu802  N815    2.037   .     S
Cu802  O829    1.947   .     S
Cu802  O827    1.968   .     S
Cu802  O825    1.935   .     S
Cu802  O823    1.967   .     S
F804   C473    1.364   1_565 S
F805   N919    1.335   1_455 S
F808   C843    1.357   .     S
H813   O819    0.991   .     S
N815   F857    1.335   .     S
N815   N868    1.281   .     S
N816   S831    1.745   .     S
N816   N919    1.281   1_455 S
O818   S831    1.502   .     D
O819   S831    1.681   .     S
O820   S832    1.500   .     D
O821   S832    1.504   .     D
O822   H502    0.991   1_565 S
O822   S520    1.677   1_565 S
O830   S883    1.496   .     S
S831   O934    1.496   1_455 S
C833   O869    1.296   .     A
C833   O875    1.300   .     A
C833   C835    1.442   .     S
C834   C836    1.478   .     S
C834   C846    1.421   .     A
C834   C842    1.408   .     A
C835   C525    1.357   1_565 S
C835   S572    1.792   1_565 S
C836   O877    1.306   .     A
C836   O876    1.308   .     A
C837   C838    1.435   .     S
C838   O878    1.304   .     A
C838   O879    1.291   .     A
C839   O880    1.304   .     A
C839   O881    1.304   .     A
C839   C841    1.462   .     S
C840   H862    1.084   .     S
C840   C848    1.401   .     A
C840   C852    1.391   .     A
C841   C852    1.402   .     A
C841   C851    1.397   .     A
C842   F859    1.358   .     S
C842   C843    1.389   .     A
C843   C377    1.391   1_556 S
C844   C846    1.417   .     A
C844   C377    1.415   1_556 S
C844   C379    1.425   1_556 S
C845   H863    1.076   .     S
C846   C850    1.409   .     A
C847   C851    1.407   .     A
C847   C848    1.420   .     A
C849   H861    1.084   .     S
C849   C850    1.385   .     A
C849   C380    1.390   1_556 S
C850   H864    1.073   .     S
C851   F858    1.355   .     S
C852   F855    1.357   .     S
Cu853  O876    1.947   .     S
Cu853  O880    1.935   .     S
Cu853  N868    2.037   .     S
Cu853  Cu854   2.711   .     S
Cu853  O869    1.968   .     S
Cu853  O878    1.967   .     S
Cu854  N867    2.037   .     S
Cu854  O881    1.947   .     S
Cu854  O879    1.968   .     S
Cu854  O877    1.935   .     S
Cu854  O875    1.967   .     S
F856   C525    1.364   1_565 S
F860   C895    1.357   .     S
H865   O871    0.991   .     S
N867   F909    1.335   .     S
N867   N920    1.281   .     S
N868   S883    1.745   .     S
O870   S883    1.502   .     D
O871   S883    1.681   .     S
O872   S884    1.500   .     D
O873   S884    1.504   .     D
O874   H554    0.991   1_565 S
O874   S572    1.677   1_565 S
O882   S935    1.496   .     S
C885   O921    1.296   .     A
C885   O927    1.300   .     A
C885   C887    1.442   .     S
C886   C888    1.478   .     S
C886   C898    1.421   .     A
C886   C894    1.408   .     A
C887   C577    1.357   1_565 S
C887   S624    1.792   1_565 S
C888   O929    1.306   .     A
C888   O928    1.308   .     A
C889   C890    1.435   .     S
C890   O930    1.304   .     A
C890   O931    1.291   .     A
C891   O932    1.304   .     A
C891   O933    1.304   .     A
C891   C893    1.462   .     S
C892   H914    1.084   .     S
C892   C900    1.401   .     A
C892   C904    1.391   .     A
C893   C904    1.402   .     A
C893   C903    1.397   .     A
C894   F911    1.358   .     S
C894   C895    1.389   .     A
C895   C429    1.391   1_556 S
C896   C898    1.417   .     A
C896   C429    1.415   1_556 S
C896   C431    1.425   1_556 S
C897   H915    1.076   .     S
C898   C902    1.409   .     A
C899   C903    1.407   .     A
C899   C900    1.420   .     A
C901   H913    1.084   .     S
C901   C902    1.385   .     A
C901   C432    1.390   1_556 S
C902   H916    1.073   .     S
C903   F910    1.355   .     S
C904   F907    1.357   .     S
Cu905  O928    1.947   .     S
Cu905  O932    1.935   .     S
Cu905  N920    2.037   .     S
Cu905  Cu906   2.711   .     S
Cu905  O921    1.968   .     S
Cu905  O930    1.967   .     S
Cu906  N919    2.037   .     S
Cu906  O933    1.947   .     S
Cu906  O931    1.968   .     S
Cu906  O929    1.935   .     S
Cu906  O927    1.967   .     S
F908   C577    1.364   1_565 S
F912   C791    1.357   1_655 S
H917   O923    0.991   .     S
N919   F805    1.335   1_655 S
N919   N816    1.281   1_655 S
N920   S935    1.745   .     S
O922   S935    1.502   .     D
O923   S935    1.681   .     S
O924   S936    1.500   .     D
O925   S936    1.504   .     D
O926   H606    0.991   1_565 S
O926   S624    1.677   1_565 S
O934   S831    1.496   1_655 S
