data_str_m2_o1_o16_pcu_sym.93
_audit_creation_date              2020-01-03
_audit_creation_method            'Materials Studio'
_symmetry_space_group_name_H-M    'P1'
_symmetry_Int_Tables_number       1
_symmetry_cell_setting            triclinic
loop_
_symmetry_equiv_pos_as_xyz
  x,y,z
_cell_length_a                    28.7893
_cell_length_b                    32.3059
_cell_length_c                    26.8923
_cell_angle_alpha                 91.6835
_cell_angle_beta                  72.8183
_cell_angle_gamma                 91.6412
loop_
_atom_site_label
_atom_site_type_symbol
_atom_site_fract_x
_atom_site_fract_y
_atom_site_fract_z
_atom_site_U_iso_or_equiv
_atom_site_adp_type
_atom_site_occupancy
C1     C     0.16709   0.24580   0.25043   0.00000  Uiso   1.00
C2     C     0.12510   0.17093   0.40723   0.00000  Uiso   1.00
C3     C     0.18471   0.31237   0.28849   0.00000  Uiso   1.00
C4     C     0.14073   0.16904   0.34992   0.00000  Uiso   1.00
C5     C     0.18256   0.02233   0.29147   0.00000  Uiso   1.00
C6     C     0.16453   0.04278   0.25513   0.00000  Uiso   1.00
C7     C     0.14769   0.02009   0.21869   0.00000  Uiso   1.00
C8     C     0.14858   0.31075   0.21738   0.00000  Uiso   1.00
C9     C     0.16763   0.29036   0.25164   0.00000  Uiso   1.00
C10    C     0.30336   0.19830   0.27322   0.00000  Uiso   1.00
C11    C     0.01960   0.19859   0.27259   0.00000  Uiso   1.00
C12    C     0.14473   0.17488   0.48988   0.00000  Uiso   1.00
C13    C     0.02798   0.13378   0.22812   0.00000  Uiso   1.00
C14    C     0.31290   0.13579   0.22619   0.00000  Uiso   1.00
C15    C     0.16566   0.08752   0.25223   0.00000  Uiso   1.00
C16    C     0.19279   0.16818   0.15015   0.00000  Uiso   1.00
C17    C     0.26226   0.20467   0.01596   0.00000  Uiso   1.00
C18    C     0.20753   0.17518   0.09386   0.00000  Uiso   1.00
C19    C     0.07826   0.15599   0.43343   0.00000  Uiso   1.00
C20    C     0.06392   0.15186   0.48699   0.00000  Uiso   1.00
C21    C     0.09671   0.16060   0.01500   0.00000  Uiso   1.00
C22    C     0.19692   0.04541   0.33497   0.00000  Uiso   1.00
C23    C     0.15730   0.18372   0.43614   0.00000  Uiso   1.00
C24    C     0.15217   0.06085   0.37705   0.00000  Uiso   1.00
C25    C     0.04997   0.09168   0.20937   0.00000  Uiso   1.00
C26    C     0.08500   0.09153   0.15437   0.00000  Uiso   1.00
C27    C     0.18063   0.18086   0.01634   0.00000  Uiso   1.00
C28    C     0.22640   0.19922   0.49041   0.00000  Uiso   1.00
C29    C     0.23554   0.21262   0.43962   0.00000  Uiso   1.00
C30    C     0.20129   0.20556   0.41312   0.00000  Uiso   1.00
C31    C     0.17273   0.16830   0.06760   0.00000  Uiso   1.00
C32    C     0.25293   0.19289   0.06752   0.00000  Uiso   1.00
Cu33   Cu    0.11978   0.16666   0.25000   0.00000  Uiso   1.00
Cu34   Cu    0.21355   0.16667   0.25000   0.00000  Uiso   1.00
F35    F     0.28746   0.20041   0.09197   0.00000  Uiso   1.00
F36    F     0.01838   0.13772   0.01181   0.00000  Uiso   1.00
F37    F     0.20104   0.29140   0.32292   0.00000  Uiso   1.00
H38    H     0.13502   0.03536   0.19021   0.00000  Uiso   1.00
H39    H     0.08286   0.15683   0.05641   0.00000  Uiso   1.00
H40    H     0.20947   0.21843   0.37486   0.00000  Uiso   1.00
H41    H     0.16369   0.07880   0.40740   0.00000  Uiso   1.00
H42    H     0.13040   0.08111   0.36038   0.00000  Uiso   1.00
H43    H     0.12896   0.03415   0.39558   0.00000  Uiso   1.00
H44    H     0.21696   0.02511   0.35381   0.00000  Uiso   1.00
H45    H     0.22238   0.07158   0.31982   0.00000  Uiso   1.00
H46    H     0.07256   0.11300   0.12977   0.00000  Uiso   1.00
H47    H     0.12246   0.09930   0.15455   0.00000  Uiso   1.00
H48    H     0.08584   0.06001   0.13647   0.00000  Uiso   1.00
H49    H     0.13532   0.29359   0.18890   0.00000  Uiso   1.00
H50    H     0.06222   0.07574   0.23857   0.00000  Uiso   1.00
H51    H     0.02072   0.06910   0.20694   0.00000  Uiso   1.00
H52    H     0.28064   0.22369   0.29213   0.00000  Uiso   1.00
H53    H     0.03363   0.22415   0.29111   0.00000  Uiso   1.00
H54    H     0.29724   0.11156   0.20714   0.00000  Uiso   1.00
H55    H     0.26947   0.22847   0.42012   0.00000  Uiso   1.00
H56    H     0.29726   0.21874   0.49626   0.00000  Uiso   1.00
H57    H     0.13942   0.15309   0.08827   0.00000  Uiso   1.00
H58    H     0.05284   0.14657   0.41230   0.00000  Uiso   1.00
N59    N     0.04931   0.16666   0.24999   0.00000  Uiso   1.00
N60    N     0.28402   0.16669   0.25000   0.00000  Uiso   1.00
O61    O     0.12708   0.22678   0.25001   0.00000  Uiso   1.00
O62    O     0.20627   0.22679   0.25001   0.00000  Uiso   1.00
O63    O     0.10775   0.16665   0.32549   0.00000  Uiso   1.00
O64    O     0.18694   0.16666   0.32549   0.00000  Uiso   1.00
O65    O     0.12706   0.10654   0.25000   0.00000  Uiso   1.00
O66    O     0.20625   0.10655   0.25000   0.00000  Uiso   1.00
O67    O     0.14640   0.16667   0.17451   0.00000  Uiso   1.00
O68    O     0.22559   0.16668   0.17451   0.00000  Uiso   1.00
C69    C     0.50043   0.24580   0.25043   0.00000  Uiso   1.00
C70    C     0.45843   0.17093   0.40723   0.00000  Uiso   1.00
C71    C     0.51805   0.31237   0.28849   0.00000  Uiso   1.00
C72    C     0.47406   0.16904   0.34992   0.00000  Uiso   1.00
C73    C     0.51589   0.02233   0.29147   0.00000  Uiso   1.00
C74    C     0.49786   0.04278   0.25513   0.00000  Uiso   1.00
C75    C     0.48103   0.02009   0.21869   0.00000  Uiso   1.00
C76    C     0.48191   0.31075   0.21738   0.00000  Uiso   1.00
C77    C     0.50096   0.29036   0.25164   0.00000  Uiso   1.00
C78    C     0.63670   0.19830   0.27322   0.00000  Uiso   1.00
C79    C     0.35293   0.19859   0.27259   0.00000  Uiso   1.00
C80    C     0.47806   0.17488   0.48988   0.00000  Uiso   1.00
C81    C     0.36131   0.13378   0.22812   0.00000  Uiso   1.00
C82    C     0.64624   0.13579   0.22619   0.00000  Uiso   1.00
C83    C     0.49900   0.08752   0.25223   0.00000  Uiso   1.00
C84    C     0.52613   0.16818   0.15015   0.00000  Uiso   1.00
C85    C     0.59559   0.20467   0.01596   0.00000  Uiso   1.00
C86    C     0.54087   0.17518   0.09386   0.00000  Uiso   1.00
C87    C     0.41159   0.15599   0.43343   0.00000  Uiso   1.00
C88    C     0.39725   0.15186   0.48699   0.00000  Uiso   1.00
C89    C     0.43004   0.16060   0.01500   0.00000  Uiso   1.00
C90    C     0.53026   0.04541   0.33497   0.00000  Uiso   1.00
C91    C     0.49063   0.18372   0.43614   0.00000  Uiso   1.00
C92    C     0.48550   0.06085   0.37705   0.00000  Uiso   1.00
C93    C     0.38330   0.09168   0.20937   0.00000  Uiso   1.00
C94    C     0.41833   0.09153   0.15437   0.00000  Uiso   1.00
C95    C     0.51396   0.18086   0.01634   0.00000  Uiso   1.00
C96    C     0.55973   0.19922   0.49041   0.00000  Uiso   1.00
C97    C     0.56888   0.21262   0.43962   0.00000  Uiso   1.00
C98    C     0.53462   0.20556   0.41312   0.00000  Uiso   1.00
C99    C     0.50606   0.16830   0.06760   0.00000  Uiso   1.00
C100   C     0.58626   0.19289   0.06752   0.00000  Uiso   1.00
Cu101  Cu    0.45311   0.16666   0.25000   0.00000  Uiso   1.00
Cu102  Cu    0.54689   0.16667   0.25000   0.00000  Uiso   1.00
F103   F     0.62080   0.20041   0.09197   0.00000  Uiso   1.00
F104   F     0.35172   0.13772   0.01181   0.00000  Uiso   1.00
F105   F     0.53437   0.29140   0.32292   0.00000  Uiso   1.00
H106   H     0.46835   0.03536   0.19021   0.00000  Uiso   1.00
H107   H     0.41619   0.15683   0.05641   0.00000  Uiso   1.00
H108   H     0.54280   0.21843   0.37486   0.00000  Uiso   1.00
H109   H     0.49703   0.07880   0.40740   0.00000  Uiso   1.00
H110   H     0.46373   0.08111   0.36038   0.00000  Uiso   1.00
H111   H     0.46230   0.03415   0.39558   0.00000  Uiso   1.00
H112   H     0.55030   0.02511   0.35381   0.00000  Uiso   1.00
H113   H     0.55572   0.07158   0.31982   0.00000  Uiso   1.00
H114   H     0.40589   0.11300   0.12977   0.00000  Uiso   1.00
H115   H     0.45580   0.09930   0.15455   0.00000  Uiso   1.00
H116   H     0.41917   0.06001   0.13647   0.00000  Uiso   1.00
H117   H     0.46865   0.29359   0.18890   0.00000  Uiso   1.00
H118   H     0.39555   0.07574   0.23857   0.00000  Uiso   1.00
H119   H     0.35405   0.06910   0.20694   0.00000  Uiso   1.00
H120   H     0.61397   0.22369   0.29213   0.00000  Uiso   1.00
H121   H     0.36696   0.22415   0.29111   0.00000  Uiso   1.00
H122   H     0.63058   0.11156   0.20714   0.00000  Uiso   1.00
H123   H     0.60280   0.22847   0.42012   0.00000  Uiso   1.00
H124   H     0.63059   0.21874   0.49626   0.00000  Uiso   1.00
H125   H     0.47275   0.15309   0.08827   0.00000  Uiso   1.00
H126   H     0.38618   0.14657   0.41230   0.00000  Uiso   1.00
N127   N     0.38265   0.16666   0.24999   0.00000  Uiso   1.00
N128   N     0.61735   0.16669   0.25000   0.00000  Uiso   1.00
O129   O     0.46042   0.22678   0.25001   0.00000  Uiso   1.00
O130   O     0.53961   0.22679   0.25001   0.00000  Uiso   1.00
O131   O     0.44108   0.16665   0.32549   0.00000  Uiso   1.00
O132   O     0.52027   0.16666   0.32549   0.00000  Uiso   1.00
O133   O     0.46039   0.10654   0.25000   0.00000  Uiso   1.00
O134   O     0.53958   0.10655   0.25000   0.00000  Uiso   1.00
O135   O     0.47973   0.16667   0.17451   0.00000  Uiso   1.00
O136   O     0.55892   0.16668   0.17451   0.00000  Uiso   1.00
C137   C     0.83376   0.24580   0.25043   0.00000  Uiso   1.00
C138   C     0.79177   0.17093   0.40723   0.00000  Uiso   1.00
C139   C     0.85138   0.31237   0.28849   0.00000  Uiso   1.00
C140   C     0.80739   0.16904   0.34992   0.00000  Uiso   1.00
C141   C     0.84923   0.02233   0.29147   0.00000  Uiso   1.00
C142   C     0.83119   0.04278   0.25513   0.00000  Uiso   1.00
C143   C     0.81436   0.02009   0.21869   0.00000  Uiso   1.00
C144   C     0.81525   0.31075   0.21738   0.00000  Uiso   1.00
C145   C     0.83429   0.29036   0.25164   0.00000  Uiso   1.00
C146   C     0.97003   0.19830   0.27322   0.00000  Uiso   1.00
C147   C     0.68627   0.19859   0.27259   0.00000  Uiso   1.00
C148   C     0.81140   0.17488   0.48988   0.00000  Uiso   1.00
C149   C     0.69465   0.13378   0.22812   0.00000  Uiso   1.00
C150   C     0.97957   0.13579   0.22619   0.00000  Uiso   1.00
C151   C     0.83233   0.08752   0.25223   0.00000  Uiso   1.00
C152   C     0.85946   0.16818   0.15015   0.00000  Uiso   1.00
C153   C     0.92893   0.20467   0.01596   0.00000  Uiso   1.00
C154   C     0.87420   0.17518   0.09386   0.00000  Uiso   1.00
C155   C     0.74493   0.15599   0.43343   0.00000  Uiso   1.00
C156   C     0.73059   0.15186   0.48699   0.00000  Uiso   1.00
C157   C     0.76338   0.16060   0.01500   0.00000  Uiso   1.00
C158   C     0.86359   0.04541   0.33497   0.00000  Uiso   1.00
C159   C     0.82396   0.18372   0.43614   0.00000  Uiso   1.00
C160   C     0.81884   0.06085   0.37705   0.00000  Uiso   1.00
C161   C     0.71663   0.09168   0.20937   0.00000  Uiso   1.00
C162   C     0.75167   0.09153   0.15437   0.00000  Uiso   1.00
C163   C     0.84730   0.18086   0.01634   0.00000  Uiso   1.00
C164   C     0.89307   0.19922   0.49041   0.00000  Uiso   1.00
C165   C     0.90221   0.21262   0.43962   0.00000  Uiso   1.00
C166   C     0.86796   0.20556   0.41312   0.00000  Uiso   1.00
C167   C     0.83940   0.16830   0.06760   0.00000  Uiso   1.00
C168   C     0.91959   0.19289   0.06752   0.00000  Uiso   1.00
Cu169  Cu    0.78645   0.16666   0.25000   0.00000  Uiso   1.00
Cu170  Cu    0.88022   0.16667   0.25000   0.00000  Uiso   1.00
F171   F     0.95413   0.20041   0.09197   0.00000  Uiso   1.00
F172   F     0.68505   0.13772   0.01181   0.00000  Uiso   1.00
F173   F     0.86771   0.29140   0.32292   0.00000  Uiso   1.00
H174   H     0.80169   0.03536   0.19021   0.00000  Uiso   1.00
H175   H     0.74953   0.15683   0.05641   0.00000  Uiso   1.00
H176   H     0.87614   0.21843   0.37486   0.00000  Uiso   1.00
H177   H     0.83036   0.07880   0.40740   0.00000  Uiso   1.00
H178   H     0.79707   0.08111   0.36038   0.00000  Uiso   1.00
H179   H     0.79563   0.03415   0.39558   0.00000  Uiso   1.00
H180   H     0.88363   0.02511   0.35381   0.00000  Uiso   1.00
H181   H     0.88905   0.07158   0.31982   0.00000  Uiso   1.00
H182   H     0.73922   0.11300   0.12977   0.00000  Uiso   1.00
H183   H     0.78913   0.09930   0.15455   0.00000  Uiso   1.00
H184   H     0.75251   0.06001   0.13647   0.00000  Uiso   1.00
H185   H     0.80199   0.29359   0.18890   0.00000  Uiso   1.00
H186   H     0.72889   0.07574   0.23857   0.00000  Uiso   1.00
H187   H     0.68738   0.06910   0.20694   0.00000  Uiso   1.00
H188   H     0.94731   0.22369   0.29213   0.00000  Uiso   1.00
H189   H     0.70029   0.22415   0.29111   0.00000  Uiso   1.00
H190   H     0.96391   0.11156   0.20714   0.00000  Uiso   1.00
H191   H     0.93613   0.22847   0.42012   0.00000  Uiso   1.00
H192   H     0.96393   0.21874   0.49626   0.00000  Uiso   1.00
H193   H     0.80609   0.15309   0.08827   0.00000  Uiso   1.00
H194   H     0.71951   0.14657   0.41230   0.00000  Uiso   1.00
N195   N     0.71598   0.16666   0.24999   0.00000  Uiso   1.00
N196   N     0.95069   0.16669   0.25000   0.00000  Uiso   1.00
O197   O     0.79375   0.22678   0.25001   0.00000  Uiso   1.00
O198   O     0.87294   0.22679   0.25001   0.00000  Uiso   1.00
O199   O     0.77441   0.16665   0.32549   0.00000  Uiso   1.00
O200   O     0.85360   0.16666   0.32549   0.00000  Uiso   1.00
O201   O     0.79373   0.10654   0.25000   0.00000  Uiso   1.00
O202   O     0.87292   0.10655   0.25000   0.00000  Uiso   1.00
O203   O     0.81306   0.16667   0.17451   0.00000  Uiso   1.00
O204   O     0.89225   0.16668   0.17451   0.00000  Uiso   1.00
C205   C     0.16709   0.57913   0.25043   0.00000  Uiso   1.00
C206   C     0.12510   0.50426   0.40723   0.00000  Uiso   1.00
C207   C     0.18471   0.64570   0.28849   0.00000  Uiso   1.00
C208   C     0.14073   0.50237   0.34992   0.00000  Uiso   1.00
C209   C     0.18256   0.35567   0.29147   0.00000  Uiso   1.00
C210   C     0.16453   0.37611   0.25513   0.00000  Uiso   1.00
C211   C     0.14769   0.35343   0.21869   0.00000  Uiso   1.00
C212   C     0.14858   0.64408   0.21738   0.00000  Uiso   1.00
C213   C     0.16763   0.62369   0.25164   0.00000  Uiso   1.00
C214   C     0.30336   0.53163   0.27322   0.00000  Uiso   1.00
C215   C     0.01960   0.53192   0.27259   0.00000  Uiso   1.00
C216   C     0.14473   0.50821   0.48988   0.00000  Uiso   1.00
C217   C     0.02798   0.46712   0.22812   0.00000  Uiso   1.00
C218   C     0.31290   0.46912   0.22619   0.00000  Uiso   1.00
C219   C     0.16566   0.42086   0.25223   0.00000  Uiso   1.00
C220   C     0.19279   0.50152   0.15015   0.00000  Uiso   1.00
C221   C     0.26226   0.53800   0.01596   0.00000  Uiso   1.00
C222   C     0.20753   0.50851   0.09386   0.00000  Uiso   1.00
C223   C     0.07826   0.48932   0.43343   0.00000  Uiso   1.00
C224   C     0.06392   0.48519   0.48699   0.00000  Uiso   1.00
C225   C     0.09671   0.49393   0.01500   0.00000  Uiso   1.00
C226   C     0.19692   0.37874   0.33497   0.00000  Uiso   1.00
C227   C     0.15730   0.51706   0.43614   0.00000  Uiso   1.00
C228   C     0.15217   0.39418   0.37705   0.00000  Uiso   1.00
C229   C     0.04997   0.42502   0.20937   0.00000  Uiso   1.00
C230   C     0.08500   0.42486   0.15437   0.00000  Uiso   1.00
C231   C     0.18063   0.51419   0.01634   0.00000  Uiso   1.00
C232   C     0.22640   0.53255   0.49041   0.00000  Uiso   1.00
C233   C     0.23554   0.54596   0.43962   0.00000  Uiso   1.00
C234   C     0.20129   0.53889   0.41312   0.00000  Uiso   1.00
C235   C     0.17273   0.50163   0.06760   0.00000  Uiso   1.00
C236   C     0.25293   0.52623   0.06752   0.00000  Uiso   1.00
Cu237  Cu    0.11978   0.49999   0.25000   0.00000  Uiso   1.00
Cu238  Cu    0.21355   0.50001   0.25000   0.00000  Uiso   1.00
F239   F     0.28746   0.53375   0.09197   0.00000  Uiso   1.00
F240   F     0.01838   0.47106   0.01181   0.00000  Uiso   1.00
F241   F     0.20104   0.62473   0.32292   0.00000  Uiso   1.00
H242   H     0.13502   0.36869   0.19021   0.00000  Uiso   1.00
H243   H     0.08286   0.49016   0.05641   0.00000  Uiso   1.00
H244   H     0.20947   0.55176   0.37486   0.00000  Uiso   1.00
H245   H     0.16369   0.41213   0.40740   0.00000  Uiso   1.00
H246   H     0.13040   0.41445   0.36038   0.00000  Uiso   1.00
H247   H     0.12896   0.36748   0.39558   0.00000  Uiso   1.00
H248   H     0.21696   0.35844   0.35381   0.00000  Uiso   1.00
H249   H     0.22238   0.40491   0.31982   0.00000  Uiso   1.00
H250   H     0.07256   0.44634   0.12977   0.00000  Uiso   1.00
H251   H     0.12246   0.43263   0.15455   0.00000  Uiso   1.00
H252   H     0.08584   0.39334   0.13647   0.00000  Uiso   1.00
H253   H     0.13532   0.62692   0.18890   0.00000  Uiso   1.00
H254   H     0.06222   0.40907   0.23857   0.00000  Uiso   1.00
H255   H     0.02072   0.40244   0.20694   0.00000  Uiso   1.00
H256   H     0.28064   0.55702   0.29213   0.00000  Uiso   1.00
H257   H     0.03363   0.55749   0.29111   0.00000  Uiso   1.00
H258   H     0.29724   0.44489   0.20714   0.00000  Uiso   1.00
H259   H     0.26947   0.56180   0.42012   0.00000  Uiso   1.00
H260   H     0.29726   0.55207   0.49626   0.00000  Uiso   1.00
H261   H     0.13942   0.48642   0.08827   0.00000  Uiso   1.00
H262   H     0.05284   0.47991   0.41230   0.00000  Uiso   1.00
N263   N     0.04931   0.49999   0.24999   0.00000  Uiso   1.00
N264   N     0.28402   0.50002   0.25000   0.00000  Uiso   1.00
O265   O     0.12708   0.56011   0.25001   0.00000  Uiso   1.00
O266   O     0.20627   0.56012   0.25001   0.00000  Uiso   1.00
O267   O     0.10775   0.49998   0.32549   0.00000  Uiso   1.00
O268   O     0.18694   0.49999   0.32549   0.00000  Uiso   1.00
O269   O     0.12706   0.43988   0.25000   0.00000  Uiso   1.00
O270   O     0.20625   0.43989   0.25000   0.00000  Uiso   1.00
O271   O     0.14640   0.50001   0.17451   0.00000  Uiso   1.00
O272   O     0.22559   0.50002   0.17451   0.00000  Uiso   1.00
C273   C     0.50043   0.57913   0.25043   0.00000  Uiso   1.00
C274   C     0.45843   0.50426   0.40723   0.00000  Uiso   1.00
C275   C     0.51805   0.64570   0.28849   0.00000  Uiso   1.00
C276   C     0.47406   0.50237   0.34992   0.00000  Uiso   1.00
C277   C     0.51589   0.35567   0.29147   0.00000  Uiso   1.00
C278   C     0.49786   0.37611   0.25513   0.00000  Uiso   1.00
C279   C     0.48103   0.35343   0.21869   0.00000  Uiso   1.00
C280   C     0.48191   0.64408   0.21738   0.00000  Uiso   1.00
C281   C     0.50096   0.62369   0.25164   0.00000  Uiso   1.00
C282   C     0.63670   0.53163   0.27322   0.00000  Uiso   1.00
C283   C     0.35293   0.53192   0.27259   0.00000  Uiso   1.00
C284   C     0.47806   0.50821   0.48988   0.00000  Uiso   1.00
C285   C     0.36131   0.46712   0.22812   0.00000  Uiso   1.00
C286   C     0.64624   0.46912   0.22619   0.00000  Uiso   1.00
C287   C     0.49900   0.42086   0.25223   0.00000  Uiso   1.00
C288   C     0.52613   0.50152   0.15015   0.00000  Uiso   1.00
C289   C     0.59559   0.53800   0.01596   0.00000  Uiso   1.00
C290   C     0.54087   0.50851   0.09386   0.00000  Uiso   1.00
C291   C     0.41159   0.48932   0.43343   0.00000  Uiso   1.00
C292   C     0.39725   0.48519   0.48699   0.00000  Uiso   1.00
C293   C     0.43004   0.49393   0.01500   0.00000  Uiso   1.00
C294   C     0.53026   0.37874   0.33497   0.00000  Uiso   1.00
C295   C     0.49063   0.51706   0.43614   0.00000  Uiso   1.00
C296   C     0.48550   0.39418   0.37705   0.00000  Uiso   1.00
C297   C     0.38330   0.42502   0.20937   0.00000  Uiso   1.00
C298   C     0.41833   0.42486   0.15437   0.00000  Uiso   1.00
C299   C     0.51396   0.51419   0.01634   0.00000  Uiso   1.00
C300   C     0.55973   0.53255   0.49041   0.00000  Uiso   1.00
C301   C     0.56888   0.54596   0.43962   0.00000  Uiso   1.00
C302   C     0.53462   0.53889   0.41312   0.00000  Uiso   1.00
C303   C     0.50606   0.50163   0.06760   0.00000  Uiso   1.00
C304   C     0.58626   0.52623   0.06752   0.00000  Uiso   1.00
Cu305  Cu    0.45311   0.49999   0.25000   0.00000  Uiso   1.00
Cu306  Cu    0.54689   0.50001   0.25000   0.00000  Uiso   1.00
F307   F     0.62080   0.53375   0.09197   0.00000  Uiso   1.00
F308   F     0.35172   0.47106   0.01181   0.00000  Uiso   1.00
F309   F     0.53437   0.62473   0.32292   0.00000  Uiso   1.00
H310   H     0.46835   0.36869   0.19021   0.00000  Uiso   1.00
H311   H     0.41619   0.49016   0.05641   0.00000  Uiso   1.00
H312   H     0.54280   0.55176   0.37486   0.00000  Uiso   1.00
H313   H     0.49703   0.41213   0.40740   0.00000  Uiso   1.00
H314   H     0.46373   0.41445   0.36038   0.00000  Uiso   1.00
H315   H     0.46230   0.36748   0.39558   0.00000  Uiso   1.00
H316   H     0.55030   0.35844   0.35381   0.00000  Uiso   1.00
H317   H     0.55572   0.40491   0.31982   0.00000  Uiso   1.00
H318   H     0.40589   0.44634   0.12977   0.00000  Uiso   1.00
H319   H     0.45580   0.43263   0.15455   0.00000  Uiso   1.00
H320   H     0.41917   0.39334   0.13647   0.00000  Uiso   1.00
H321   H     0.46865   0.62692   0.18890   0.00000  Uiso   1.00
H322   H     0.39555   0.40907   0.23857   0.00000  Uiso   1.00
H323   H     0.35405   0.40244   0.20694   0.00000  Uiso   1.00
H324   H     0.61397   0.55702   0.29213   0.00000  Uiso   1.00
H325   H     0.36696   0.55749   0.29111   0.00000  Uiso   1.00
H326   H     0.63058   0.44489   0.20714   0.00000  Uiso   1.00
H327   H     0.60280   0.56180   0.42012   0.00000  Uiso   1.00
H328   H     0.63059   0.55207   0.49626   0.00000  Uiso   1.00
H329   H     0.47275   0.48642   0.08827   0.00000  Uiso   1.00
H330   H     0.38618   0.47991   0.41230   0.00000  Uiso   1.00
N331   N     0.38265   0.49999   0.24999   0.00000  Uiso   1.00
N332   N     0.61735   0.50002   0.25000   0.00000  Uiso   1.00
O333   O     0.46042   0.56011   0.25001   0.00000  Uiso   1.00
O334   O     0.53961   0.56012   0.25001   0.00000  Uiso   1.00
O335   O     0.44108   0.49998   0.32549   0.00000  Uiso   1.00
O336   O     0.52027   0.49999   0.32549   0.00000  Uiso   1.00
O337   O     0.46039   0.43988   0.25000   0.00000  Uiso   1.00
O338   O     0.53958   0.43989   0.25000   0.00000  Uiso   1.00
O339   O     0.47973   0.50001   0.17451   0.00000  Uiso   1.00
O340   O     0.55892   0.50002   0.17451   0.00000  Uiso   1.00
C341   C     0.83376   0.57913   0.25043   0.00000  Uiso   1.00
C342   C     0.79177   0.50426   0.40723   0.00000  Uiso   1.00
C343   C     0.85138   0.64570   0.28849   0.00000  Uiso   1.00
C344   C     0.80739   0.50237   0.34992   0.00000  Uiso   1.00
C345   C     0.84923   0.35567   0.29147   0.00000  Uiso   1.00
C346   C     0.83119   0.37611   0.25513   0.00000  Uiso   1.00
C347   C     0.81436   0.35343   0.21869   0.00000  Uiso   1.00
C348   C     0.81525   0.64408   0.21738   0.00000  Uiso   1.00
C349   C     0.83429   0.62369   0.25164   0.00000  Uiso   1.00
C350   C     0.97003   0.53163   0.27322   0.00000  Uiso   1.00
C351   C     0.68627   0.53192   0.27259   0.00000  Uiso   1.00
C352   C     0.81140   0.50821   0.48988   0.00000  Uiso   1.00
C353   C     0.69465   0.46712   0.22812   0.00000  Uiso   1.00
C354   C     0.97957   0.46912   0.22619   0.00000  Uiso   1.00
C355   C     0.83233   0.42086   0.25223   0.00000  Uiso   1.00
C356   C     0.85946   0.50152   0.15015   0.00000  Uiso   1.00
C357   C     0.92893   0.53800   0.01596   0.00000  Uiso   1.00
C358   C     0.87420   0.50851   0.09386   0.00000  Uiso   1.00
C359   C     0.74493   0.48932   0.43343   0.00000  Uiso   1.00
C360   C     0.73059   0.48519   0.48699   0.00000  Uiso   1.00
C361   C     0.76338   0.49393   0.01500   0.00000  Uiso   1.00
C362   C     0.86359   0.37874   0.33497   0.00000  Uiso   1.00
C363   C     0.82396   0.51706   0.43614   0.00000  Uiso   1.00
C364   C     0.81884   0.39418   0.37705   0.00000  Uiso   1.00
C365   C     0.71663   0.42502   0.20937   0.00000  Uiso   1.00
C366   C     0.75167   0.42486   0.15437   0.00000  Uiso   1.00
C367   C     0.84730   0.51419   0.01634   0.00000  Uiso   1.00
C368   C     0.89307   0.53255   0.49041   0.00000  Uiso   1.00
C369   C     0.90221   0.54596   0.43962   0.00000  Uiso   1.00
C370   C     0.86796   0.53889   0.41312   0.00000  Uiso   1.00
C371   C     0.83940   0.50163   0.06760   0.00000  Uiso   1.00
C372   C     0.91959   0.52623   0.06752   0.00000  Uiso   1.00
Cu373  Cu    0.78645   0.49999   0.25000   0.00000  Uiso   1.00
Cu374  Cu    0.88022   0.50001   0.25000   0.00000  Uiso   1.00
F375   F     0.95413   0.53375   0.09197   0.00000  Uiso   1.00
F376   F     0.68505   0.47106   0.01181   0.00000  Uiso   1.00
F377   F     0.86771   0.62473   0.32292   0.00000  Uiso   1.00
H378   H     0.80169   0.36869   0.19021   0.00000  Uiso   1.00
H379   H     0.74953   0.49016   0.05641   0.00000  Uiso   1.00
H380   H     0.87614   0.55176   0.37486   0.00000  Uiso   1.00
H381   H     0.83036   0.41213   0.40740   0.00000  Uiso   1.00
H382   H     0.79707   0.41445   0.36038   0.00000  Uiso   1.00
H383   H     0.79563   0.36748   0.39558   0.00000  Uiso   1.00
H384   H     0.88363   0.35844   0.35381   0.00000  Uiso   1.00
H385   H     0.88905   0.40491   0.31982   0.00000  Uiso   1.00
H386   H     0.73922   0.44634   0.12977   0.00000  Uiso   1.00
H387   H     0.78913   0.43263   0.15455   0.00000  Uiso   1.00
H388   H     0.75251   0.39334   0.13647   0.00000  Uiso   1.00
H389   H     0.80199   0.62692   0.18890   0.00000  Uiso   1.00
H390   H     0.72889   0.40907   0.23857   0.00000  Uiso   1.00
H391   H     0.68738   0.40244   0.20694   0.00000  Uiso   1.00
H392   H     0.94731   0.55702   0.29213   0.00000  Uiso   1.00
H393   H     0.70029   0.55749   0.29111   0.00000  Uiso   1.00
H394   H     0.96391   0.44489   0.20714   0.00000  Uiso   1.00
H395   H     0.93613   0.56180   0.42012   0.00000  Uiso   1.00
H396   H     0.96393   0.55207   0.49626   0.00000  Uiso   1.00
H397   H     0.80609   0.48642   0.08827   0.00000  Uiso   1.00
H398   H     0.71951   0.47991   0.41230   0.00000  Uiso   1.00
N399   N     0.71598   0.49999   0.24999   0.00000  Uiso   1.00
N400   N     0.95069   0.50002   0.25000   0.00000  Uiso   1.00
O401   O     0.79375   0.56011   0.25001   0.00000  Uiso   1.00
O402   O     0.87294   0.56012   0.25001   0.00000  Uiso   1.00
O403   O     0.77441   0.49998   0.32549   0.00000  Uiso   1.00
O404   O     0.85360   0.49999   0.32549   0.00000  Uiso   1.00
O405   O     0.79373   0.43988   0.25000   0.00000  Uiso   1.00
O406   O     0.87292   0.43989   0.25000   0.00000  Uiso   1.00
O407   O     0.81306   0.50001   0.17451   0.00000  Uiso   1.00
O408   O     0.89225   0.50002   0.17451   0.00000  Uiso   1.00
C409   C     0.16709   0.91247   0.25043   0.00000  Uiso   1.00
C410   C     0.12510   0.83759   0.40723   0.00000  Uiso   1.00
C411   C     0.18471   0.97904   0.28849   0.00000  Uiso   1.00
C412   C     0.14073   0.83571   0.34992   0.00000  Uiso   1.00
C413   C     0.18256   0.68900   0.29147   0.00000  Uiso   1.00
C414   C     0.16453   0.70944   0.25513   0.00000  Uiso   1.00
C415   C     0.14769   0.68676   0.21869   0.00000  Uiso   1.00
C416   C     0.14858   0.97741   0.21738   0.00000  Uiso   1.00
C417   C     0.16763   0.95702   0.25164   0.00000  Uiso   1.00
C418   C     0.30336   0.86496   0.27322   0.00000  Uiso   1.00
C419   C     0.01960   0.86526   0.27259   0.00000  Uiso   1.00
C420   C     0.14473   0.84155   0.48988   0.00000  Uiso   1.00
C421   C     0.02798   0.80045   0.22812   0.00000  Uiso   1.00
C422   C     0.31290   0.80246   0.22619   0.00000  Uiso   1.00
C423   C     0.16566   0.75419   0.25223   0.00000  Uiso   1.00
C424   C     0.19279   0.83485   0.15015   0.00000  Uiso   1.00
C425   C     0.26226   0.87134   0.01596   0.00000  Uiso   1.00
C426   C     0.20753   0.84185   0.09386   0.00000  Uiso   1.00
C427   C     0.07826   0.82266   0.43343   0.00000  Uiso   1.00
C428   C     0.06392   0.81852   0.48699   0.00000  Uiso   1.00
C429   C     0.09671   0.82727   0.01500   0.00000  Uiso   1.00
C430   C     0.19692   0.71208   0.33497   0.00000  Uiso   1.00
C431   C     0.15730   0.85039   0.43614   0.00000  Uiso   1.00
C432   C     0.15217   0.72751   0.37705   0.00000  Uiso   1.00
C433   C     0.04997   0.75835   0.20937   0.00000  Uiso   1.00
C434   C     0.08500   0.75819   0.15437   0.00000  Uiso   1.00
C435   C     0.18063   0.84752   0.01634   0.00000  Uiso   1.00
C436   C     0.22640   0.86589   0.49041   0.00000  Uiso   1.00
C437   C     0.23554   0.87929   0.43962   0.00000  Uiso   1.00
C438   C     0.20129   0.87222   0.41312   0.00000  Uiso   1.00
C439   C     0.17273   0.83497   0.06760   0.00000  Uiso   1.00
C440   C     0.25293   0.85956   0.06752   0.00000  Uiso   1.00
Cu441  Cu    0.11978   0.83333   0.25000   0.00000  Uiso   1.00
Cu442  Cu    0.21355   0.83334   0.25000   0.00000  Uiso   1.00
F443   F     0.28746   0.86708   0.09197   0.00000  Uiso   1.00
F444   F     0.01838   0.80439   0.01181   0.00000  Uiso   1.00
F445   F     0.20104   0.95806   0.32292   0.00000  Uiso   1.00
H446   H     0.13502   0.70203   0.19021   0.00000  Uiso   1.00
H447   H     0.08286   0.82350   0.05641   0.00000  Uiso   1.00
H448   H     0.20947   0.88510   0.37486   0.00000  Uiso   1.00
H449   H     0.16369   0.74546   0.40740   0.00000  Uiso   1.00
H450   H     0.13040   0.74778   0.36038   0.00000  Uiso   1.00
H451   H     0.12896   0.70082   0.39558   0.00000  Uiso   1.00
H452   H     0.21696   0.69178   0.35381   0.00000  Uiso   1.00
H453   H     0.22238   0.73824   0.31982   0.00000  Uiso   1.00
H454   H     0.07256   0.77967   0.12977   0.00000  Uiso   1.00
H455   H     0.12246   0.76597   0.15455   0.00000  Uiso   1.00
H456   H     0.08584   0.72667   0.13647   0.00000  Uiso   1.00
H457   H     0.13532   0.96025   0.18890   0.00000  Uiso   1.00
H458   H     0.06222   0.74240   0.23857   0.00000  Uiso   1.00
H459   H     0.02072   0.73577   0.20694   0.00000  Uiso   1.00
H460   H     0.28064   0.89035   0.29213   0.00000  Uiso   1.00
H461   H     0.03363   0.89082   0.29111   0.00000  Uiso   1.00
H462   H     0.29724   0.77822   0.20714   0.00000  Uiso   1.00
H463   H     0.26947   0.89513   0.42012   0.00000  Uiso   1.00
H464   H     0.29726   0.88540   0.49626   0.00000  Uiso   1.00
H465   H     0.13942   0.81975   0.08827   0.00000  Uiso   1.00
H466   H     0.05284   0.81324   0.41230   0.00000  Uiso   1.00
N467   N     0.04931   0.83332   0.24999   0.00000  Uiso   1.00
N468   N     0.28402   0.83335   0.25000   0.00000  Uiso   1.00
O469   O     0.12708   0.89345   0.25001   0.00000  Uiso   1.00
O470   O     0.20627   0.89346   0.25001   0.00000  Uiso   1.00
O471   O     0.10775   0.83332   0.32549   0.00000  Uiso   1.00
O472   O     0.18694   0.83333   0.32549   0.00000  Uiso   1.00
O473   O     0.12706   0.77321   0.25000   0.00000  Uiso   1.00
O474   O     0.20625   0.77322   0.25000   0.00000  Uiso   1.00
O475   O     0.14640   0.83334   0.17451   0.00000  Uiso   1.00
O476   O     0.22559   0.83335   0.17451   0.00000  Uiso   1.00
C477   C     0.50043   0.91247   0.25043   0.00000  Uiso   1.00
C478   C     0.45843   0.83759   0.40723   0.00000  Uiso   1.00
C479   C     0.51805   0.97904   0.28849   0.00000  Uiso   1.00
C480   C     0.47406   0.83571   0.34992   0.00000  Uiso   1.00
C481   C     0.51589   0.68900   0.29147   0.00000  Uiso   1.00
C482   C     0.49786   0.70944   0.25513   0.00000  Uiso   1.00
C483   C     0.48103   0.68676   0.21869   0.00000  Uiso   1.00
C484   C     0.48191   0.97741   0.21738   0.00000  Uiso   1.00
C485   C     0.50096   0.95702   0.25164   0.00000  Uiso   1.00
C486   C     0.63670   0.86496   0.27322   0.00000  Uiso   1.00
C487   C     0.35293   0.86526   0.27259   0.00000  Uiso   1.00
C488   C     0.47806   0.84155   0.48988   0.00000  Uiso   1.00
C489   C     0.36131   0.80045   0.22812   0.00000  Uiso   1.00
C490   C     0.64624   0.80246   0.22619   0.00000  Uiso   1.00
C491   C     0.49900   0.75419   0.25223   0.00000  Uiso   1.00
C492   C     0.52613   0.83485   0.15015   0.00000  Uiso   1.00
C493   C     0.59559   0.87134   0.01596   0.00000  Uiso   1.00
C494   C     0.54087   0.84185   0.09386   0.00000  Uiso   1.00
C495   C     0.41159   0.82266   0.43343   0.00000  Uiso   1.00
C496   C     0.39725   0.81852   0.48699   0.00000  Uiso   1.00
C497   C     0.43004   0.82727   0.01500   0.00000  Uiso   1.00
C498   C     0.53026   0.71208   0.33497   0.00000  Uiso   1.00
C499   C     0.49063   0.85039   0.43614   0.00000  Uiso   1.00
C500   C     0.48550   0.72751   0.37705   0.00000  Uiso   1.00
C501   C     0.38330   0.75835   0.20937   0.00000  Uiso   1.00
C502   C     0.41833   0.75819   0.15437   0.00000  Uiso   1.00
C503   C     0.51396   0.84752   0.01634   0.00000  Uiso   1.00
C504   C     0.55973   0.86589   0.49041   0.00000  Uiso   1.00
C505   C     0.56888   0.87929   0.43962   0.00000  Uiso   1.00
C506   C     0.53462   0.87222   0.41312   0.00000  Uiso   1.00
C507   C     0.50606   0.83497   0.06760   0.00000  Uiso   1.00
C508   C     0.58626   0.85956   0.06752   0.00000  Uiso   1.00
Cu509  Cu    0.45311   0.83333   0.25000   0.00000  Uiso   1.00
Cu510  Cu    0.54689   0.83334   0.25000   0.00000  Uiso   1.00
F511   F     0.62080   0.86708   0.09197   0.00000  Uiso   1.00
F512   F     0.35172   0.80439   0.01181   0.00000  Uiso   1.00
F513   F     0.53437   0.95806   0.32292   0.00000  Uiso   1.00
H514   H     0.46835   0.70203   0.19021   0.00000  Uiso   1.00
H515   H     0.41619   0.82350   0.05641   0.00000  Uiso   1.00
H516   H     0.54280   0.88510   0.37486   0.00000  Uiso   1.00
H517   H     0.49703   0.74546   0.40740   0.00000  Uiso   1.00
H518   H     0.46373   0.74778   0.36038   0.00000  Uiso   1.00
H519   H     0.46230   0.70082   0.39558   0.00000  Uiso   1.00
H520   H     0.55030   0.69178   0.35381   0.00000  Uiso   1.00
H521   H     0.55572   0.73824   0.31982   0.00000  Uiso   1.00
H522   H     0.40589   0.77967   0.12977   0.00000  Uiso   1.00
H523   H     0.45580   0.76597   0.15455   0.00000  Uiso   1.00
H524   H     0.41917   0.72667   0.13647   0.00000  Uiso   1.00
H525   H     0.46865   0.96025   0.18890   0.00000  Uiso   1.00
H526   H     0.39555   0.74240   0.23857   0.00000  Uiso   1.00
H527   H     0.35405   0.73577   0.20694   0.00000  Uiso   1.00
H528   H     0.61397   0.89035   0.29213   0.00000  Uiso   1.00
H529   H     0.36696   0.89082   0.29111   0.00000  Uiso   1.00
H530   H     0.63058   0.77822   0.20714   0.00000  Uiso   1.00
H531   H     0.60280   0.89513   0.42012   0.00000  Uiso   1.00
H532   H     0.63059   0.88540   0.49626   0.00000  Uiso   1.00
H533   H     0.47275   0.81975   0.08827   0.00000  Uiso   1.00
H534   H     0.38618   0.81324   0.41230   0.00000  Uiso   1.00
N535   N     0.38265   0.83332   0.24999   0.00000  Uiso   1.00
N536   N     0.61735   0.83335   0.25000   0.00000  Uiso   1.00
O537   O     0.46042   0.89345   0.25001   0.00000  Uiso   1.00
O538   O     0.53961   0.89346   0.25001   0.00000  Uiso   1.00
O539   O     0.44108   0.83332   0.32549   0.00000  Uiso   1.00
O540   O     0.52027   0.83333   0.32549   0.00000  Uiso   1.00
O541   O     0.46039   0.77321   0.25000   0.00000  Uiso   1.00
O542   O     0.53958   0.77322   0.25000   0.00000  Uiso   1.00
O543   O     0.47973   0.83334   0.17451   0.00000  Uiso   1.00
O544   O     0.55892   0.83335   0.17451   0.00000  Uiso   1.00
C545   C     0.83376   0.91247   0.25043   0.00000  Uiso   1.00
C546   C     0.79177   0.83759   0.40723   0.00000  Uiso   1.00
C547   C     0.85138   0.97904   0.28849   0.00000  Uiso   1.00
C548   C     0.80739   0.83571   0.34992   0.00000  Uiso   1.00
C549   C     0.84923   0.68900   0.29147   0.00000  Uiso   1.00
C550   C     0.83119   0.70944   0.25513   0.00000  Uiso   1.00
C551   C     0.81436   0.68676   0.21869   0.00000  Uiso   1.00
C552   C     0.81525   0.97741   0.21738   0.00000  Uiso   1.00
C553   C     0.83429   0.95702   0.25164   0.00000  Uiso   1.00
C554   C     0.97003   0.86496   0.27322   0.00000  Uiso   1.00
C555   C     0.68627   0.86526   0.27259   0.00000  Uiso   1.00
C556   C     0.81140   0.84155   0.48988   0.00000  Uiso   1.00
C557   C     0.69465   0.80045   0.22812   0.00000  Uiso   1.00
C558   C     0.97957   0.80246   0.22619   0.00000  Uiso   1.00
C559   C     0.83233   0.75419   0.25223   0.00000  Uiso   1.00
C560   C     0.85946   0.83485   0.15015   0.00000  Uiso   1.00
C561   C     0.92893   0.87134   0.01596   0.00000  Uiso   1.00
C562   C     0.87420   0.84185   0.09386   0.00000  Uiso   1.00
C563   C     0.74493   0.82266   0.43343   0.00000  Uiso   1.00
C564   C     0.73059   0.81852   0.48699   0.00000  Uiso   1.00
C565   C     0.76338   0.82727   0.01500   0.00000  Uiso   1.00
C566   C     0.86359   0.71208   0.33497   0.00000  Uiso   1.00
C567   C     0.82396   0.85039   0.43614   0.00000  Uiso   1.00
C568   C     0.81884   0.72751   0.37705   0.00000  Uiso   1.00
C569   C     0.71663   0.75835   0.20937   0.00000  Uiso   1.00
C570   C     0.75167   0.75819   0.15437   0.00000  Uiso   1.00
C571   C     0.84730   0.84752   0.01634   0.00000  Uiso   1.00
C572   C     0.89307   0.86589   0.49041   0.00000  Uiso   1.00
C573   C     0.90221   0.87929   0.43962   0.00000  Uiso   1.00
C574   C     0.86796   0.87222   0.41312   0.00000  Uiso   1.00
C575   C     0.83940   0.83497   0.06760   0.00000  Uiso   1.00
C576   C     0.91959   0.85956   0.06752   0.00000  Uiso   1.00
Cu577  Cu    0.78645   0.83333   0.25000   0.00000  Uiso   1.00
Cu578  Cu    0.88022   0.83334   0.25000   0.00000  Uiso   1.00
F579   F     0.95413   0.86708   0.09197   0.00000  Uiso   1.00
F580   F     0.68505   0.80439   0.01181   0.00000  Uiso   1.00
F581   F     0.86771   0.95806   0.32292   0.00000  Uiso   1.00
H582   H     0.80169   0.70203   0.19021   0.00000  Uiso   1.00
H583   H     0.74953   0.82350   0.05641   0.00000  Uiso   1.00
H584   H     0.87614   0.88510   0.37486   0.00000  Uiso   1.00
H585   H     0.83036   0.74546   0.40740   0.00000  Uiso   1.00
H586   H     0.79707   0.74778   0.36038   0.00000  Uiso   1.00
H587   H     0.79563   0.70082   0.39558   0.00000  Uiso   1.00
H588   H     0.88363   0.69178   0.35381   0.00000  Uiso   1.00
H589   H     0.88905   0.73824   0.31982   0.00000  Uiso   1.00
H590   H     0.73922   0.77967   0.12977   0.00000  Uiso   1.00
H591   H     0.78913   0.76597   0.15455   0.00000  Uiso   1.00
H592   H     0.75251   0.72667   0.13647   0.00000  Uiso   1.00
H593   H     0.80199   0.96025   0.18890   0.00000  Uiso   1.00
H594   H     0.72889   0.74240   0.23857   0.00000  Uiso   1.00
H595   H     0.68738   0.73577   0.20694   0.00000  Uiso   1.00
H596   H     0.94731   0.89035   0.29213   0.00000  Uiso   1.00
H597   H     0.70029   0.89082   0.29111   0.00000  Uiso   1.00
H598   H     0.96391   0.77822   0.20714   0.00000  Uiso   1.00
H599   H     0.93613   0.89513   0.42012   0.00000  Uiso   1.00
H600   H     0.96393   0.88540   0.49626   0.00000  Uiso   1.00
H601   H     0.80609   0.81975   0.08827   0.00000  Uiso   1.00
H602   H     0.71951   0.81324   0.41230   0.00000  Uiso   1.00
N603   N     0.71598   0.83332   0.24999   0.00000  Uiso   1.00
N604   N     0.95069   0.83335   0.25000   0.00000  Uiso   1.00
O605   O     0.79375   0.89345   0.25001   0.00000  Uiso   1.00
O606   O     0.87294   0.89346   0.25001   0.00000  Uiso   1.00
O607   O     0.77441   0.83332   0.32549   0.00000  Uiso   1.00
O608   O     0.85360   0.83333   0.32549   0.00000  Uiso   1.00
O609   O     0.79373   0.77321   0.25000   0.00000  Uiso   1.00
O610   O     0.87292   0.77322   0.25000   0.00000  Uiso   1.00
O611   O     0.81306   0.83334   0.17451   0.00000  Uiso   1.00
O612   O     0.89225   0.83335   0.17451   0.00000  Uiso   1.00
C613   C     0.16709   0.24580   0.75043   0.00000  Uiso   1.00
C614   C     0.12510   0.17093   0.90723   0.00000  Uiso   1.00
C615   C     0.18471   0.31237   0.78849   0.00000  Uiso   1.00
C616   C     0.14073   0.16904   0.84992   0.00000  Uiso   1.00
C617   C     0.18256   0.02233   0.79147   0.00000  Uiso   1.00
C618   C     0.16453   0.04278   0.75513   0.00000  Uiso   1.00
C619   C     0.14769   0.02009   0.71869   0.00000  Uiso   1.00
C620   C     0.14858   0.31075   0.71738   0.00000  Uiso   1.00
C621   C     0.16763   0.29036   0.75164   0.00000  Uiso   1.00
C622   C     0.30336   0.19830   0.77322   0.00000  Uiso   1.00
C623   C     0.01960   0.19859   0.77259   0.00000  Uiso   1.00
C624   C     0.14473   0.17488   0.98988   0.00000  Uiso   1.00
C625   C     0.02798   0.13378   0.72812   0.00000  Uiso   1.00
C626   C     0.31290   0.13579   0.72619   0.00000  Uiso   1.00
C627   C     0.16566   0.08752   0.75223   0.00000  Uiso   1.00
C628   C     0.19279   0.16818   0.65015   0.00000  Uiso   1.00
C629   C     0.26226   0.20467   0.51596   0.00000  Uiso   1.00
C630   C     0.20753   0.17518   0.59386   0.00000  Uiso   1.00
C631   C     0.07826   0.15599   0.93343   0.00000  Uiso   1.00
C632   C     0.06392   0.15186   0.98699   0.00000  Uiso   1.00
C633   C     0.09671   0.16060   0.51500   0.00000  Uiso   1.00
C634   C     0.19692   0.04541   0.83497   0.00000  Uiso   1.00
C635   C     0.15730   0.18372   0.93614   0.00000  Uiso   1.00
C636   C     0.15217   0.06085   0.87705   0.00000  Uiso   1.00
C637   C     0.04997   0.09168   0.70937   0.00000  Uiso   1.00
C638   C     0.08500   0.09153   0.65437   0.00000  Uiso   1.00
C639   C     0.18063   0.18086   0.51634   0.00000  Uiso   1.00
C640   C     0.22640   0.19922   0.99041   0.00000  Uiso   1.00
C641   C     0.23554   0.21262   0.93962   0.00000  Uiso   1.00
C642   C     0.20129   0.20556   0.91312   0.00000  Uiso   1.00
C643   C     0.17273   0.16830   0.56760   0.00000  Uiso   1.00
C644   C     0.25293   0.19289   0.56752   0.00000  Uiso   1.00
Cu645  Cu    0.11978   0.16666   0.75000   0.00000  Uiso   1.00
Cu646  Cu    0.21355   0.16667   0.75000   0.00000  Uiso   1.00
F647   F     0.28746   0.20041   0.59197   0.00000  Uiso   1.00
F648   F     0.01838   0.13772   0.51181   0.00000  Uiso   1.00
F649   F     0.20104   0.29140   0.82292   0.00000  Uiso   1.00
H650   H     0.13502   0.03536   0.69021   0.00000  Uiso   1.00
H651   H     0.08286   0.15683   0.55641   0.00000  Uiso   1.00
H652   H     0.20947   0.21843   0.87486   0.00000  Uiso   1.00
H653   H     0.16369   0.07880   0.90740   0.00000  Uiso   1.00
H654   H     0.13040   0.08111   0.86038   0.00000  Uiso   1.00
H655   H     0.12896   0.03415   0.89558   0.00000  Uiso   1.00
H656   H     0.21696   0.02511   0.85381   0.00000  Uiso   1.00
H657   H     0.22238   0.07158   0.81982   0.00000  Uiso   1.00
H658   H     0.07256   0.11300   0.62977   0.00000  Uiso   1.00
H659   H     0.12246   0.09930   0.65455   0.00000  Uiso   1.00
H660   H     0.08584   0.06001   0.63647   0.00000  Uiso   1.00
H661   H     0.13532   0.29359   0.68890   0.00000  Uiso   1.00
H662   H     0.06222   0.07574   0.73857   0.00000  Uiso   1.00
H663   H     0.02072   0.06910   0.70694   0.00000  Uiso   1.00
H664   H     0.28064   0.22369   0.79213   0.00000  Uiso   1.00
H665   H     0.03363   0.22415   0.79111   0.00000  Uiso   1.00
H666   H     0.29724   0.11156   0.70714   0.00000  Uiso   1.00
H667   H     0.26947   0.22847   0.92012   0.00000  Uiso   1.00
H668   H     0.29726   0.21874   0.99626   0.00000  Uiso   1.00
H669   H     0.13942   0.15309   0.58827   0.00000  Uiso   1.00
H670   H     0.05284   0.14657   0.91230   0.00000  Uiso   1.00
N671   N     0.04931   0.16666   0.74999   0.00000  Uiso   1.00
N672   N     0.28402   0.16669   0.75000   0.00000  Uiso   1.00
O673   O     0.12708   0.22678   0.75001   0.00000  Uiso   1.00
O674   O     0.20627   0.22679   0.75001   0.00000  Uiso   1.00
O675   O     0.10775   0.16665   0.82549   0.00000  Uiso   1.00
O676   O     0.18694   0.16666   0.82549   0.00000  Uiso   1.00
O677   O     0.12706   0.10654   0.75000   0.00000  Uiso   1.00
O678   O     0.20625   0.10655   0.75000   0.00000  Uiso   1.00
O679   O     0.14640   0.16667   0.67451   0.00000  Uiso   1.00
O680   O     0.22559   0.16668   0.67451   0.00000  Uiso   1.00
C681   C     0.50043   0.24580   0.75043   0.00000  Uiso   1.00
C682   C     0.45843   0.17093   0.90723   0.00000  Uiso   1.00
C683   C     0.51805   0.31237   0.78849   0.00000  Uiso   1.00
C684   C     0.47406   0.16904   0.84992   0.00000  Uiso   1.00
C685   C     0.51589   0.02233   0.79147   0.00000  Uiso   1.00
C686   C     0.49786   0.04278   0.75513   0.00000  Uiso   1.00
C687   C     0.48103   0.02009   0.71869   0.00000  Uiso   1.00
C688   C     0.48191   0.31075   0.71738   0.00000  Uiso   1.00
C689   C     0.50096   0.29036   0.75164   0.00000  Uiso   1.00
C690   C     0.63670   0.19830   0.77322   0.00000  Uiso   1.00
C691   C     0.35293   0.19859   0.77259   0.00000  Uiso   1.00
C692   C     0.47806   0.17488   0.98988   0.00000  Uiso   1.00
C693   C     0.36131   0.13378   0.72812   0.00000  Uiso   1.00
C694   C     0.64624   0.13579   0.72619   0.00000  Uiso   1.00
C695   C     0.49900   0.08752   0.75223   0.00000  Uiso   1.00
C696   C     0.52613   0.16818   0.65015   0.00000  Uiso   1.00
C697   C     0.59559   0.20467   0.51596   0.00000  Uiso   1.00
C698   C     0.54087   0.17518   0.59386   0.00000  Uiso   1.00
C699   C     0.41159   0.15599   0.93343   0.00000  Uiso   1.00
C700   C     0.39725   0.15186   0.98699   0.00000  Uiso   1.00
C701   C     0.43004   0.16060   0.51500   0.00000  Uiso   1.00
C702   C     0.53026   0.04541   0.83497   0.00000  Uiso   1.00
C703   C     0.49063   0.18372   0.93614   0.00000  Uiso   1.00
C704   C     0.48550   0.06085   0.87705   0.00000  Uiso   1.00
C705   C     0.38330   0.09168   0.70937   0.00000  Uiso   1.00
C706   C     0.41833   0.09153   0.65437   0.00000  Uiso   1.00
C707   C     0.51396   0.18086   0.51634   0.00000  Uiso   1.00
C708   C     0.55973   0.19922   0.99041   0.00000  Uiso   1.00
C709   C     0.56888   0.21262   0.93962   0.00000  Uiso   1.00
C710   C     0.53462   0.20556   0.91312   0.00000  Uiso   1.00
C711   C     0.50606   0.16830   0.56760   0.00000  Uiso   1.00
C712   C     0.58626   0.19289   0.56752   0.00000  Uiso   1.00
Cu713  Cu    0.45311   0.16666   0.75000   0.00000  Uiso   1.00
Cu714  Cu    0.54689   0.16667   0.75000   0.00000  Uiso   1.00
F715   F     0.62080   0.20041   0.59197   0.00000  Uiso   1.00
F716   F     0.35172   0.13772   0.51181   0.00000  Uiso   1.00
F717   F     0.53437   0.29140   0.82292   0.00000  Uiso   1.00
H718   H     0.46835   0.03536   0.69021   0.00000  Uiso   1.00
H719   H     0.41619   0.15683   0.55641   0.00000  Uiso   1.00
H720   H     0.54280   0.21843   0.87486   0.00000  Uiso   1.00
H721   H     0.49703   0.07880   0.90740   0.00000  Uiso   1.00
H722   H     0.46373   0.08111   0.86038   0.00000  Uiso   1.00
H723   H     0.46230   0.03415   0.89558   0.00000  Uiso   1.00
H724   H     0.55030   0.02511   0.85381   0.00000  Uiso   1.00
H725   H     0.55572   0.07158   0.81982   0.00000  Uiso   1.00
H726   H     0.40589   0.11300   0.62977   0.00000  Uiso   1.00
H727   H     0.45580   0.09930   0.65455   0.00000  Uiso   1.00
H728   H     0.41917   0.06001   0.63647   0.00000  Uiso   1.00
H729   H     0.46865   0.29359   0.68890   0.00000  Uiso   1.00
H730   H     0.39555   0.07574   0.73857   0.00000  Uiso   1.00
H731   H     0.35405   0.06910   0.70694   0.00000  Uiso   1.00
H732   H     0.61397   0.22369   0.79213   0.00000  Uiso   1.00
H733   H     0.36696   0.22415   0.79111   0.00000  Uiso   1.00
H734   H     0.63058   0.11156   0.70714   0.00000  Uiso   1.00
H735   H     0.60280   0.22847   0.92012   0.00000  Uiso   1.00
H736   H     0.63059   0.21874   0.99626   0.00000  Uiso   1.00
H737   H     0.47275   0.15309   0.58827   0.00000  Uiso   1.00
H738   H     0.38618   0.14657   0.91230   0.00000  Uiso   1.00
N739   N     0.38265   0.16666   0.74999   0.00000  Uiso   1.00
N740   N     0.61735   0.16669   0.75000   0.00000  Uiso   1.00
O741   O     0.46042   0.22678   0.75001   0.00000  Uiso   1.00
O742   O     0.53961   0.22679   0.75001   0.00000  Uiso   1.00
O743   O     0.44108   0.16665   0.82549   0.00000  Uiso   1.00
O744   O     0.52027   0.16666   0.82549   0.00000  Uiso   1.00
O745   O     0.46039   0.10654   0.75000   0.00000  Uiso   1.00
O746   O     0.53958   0.10655   0.75000   0.00000  Uiso   1.00
O747   O     0.47973   0.16667   0.67451   0.00000  Uiso   1.00
O748   O     0.55892   0.16668   0.67451   0.00000  Uiso   1.00
C749   C     0.83376   0.24580   0.75043   0.00000  Uiso   1.00
C750   C     0.79177   0.17093   0.90723   0.00000  Uiso   1.00
C751   C     0.85138   0.31237   0.78849   0.00000  Uiso   1.00
C752   C     0.80739   0.16904   0.84992   0.00000  Uiso   1.00
C753   C     0.84923   0.02233   0.79147   0.00000  Uiso   1.00
C754   C     0.83119   0.04278   0.75513   0.00000  Uiso   1.00
C755   C     0.81436   0.02009   0.71869   0.00000  Uiso   1.00
C756   C     0.81525   0.31075   0.71738   0.00000  Uiso   1.00
C757   C     0.83429   0.29036   0.75164   0.00000  Uiso   1.00
C758   C     0.97003   0.19830   0.77322   0.00000  Uiso   1.00
C759   C     0.68627   0.19859   0.77259   0.00000  Uiso   1.00
C760   C     0.81140   0.17488   0.98988   0.00000  Uiso   1.00
C761   C     0.69465   0.13378   0.72812   0.00000  Uiso   1.00
C762   C     0.97957   0.13579   0.72619   0.00000  Uiso   1.00
C763   C     0.83233   0.08752   0.75223   0.00000  Uiso   1.00
C764   C     0.85946   0.16818   0.65015   0.00000  Uiso   1.00
C765   C     0.92893   0.20467   0.51596   0.00000  Uiso   1.00
C766   C     0.87420   0.17518   0.59386   0.00000  Uiso   1.00
C767   C     0.74493   0.15599   0.93343   0.00000  Uiso   1.00
C768   C     0.73059   0.15186   0.98699   0.00000  Uiso   1.00
C769   C     0.76338   0.16060   0.51500   0.00000  Uiso   1.00
C770   C     0.86359   0.04541   0.83497   0.00000  Uiso   1.00
C771   C     0.82396   0.18372   0.93614   0.00000  Uiso   1.00
C772   C     0.81884   0.06085   0.87705   0.00000  Uiso   1.00
C773   C     0.71663   0.09168   0.70937   0.00000  Uiso   1.00
C774   C     0.75167   0.09153   0.65437   0.00000  Uiso   1.00
C775   C     0.84730   0.18086   0.51634   0.00000  Uiso   1.00
C776   C     0.89307   0.19922   0.99041   0.00000  Uiso   1.00
C777   C     0.90221   0.21262   0.93962   0.00000  Uiso   1.00
C778   C     0.86796   0.20556   0.91312   0.00000  Uiso   1.00
C779   C     0.83940   0.16830   0.56760   0.00000  Uiso   1.00
C780   C     0.91959   0.19289   0.56752   0.00000  Uiso   1.00
Cu781  Cu    0.78645   0.16666   0.75000   0.00000  Uiso   1.00
Cu782  Cu    0.88022   0.16667   0.75000   0.00000  Uiso   1.00
F783   F     0.95413   0.20041   0.59197   0.00000  Uiso   1.00
F784   F     0.68505   0.13772   0.51181   0.00000  Uiso   1.00
F785   F     0.86771   0.29140   0.82292   0.00000  Uiso   1.00
H786   H     0.80169   0.03536   0.69021   0.00000  Uiso   1.00
H787   H     0.74953   0.15683   0.55641   0.00000  Uiso   1.00
H788   H     0.87614   0.21843   0.87486   0.00000  Uiso   1.00
H789   H     0.83036   0.07880   0.90740   0.00000  Uiso   1.00
H790   H     0.79707   0.08111   0.86038   0.00000  Uiso   1.00
H791   H     0.79563   0.03415   0.89558   0.00000  Uiso   1.00
H792   H     0.88363   0.02511   0.85381   0.00000  Uiso   1.00
H793   H     0.88905   0.07158   0.81982   0.00000  Uiso   1.00
H794   H     0.73922   0.11300   0.62977   0.00000  Uiso   1.00
H795   H     0.78913   0.09930   0.65455   0.00000  Uiso   1.00
H796   H     0.75251   0.06001   0.63647   0.00000  Uiso   1.00
H797   H     0.80199   0.29359   0.68890   0.00000  Uiso   1.00
H798   H     0.72889   0.07574   0.73857   0.00000  Uiso   1.00
H799   H     0.68738   0.06910   0.70694   0.00000  Uiso   1.00
H800   H     0.94731   0.22369   0.79213   0.00000  Uiso   1.00
H801   H     0.70029   0.22415   0.79111   0.00000  Uiso   1.00
H802   H     0.96391   0.11156   0.70714   0.00000  Uiso   1.00
H803   H     0.93613   0.22847   0.92012   0.00000  Uiso   1.00
H804   H     0.96393   0.21874   0.99626   0.00000  Uiso   1.00
H805   H     0.80609   0.15309   0.58827   0.00000  Uiso   1.00
H806   H     0.71951   0.14657   0.91230   0.00000  Uiso   1.00
N807   N     0.71598   0.16666   0.74999   0.00000  Uiso   1.00
N808   N     0.95069   0.16669   0.75000   0.00000  Uiso   1.00
O809   O     0.79375   0.22678   0.75001   0.00000  Uiso   1.00
O810   O     0.87294   0.22679   0.75001   0.00000  Uiso   1.00
O811   O     0.77441   0.16665   0.82549   0.00000  Uiso   1.00
O812   O     0.85360   0.16666   0.82549   0.00000  Uiso   1.00
O813   O     0.79373   0.10654   0.75000   0.00000  Uiso   1.00
O814   O     0.87292   0.10655   0.75000   0.00000  Uiso   1.00
O815   O     0.81306   0.16667   0.67451   0.00000  Uiso   1.00
O816   O     0.89225   0.16668   0.67451   0.00000  Uiso   1.00
C817   C     0.16709   0.57913   0.75043   0.00000  Uiso   1.00
C818   C     0.12510   0.50426   0.90723   0.00000  Uiso   1.00
C819   C     0.18471   0.64570   0.78849   0.00000  Uiso   1.00
C820   C     0.14073   0.50237   0.84992   0.00000  Uiso   1.00
C821   C     0.18256   0.35567   0.79147   0.00000  Uiso   1.00
C822   C     0.16453   0.37611   0.75513   0.00000  Uiso   1.00
C823   C     0.14769   0.35343   0.71869   0.00000  Uiso   1.00
C824   C     0.14858   0.64408   0.71738   0.00000  Uiso   1.00
C825   C     0.16763   0.62369   0.75164   0.00000  Uiso   1.00
C826   C     0.30336   0.53163   0.77322   0.00000  Uiso   1.00
C827   C     0.01960   0.53192   0.77259   0.00000  Uiso   1.00
C828   C     0.14473   0.50821   0.98988   0.00000  Uiso   1.00
C829   C     0.02798   0.46712   0.72812   0.00000  Uiso   1.00
C830   C     0.31290   0.46912   0.72619   0.00000  Uiso   1.00
C831   C     0.16566   0.42086   0.75223   0.00000  Uiso   1.00
C832   C     0.19279   0.50152   0.65015   0.00000  Uiso   1.00
C833   C     0.26226   0.53800   0.51596   0.00000  Uiso   1.00
C834   C     0.20753   0.50851   0.59386   0.00000  Uiso   1.00
C835   C     0.07826   0.48932   0.93343   0.00000  Uiso   1.00
C836   C     0.06392   0.48519   0.98699   0.00000  Uiso   1.00
C837   C     0.09671   0.49393   0.51500   0.00000  Uiso   1.00
C838   C     0.19692   0.37874   0.83497   0.00000  Uiso   1.00
C839   C     0.15730   0.51706   0.93614   0.00000  Uiso   1.00
C840   C     0.15217   0.39418   0.87705   0.00000  Uiso   1.00
C841   C     0.04997   0.42502   0.70937   0.00000  Uiso   1.00
C842   C     0.08500   0.42486   0.65437   0.00000  Uiso   1.00
C843   C     0.18063   0.51419   0.51634   0.00000  Uiso   1.00
C844   C     0.22640   0.53255   0.99041   0.00000  Uiso   1.00
C845   C     0.23554   0.54596   0.93962   0.00000  Uiso   1.00
C846   C     0.20129   0.53889   0.91312   0.00000  Uiso   1.00
C847   C     0.17273   0.50163   0.56760   0.00000  Uiso   1.00
C848   C     0.25293   0.52623   0.56752   0.00000  Uiso   1.00
Cu849  Cu    0.11978   0.49999   0.75000   0.00000  Uiso   1.00
Cu850  Cu    0.21355   0.50001   0.75000   0.00000  Uiso   1.00
F851   F     0.28746   0.53375   0.59197   0.00000  Uiso   1.00
F852   F     0.01838   0.47106   0.51181   0.00000  Uiso   1.00
F853   F     0.20104   0.62473   0.82292   0.00000  Uiso   1.00
H854   H     0.13502   0.36869   0.69021   0.00000  Uiso   1.00
H855   H     0.08286   0.49016   0.55641   0.00000  Uiso   1.00
H856   H     0.20947   0.55176   0.87486   0.00000  Uiso   1.00
H857   H     0.16369   0.41213   0.90740   0.00000  Uiso   1.00
H858   H     0.13040   0.41445   0.86038   0.00000  Uiso   1.00
H859   H     0.12896   0.36748   0.89558   0.00000  Uiso   1.00
H860   H     0.21696   0.35844   0.85381   0.00000  Uiso   1.00
H861   H     0.22238   0.40491   0.81982   0.00000  Uiso   1.00
H862   H     0.07256   0.44634   0.62977   0.00000  Uiso   1.00
H863   H     0.12246   0.43263   0.65455   0.00000  Uiso   1.00
H864   H     0.08584   0.39334   0.63647   0.00000  Uiso   1.00
H865   H     0.13532   0.62692   0.68890   0.00000  Uiso   1.00
H866   H     0.06222   0.40907   0.73857   0.00000  Uiso   1.00
H867   H     0.02072   0.40244   0.70694   0.00000  Uiso   1.00
H868   H     0.28064   0.55702   0.79213   0.00000  Uiso   1.00
H869   H     0.03363   0.55749   0.79111   0.00000  Uiso   1.00
H870   H     0.29724   0.44489   0.70714   0.00000  Uiso   1.00
H871   H     0.26947   0.56180   0.92012   0.00000  Uiso   1.00
H872   H     0.29726   0.55207   0.99626   0.00000  Uiso   1.00
H873   H     0.13942   0.48642   0.58827   0.00000  Uiso   1.00
H874   H     0.05284   0.47991   0.91230   0.00000  Uiso   1.00
N875   N     0.04931   0.49999   0.74999   0.00000  Uiso   1.00
N876   N     0.28402   0.50002   0.75000   0.00000  Uiso   1.00
O877   O     0.12708   0.56011   0.75001   0.00000  Uiso   1.00
O878   O     0.20627   0.56012   0.75001   0.00000  Uiso   1.00
O879   O     0.10775   0.49998   0.82549   0.00000  Uiso   1.00
O880   O     0.18694   0.49999   0.82549   0.00000  Uiso   1.00
O881   O     0.12706   0.43988   0.75000   0.00000  Uiso   1.00
O882   O     0.20625   0.43989   0.75000   0.00000  Uiso   1.00
O883   O     0.14640   0.50001   0.67451   0.00000  Uiso   1.00
O884   O     0.22559   0.50002   0.67451   0.00000  Uiso   1.00
C885   C     0.50043   0.57913   0.75043   0.00000  Uiso   1.00
C886   C     0.45843   0.50426   0.90723   0.00000  Uiso   1.00
C887   C     0.51805   0.64570   0.78849   0.00000  Uiso   1.00
C888   C     0.47406   0.50237   0.84992   0.00000  Uiso   1.00
C889   C     0.51589   0.35567   0.79147   0.00000  Uiso   1.00
C890   C     0.49786   0.37611   0.75513   0.00000  Uiso   1.00
C891   C     0.48103   0.35343   0.71869   0.00000  Uiso   1.00
C892   C     0.48191   0.64408   0.71738   0.00000  Uiso   1.00
C893   C     0.50096   0.62369   0.75164   0.00000  Uiso   1.00
C894   C     0.63670   0.53163   0.77322   0.00000  Uiso   1.00
C895   C     0.35293   0.53192   0.77259   0.00000  Uiso   1.00
C896   C     0.47806   0.50821   0.98988   0.00000  Uiso   1.00
C897   C     0.36131   0.46712   0.72812   0.00000  Uiso   1.00
C898   C     0.64624   0.46912   0.72619   0.00000  Uiso   1.00
C899   C     0.49900   0.42086   0.75223   0.00000  Uiso   1.00
C900   C     0.52613   0.50152   0.65015   0.00000  Uiso   1.00
C901   C     0.59559   0.53800   0.51596   0.00000  Uiso   1.00
C902   C     0.54087   0.50851   0.59386   0.00000  Uiso   1.00
C903   C     0.41159   0.48932   0.93343   0.00000  Uiso   1.00
C904   C     0.39725   0.48519   0.98699   0.00000  Uiso   1.00
C905   C     0.43004   0.49393   0.51500   0.00000  Uiso   1.00
C906   C     0.53026   0.37874   0.83497   0.00000  Uiso   1.00
C907   C     0.49063   0.51706   0.93614   0.00000  Uiso   1.00
C908   C     0.48550   0.39418   0.87705   0.00000  Uiso   1.00
C909   C     0.38330   0.42502   0.70937   0.00000  Uiso   1.00
C910   C     0.41833   0.42486   0.65437   0.00000  Uiso   1.00
C911   C     0.51396   0.51419   0.51634   0.00000  Uiso   1.00
C912   C     0.55973   0.53255   0.99041   0.00000  Uiso   1.00
C913   C     0.56888   0.54596   0.93962   0.00000  Uiso   1.00
C914   C     0.53462   0.53889   0.91312   0.00000  Uiso   1.00
C915   C     0.50606   0.50163   0.56760   0.00000  Uiso   1.00
C916   C     0.58626   0.52623   0.56752   0.00000  Uiso   1.00
Cu917  Cu    0.45311   0.49999   0.75000   0.00000  Uiso   1.00
Cu918  Cu    0.54689   0.50001   0.75000   0.00000  Uiso   1.00
F919   F     0.62080   0.53375   0.59197   0.00000  Uiso   1.00
F920   F     0.35172   0.47106   0.51181   0.00000  Uiso   1.00
F921   F     0.53437   0.62473   0.82292   0.00000  Uiso   1.00
H922   H     0.46835   0.36869   0.69021   0.00000  Uiso   1.00
H923   H     0.41619   0.49016   0.55641   0.00000  Uiso   1.00
H924   H     0.54280   0.55176   0.87486   0.00000  Uiso   1.00
H925   H     0.49703   0.41213   0.90740   0.00000  Uiso   1.00
H926   H     0.46373   0.41445   0.86038   0.00000  Uiso   1.00
H927   H     0.46230   0.36748   0.89558   0.00000  Uiso   1.00
H928   H     0.55030   0.35844   0.85381   0.00000  Uiso   1.00
H929   H     0.55572   0.40491   0.81982   0.00000  Uiso   1.00
H930   H     0.40589   0.44634   0.62977   0.00000  Uiso   1.00
H931   H     0.45580   0.43263   0.65455   0.00000  Uiso   1.00
H932   H     0.41917   0.39334   0.63647   0.00000  Uiso   1.00
H933   H     0.46865   0.62692   0.68890   0.00000  Uiso   1.00
H934   H     0.39555   0.40907   0.73857   0.00000  Uiso   1.00
H935   H     0.35405   0.40244   0.70694   0.00000  Uiso   1.00
H936   H     0.61397   0.55702   0.79213   0.00000  Uiso   1.00
H937   H     0.36696   0.55749   0.79111   0.00000  Uiso   1.00
H938   H     0.63058   0.44489   0.70714   0.00000  Uiso   1.00
H939   H     0.60280   0.56180   0.92012   0.00000  Uiso   1.00
H940   H     0.63059   0.55207   0.99626   0.00000  Uiso   1.00
H941   H     0.47275   0.48642   0.58827   0.00000  Uiso   1.00
H942   H     0.38618   0.47991   0.91230   0.00000  Uiso   1.00
N943   N     0.38265   0.49999   0.74999   0.00000  Uiso   1.00
N944   N     0.61735   0.50002   0.75000   0.00000  Uiso   1.00
O945   O     0.46042   0.56011   0.75001   0.00000  Uiso   1.00
O946   O     0.53961   0.56012   0.75001   0.00000  Uiso   1.00
O947   O     0.44108   0.49998   0.82549   0.00000  Uiso   1.00
O948   O     0.52027   0.49999   0.82549   0.00000  Uiso   1.00
O949   O     0.46039   0.43988   0.75000   0.00000  Uiso   1.00
O950   O     0.53958   0.43989   0.75000   0.00000  Uiso   1.00
O951   O     0.47973   0.50001   0.67451   0.00000  Uiso   1.00
O952   O     0.55892   0.50002   0.67451   0.00000  Uiso   1.00
C953   C     0.83376   0.57913   0.75043   0.00000  Uiso   1.00
C954   C     0.79177   0.50426   0.90723   0.00000  Uiso   1.00
C955   C     0.85138   0.64570   0.78849   0.00000  Uiso   1.00
C956   C     0.80739   0.50237   0.84992   0.00000  Uiso   1.00
C957   C     0.84923   0.35567   0.79147   0.00000  Uiso   1.00
C958   C     0.83119   0.37611   0.75513   0.00000  Uiso   1.00
C959   C     0.81436   0.35343   0.71869   0.00000  Uiso   1.00
C960   C     0.81525   0.64408   0.71738   0.00000  Uiso   1.00
C961   C     0.83429   0.62369   0.75164   0.00000  Uiso   1.00
C962   C     0.97003   0.53163   0.77322   0.00000  Uiso   1.00
C963   C     0.68627   0.53192   0.77259   0.00000  Uiso   1.00
C964   C     0.81140   0.50821   0.98988   0.00000  Uiso   1.00
C965   C     0.69465   0.46712   0.72812   0.00000  Uiso   1.00
C966   C     0.97957   0.46912   0.72619   0.00000  Uiso   1.00
C967   C     0.83233   0.42086   0.75223   0.00000  Uiso   1.00
C968   C     0.85946   0.50152   0.65015   0.00000  Uiso   1.00
C969   C     0.92893   0.53800   0.51596   0.00000  Uiso   1.00
C970   C     0.87420   0.50851   0.59386   0.00000  Uiso   1.00
C971   C     0.74493   0.48932   0.93343   0.00000  Uiso   1.00
C972   C     0.73059   0.48519   0.98699   0.00000  Uiso   1.00
C973   C     0.76338   0.49393   0.51500   0.00000  Uiso   1.00
C974   C     0.86359   0.37874   0.83497   0.00000  Uiso   1.00
C975   C     0.82396   0.51706   0.93614   0.00000  Uiso   1.00
C976   C     0.81884   0.39418   0.87705   0.00000  Uiso   1.00
C977   C     0.71663   0.42502   0.70937   0.00000  Uiso   1.00
C978   C     0.75167   0.42486   0.65437   0.00000  Uiso   1.00
C979   C     0.84730   0.51419   0.51634   0.00000  Uiso   1.00
C980   C     0.89307   0.53255   0.99041   0.00000  Uiso   1.00
C981   C     0.90221   0.54596   0.93962   0.00000  Uiso   1.00
C982   C     0.86796   0.53889   0.91312   0.00000  Uiso   1.00
C983   C     0.83940   0.50163   0.56760   0.00000  Uiso   1.00
C984   C     0.91959   0.52623   0.56752   0.00000  Uiso   1.00
Cu985  Cu    0.78645   0.49999   0.75000   0.00000  Uiso   1.00
Cu986  Cu    0.88022   0.50001   0.75000   0.00000  Uiso   1.00
F987   F     0.95413   0.53375   0.59197   0.00000  Uiso   1.00
F988   F     0.68505   0.47106   0.51181   0.00000  Uiso   1.00
F989   F     0.86771   0.62473   0.82292   0.00000  Uiso   1.00
H990   H     0.80169   0.36869   0.69021   0.00000  Uiso   1.00
H991   H     0.74953   0.49016   0.55641   0.00000  Uiso   1.00
H992   H     0.87614   0.55176   0.87486   0.00000  Uiso   1.00
H993   H     0.83036   0.41213   0.90740   0.00000  Uiso   1.00
H994   H     0.79707   0.41445   0.86038   0.00000  Uiso   1.00
H995   H     0.79563   0.36748   0.89558   0.00000  Uiso   1.00
H996   H     0.88363   0.35844   0.85381   0.00000  Uiso   1.00
H997   H     0.88905   0.40491   0.81982   0.00000  Uiso   1.00
H998   H     0.73922   0.44634   0.62977   0.00000  Uiso   1.00
H999   H     0.78913   0.43263   0.65455   0.00000  Uiso   1.00
H1000  H     0.75251   0.39334   0.63647   0.00000  Uiso   1.00
H1001  H     0.80199   0.62692   0.68890   0.00000  Uiso   1.00
H1002  H     0.72889   0.40907   0.73857   0.00000  Uiso   1.00
H1003  H     0.68738   0.40244   0.70694   0.00000  Uiso   1.00
H1004  H     0.94731   0.55702   0.79213   0.00000  Uiso   1.00
H1005  H     0.70029   0.55749   0.79111   0.00000  Uiso   1.00
H1006  H     0.96391   0.44489   0.70714   0.00000  Uiso   1.00
H1007  H     0.93613   0.56180   0.92012   0.00000  Uiso   1.00
H1008  H     0.96393   0.55207   0.99626   0.00000  Uiso   1.00
H1009  H     0.80609   0.48642   0.58827   0.00000  Uiso   1.00
H1010  H     0.71951   0.47991   0.91230   0.00000  Uiso   1.00
N1011  N     0.71598   0.49999   0.74999   0.00000  Uiso   1.00
N1012  N     0.95069   0.50002   0.75000   0.00000  Uiso   1.00
O1013  O     0.79375   0.56011   0.75001   0.00000  Uiso   1.00
O1014  O     0.87294   0.56012   0.75001   0.00000  Uiso   1.00
O1015  O     0.77441   0.49998   0.82549   0.00000  Uiso   1.00
O1016  O     0.85360   0.49999   0.82549   0.00000  Uiso   1.00
O1017  O     0.79373   0.43988   0.75000   0.00000  Uiso   1.00
O1018  O     0.87292   0.43989   0.75000   0.00000  Uiso   1.00
O1019  O     0.81306   0.50001   0.67451   0.00000  Uiso   1.00
O1020  O     0.89225   0.50002   0.67451   0.00000  Uiso   1.00
C1021  C     0.16709   0.91247   0.75043   0.00000  Uiso   1.00
C1022  C     0.12510   0.83759   0.90723   0.00000  Uiso   1.00
C1023  C     0.18471   0.97904   0.78849   0.00000  Uiso   1.00
C1024  C     0.14073   0.83571   0.84992   0.00000  Uiso   1.00
C1025  C     0.18256   0.68900   0.79147   0.00000  Uiso   1.00
C1026  C     0.16453   0.70944   0.75513   0.00000  Uiso   1.00
C1027  C     0.14769   0.68676   0.71869   0.00000  Uiso   1.00
C1028  C     0.14858   0.97741   0.71738   0.00000  Uiso   1.00
C1029  C     0.16763   0.95702   0.75164   0.00000  Uiso   1.00
C1030  C     0.30336   0.86496   0.77322   0.00000  Uiso   1.00
C1031  C     0.01960   0.86526   0.77259   0.00000  Uiso   1.00
C1032  C     0.14473   0.84155   0.98988   0.00000  Uiso   1.00
C1033  C     0.02798   0.80045   0.72812   0.00000  Uiso   1.00
C1034  C     0.31290   0.80246   0.72619   0.00000  Uiso   1.00
C1035  C     0.16566   0.75419   0.75223   0.00000  Uiso   1.00
C1036  C     0.19279   0.83485   0.65015   0.00000  Uiso   1.00
C1037  C     0.26226   0.87134   0.51596   0.00000  Uiso   1.00
C1038  C     0.20753   0.84185   0.59386   0.00000  Uiso   1.00
C1039  C     0.07826   0.82266   0.93343   0.00000  Uiso   1.00
C1040  C     0.06392   0.81852   0.98699   0.00000  Uiso   1.00
C1041  C     0.09671   0.82727   0.51500   0.00000  Uiso   1.00
C1042  C     0.19692   0.71208   0.83497   0.00000  Uiso   1.00
C1043  C     0.15730   0.85039   0.93614   0.00000  Uiso   1.00
C1044  C     0.15217   0.72751   0.87705   0.00000  Uiso   1.00
C1045  C     0.04997   0.75835   0.70937   0.00000  Uiso   1.00
C1046  C     0.08500   0.75819   0.65437   0.00000  Uiso   1.00
C1047  C     0.18063   0.84752   0.51634   0.00000  Uiso   1.00
C1048  C     0.22640   0.86589   0.99041   0.00000  Uiso   1.00
C1049  C     0.23554   0.87929   0.93962   0.00000  Uiso   1.00
C1050  C     0.20129   0.87222   0.91312   0.00000  Uiso   1.00
C1051  C     0.17273   0.83497   0.56760   0.00000  Uiso   1.00
C1052  C     0.25293   0.85956   0.56752   0.00000  Uiso   1.00
Cu1053 Cu    0.11978   0.83333   0.75000   0.00000  Uiso   1.00
Cu1054 Cu    0.21355   0.83334   0.75000   0.00000  Uiso   1.00
F1055  F     0.28746   0.86708   0.59197   0.00000  Uiso   1.00
F1056  F     0.01838   0.80439   0.51181   0.00000  Uiso   1.00
F1057  F     0.20104   0.95806   0.82292   0.00000  Uiso   1.00
H1058  H     0.13502   0.70203   0.69021   0.00000  Uiso   1.00
H1059  H     0.08286   0.82350   0.55641   0.00000  Uiso   1.00
H1060  H     0.20947   0.88510   0.87486   0.00000  Uiso   1.00
H1061  H     0.16369   0.74546   0.90740   0.00000  Uiso   1.00
H1062  H     0.13040   0.74778   0.86038   0.00000  Uiso   1.00
H1063  H     0.12896   0.70082   0.89558   0.00000  Uiso   1.00
H1064  H     0.21696   0.69178   0.85381   0.00000  Uiso   1.00
H1065  H     0.22238   0.73824   0.81982   0.00000  Uiso   1.00
H1066  H     0.07256   0.77967   0.62977   0.00000  Uiso   1.00
H1067  H     0.12246   0.76597   0.65455   0.00000  Uiso   1.00
H1068  H     0.08584   0.72667   0.63647   0.00000  Uiso   1.00
H1069  H     0.13532   0.96025   0.68890   0.00000  Uiso   1.00
H1070  H     0.06222   0.74240   0.73857   0.00000  Uiso   1.00
H1071  H     0.02072   0.73577   0.70694   0.00000  Uiso   1.00
H1072  H     0.28064   0.89035   0.79213   0.00000  Uiso   1.00
H1073  H     0.03363   0.89082   0.79111   0.00000  Uiso   1.00
H1074  H     0.29724   0.77822   0.70714   0.00000  Uiso   1.00
H1075  H     0.26947   0.89513   0.92012   0.00000  Uiso   1.00
H1076  H     0.29726   0.88540   0.99626   0.00000  Uiso   1.00
H1077  H     0.13942   0.81975   0.58827   0.00000  Uiso   1.00
H1078  H     0.05284   0.81324   0.91230   0.00000  Uiso   1.00
N1079  N     0.04931   0.83332   0.74999   0.00000  Uiso   1.00
N1080  N     0.28402   0.83335   0.75000   0.00000  Uiso   1.00
O1081  O     0.12708   0.89345   0.75001   0.00000  Uiso   1.00
O1082  O     0.20627   0.89346   0.75001   0.00000  Uiso   1.00
O1083  O     0.10775   0.83332   0.82549   0.00000  Uiso   1.00
O1084  O     0.18694   0.83333   0.82549   0.00000  Uiso   1.00
O1085  O     0.12706   0.77321   0.75000   0.00000  Uiso   1.00
O1086  O     0.20625   0.77322   0.75000   0.00000  Uiso   1.00
O1087  O     0.14640   0.83334   0.67451   0.00000  Uiso   1.00
O1088  O     0.22559   0.83335   0.67451   0.00000  Uiso   1.00
C1089  C     0.50043   0.91247   0.75043   0.00000  Uiso   1.00
C1090  C     0.45843   0.83759   0.90723   0.00000  Uiso   1.00
C1091  C     0.51805   0.97904   0.78849   0.00000  Uiso   1.00
C1092  C     0.47406   0.83571   0.84992   0.00000  Uiso   1.00
C1093  C     0.51589   0.68900   0.79147   0.00000  Uiso   1.00
C1094  C     0.49786   0.70944   0.75513   0.00000  Uiso   1.00
C1095  C     0.48103   0.68676   0.71869   0.00000  Uiso   1.00
C1096  C     0.48191   0.97741   0.71738   0.00000  Uiso   1.00
C1097  C     0.50096   0.95702   0.75164   0.00000  Uiso   1.00
C1098  C     0.63670   0.86496   0.77322   0.00000  Uiso   1.00
C1099  C     0.35293   0.86526   0.77259   0.00000  Uiso   1.00
C1100  C     0.47806   0.84155   0.98988   0.00000  Uiso   1.00
C1101  C     0.36131   0.80045   0.72812   0.00000  Uiso   1.00
C1102  C     0.64624   0.80246   0.72619   0.00000  Uiso   1.00
C1103  C     0.49900   0.75419   0.75223   0.00000  Uiso   1.00
C1104  C     0.52613   0.83485   0.65015   0.00000  Uiso   1.00
C1105  C     0.59559   0.87134   0.51596   0.00000  Uiso   1.00
C1106  C     0.54087   0.84185   0.59386   0.00000  Uiso   1.00
C1107  C     0.41159   0.82266   0.93343   0.00000  Uiso   1.00
C1108  C     0.39725   0.81852   0.98699   0.00000  Uiso   1.00
C1109  C     0.43004   0.82727   0.51500   0.00000  Uiso   1.00
C1110  C     0.53026   0.71208   0.83497   0.00000  Uiso   1.00
C1111  C     0.49063   0.85039   0.93614   0.00000  Uiso   1.00
C1112  C     0.48550   0.72751   0.87705   0.00000  Uiso   1.00
C1113  C     0.38330   0.75835   0.70937   0.00000  Uiso   1.00
C1114  C     0.41833   0.75819   0.65437   0.00000  Uiso   1.00
C1115  C     0.51396   0.84752   0.51634   0.00000  Uiso   1.00
C1116  C     0.55973   0.86589   0.99041   0.00000  Uiso   1.00
C1117  C     0.56888   0.87929   0.93962   0.00000  Uiso   1.00
C1118  C     0.53462   0.87222   0.91312   0.00000  Uiso   1.00
C1119  C     0.50606   0.83497   0.56760   0.00000  Uiso   1.00
C1120  C     0.58626   0.85956   0.56752   0.00000  Uiso   1.00
Cu1121 Cu    0.45311   0.83333   0.75000   0.00000  Uiso   1.00
Cu1122 Cu    0.54689   0.83334   0.75000   0.00000  Uiso   1.00
F1123  F     0.62080   0.86708   0.59197   0.00000  Uiso   1.00
F1124  F     0.35172   0.80439   0.51181   0.00000  Uiso   1.00
F1125  F     0.53437   0.95806   0.82292   0.00000  Uiso   1.00
H1126  H     0.46835   0.70203   0.69021   0.00000  Uiso   1.00
H1127  H     0.41619   0.82350   0.55641   0.00000  Uiso   1.00
H1128  H     0.54280   0.88510   0.87486   0.00000  Uiso   1.00
H1129  H     0.49703   0.74546   0.90740   0.00000  Uiso   1.00
H1130  H     0.46373   0.74778   0.86038   0.00000  Uiso   1.00
H1131  H     0.46230   0.70082   0.89558   0.00000  Uiso   1.00
H1132  H     0.55030   0.69178   0.85381   0.00000  Uiso   1.00
H1133  H     0.55572   0.73824   0.81982   0.00000  Uiso   1.00
H1134  H     0.40589   0.77967   0.62977   0.00000  Uiso   1.00
H1135  H     0.45580   0.76597   0.65455   0.00000  Uiso   1.00
H1136  H     0.41917   0.72667   0.63647   0.00000  Uiso   1.00
H1137  H     0.46865   0.96025   0.68890   0.00000  Uiso   1.00
H1138  H     0.39555   0.74240   0.73857   0.00000  Uiso   1.00
H1139  H     0.35405   0.73577   0.70694   0.00000  Uiso   1.00
H1140  H     0.61397   0.89035   0.79213   0.00000  Uiso   1.00
H1141  H     0.36696   0.89082   0.79111   0.00000  Uiso   1.00
H1142  H     0.63058   0.77822   0.70714   0.00000  Uiso   1.00
H1143  H     0.60280   0.89513   0.92012   0.00000  Uiso   1.00
H1144  H     0.63059   0.88540   0.99626   0.00000  Uiso   1.00
H1145  H     0.47275   0.81975   0.58827   0.00000  Uiso   1.00
H1146  H     0.38618   0.81324   0.91230   0.00000  Uiso   1.00
N1147  N     0.38265   0.83332   0.74999   0.00000  Uiso   1.00
N1148  N     0.61735   0.83335   0.75000   0.00000  Uiso   1.00
O1149  O     0.46042   0.89345   0.75001   0.00000  Uiso   1.00
O1150  O     0.53961   0.89346   0.75001   0.00000  Uiso   1.00
O1151  O     0.44108   0.83332   0.82549   0.00000  Uiso   1.00
O1152  O     0.52027   0.83333   0.82549   0.00000  Uiso   1.00
O1153  O     0.46039   0.77321   0.75000   0.00000  Uiso   1.00
O1154  O     0.53958   0.77322   0.75000   0.00000  Uiso   1.00
O1155  O     0.47973   0.83334   0.67451   0.00000  Uiso   1.00
O1156  O     0.55892   0.83335   0.67451   0.00000  Uiso   1.00
C1157  C     0.83376   0.91247   0.75043   0.00000  Uiso   1.00
C1158  C     0.79177   0.83759   0.90723   0.00000  Uiso   1.00
C1159  C     0.85138   0.97904   0.78849   0.00000  Uiso   1.00
C1160  C     0.80739   0.83571   0.84992   0.00000  Uiso   1.00
C1161  C     0.84923   0.68900   0.79147   0.00000  Uiso   1.00
C1162  C     0.83119   0.70944   0.75513   0.00000  Uiso   1.00
C1163  C     0.81436   0.68676   0.71869   0.00000  Uiso   1.00
C1164  C     0.81525   0.97741   0.71738   0.00000  Uiso   1.00
C1165  C     0.83429   0.95702   0.75164   0.00000  Uiso   1.00
C1166  C     0.97003   0.86496   0.77322   0.00000  Uiso   1.00
C1167  C     0.68627   0.86526   0.77259   0.00000  Uiso   1.00
C1168  C     0.81140   0.84155   0.98988   0.00000  Uiso   1.00
C1169  C     0.69465   0.80045   0.72812   0.00000  Uiso   1.00
C1170  C     0.97957   0.80246   0.72619   0.00000  Uiso   1.00
C1171  C     0.83233   0.75419   0.75223   0.00000  Uiso   1.00
C1172  C     0.85946   0.83485   0.65015   0.00000  Uiso   1.00
C1173  C     0.92893   0.87134   0.51596   0.00000  Uiso   1.00
C1174  C     0.87420   0.84185   0.59386   0.00000  Uiso   1.00
C1175  C     0.74493   0.82266   0.93343   0.00000  Uiso   1.00
C1176  C     0.73059   0.81852   0.98699   0.00000  Uiso   1.00
C1177  C     0.76338   0.82727   0.51500   0.00000  Uiso   1.00
C1178  C     0.86359   0.71208   0.83497   0.00000  Uiso   1.00
C1179  C     0.82396   0.85039   0.93614   0.00000  Uiso   1.00
C1180  C     0.81884   0.72751   0.87705   0.00000  Uiso   1.00
C1181  C     0.71663   0.75835   0.70937   0.00000  Uiso   1.00
C1182  C     0.75167   0.75819   0.65437   0.00000  Uiso   1.00
C1183  C     0.84730   0.84752   0.51634   0.00000  Uiso   1.00
C1184  C     0.89307   0.86589   0.99041   0.00000  Uiso   1.00
C1185  C     0.90221   0.87929   0.93962   0.00000  Uiso   1.00
C1186  C     0.86796   0.87222   0.91312   0.00000  Uiso   1.00
C1187  C     0.83940   0.83497   0.56760   0.00000  Uiso   1.00
C1188  C     0.91959   0.85956   0.56752   0.00000  Uiso   1.00
Cu1189 Cu    0.78645   0.83333   0.75000   0.00000  Uiso   1.00
Cu1190 Cu    0.88022   0.83334   0.75000   0.00000  Uiso   1.00
F1191  F     0.95413   0.86708   0.59197   0.00000  Uiso   1.00
F1192  F     0.68505   0.80439   0.51181   0.00000  Uiso   1.00
F1193  F     0.86771   0.95806   0.82292   0.00000  Uiso   1.00
H1194  H     0.80169   0.70203   0.69021   0.00000  Uiso   1.00
H1195  H     0.74953   0.82350   0.55641   0.00000  Uiso   1.00
H1196  H     0.87614   0.88510   0.87486   0.00000  Uiso   1.00
H1197  H     0.83036   0.74546   0.90740   0.00000  Uiso   1.00
H1198  H     0.79707   0.74778   0.86038   0.00000  Uiso   1.00
H1199  H     0.79563   0.70082   0.89558   0.00000  Uiso   1.00
H1200  H     0.88363   0.69178   0.85381   0.00000  Uiso   1.00
H1201  H     0.88905   0.73824   0.81982   0.00000  Uiso   1.00
H1202  H     0.73922   0.77967   0.62977   0.00000  Uiso   1.00
H1203  H     0.78913   0.76597   0.65455   0.00000  Uiso   1.00
H1204  H     0.75251   0.72667   0.63647   0.00000  Uiso   1.00
H1205  H     0.80199   0.96025   0.68890   0.00000  Uiso   1.00
H1206  H     0.72889   0.74240   0.73857   0.00000  Uiso   1.00
H1207  H     0.68738   0.73577   0.70694   0.00000  Uiso   1.00
H1208  H     0.94731   0.89035   0.79213   0.00000  Uiso   1.00
H1209  H     0.70029   0.89082   0.79111   0.00000  Uiso   1.00
H1210  H     0.96391   0.77822   0.70714   0.00000  Uiso   1.00
H1211  H     0.93613   0.89513   0.92012   0.00000  Uiso   1.00
H1212  H     0.96393   0.88540   0.99626   0.00000  Uiso   1.00
H1213  H     0.80609   0.81975   0.58827   0.00000  Uiso   1.00
H1214  H     0.71951   0.81324   0.91230   0.00000  Uiso   1.00
N1215  N     0.71598   0.83332   0.74999   0.00000  Uiso   1.00
N1216  N     0.95069   0.83335   0.75000   0.00000  Uiso   1.00
O1217  O     0.79375   0.89345   0.75001   0.00000  Uiso   1.00
O1218  O     0.87294   0.89346   0.75001   0.00000  Uiso   1.00
O1219  O     0.77441   0.83332   0.82549   0.00000  Uiso   1.00
O1220  O     0.85360   0.83333   0.82549   0.00000  Uiso   1.00
O1221  O     0.79373   0.77321   0.75000   0.00000  Uiso   1.00
O1222  O     0.87292   0.77322   0.75000   0.00000  Uiso   1.00
O1223  O     0.81306   0.83334   0.67451   0.00000  Uiso   1.00
O1224  O     0.89225   0.83335   0.67451   0.00000  Uiso   1.00
loop_
_geom_bond_atom_site_label_1
_geom_bond_atom_site_label_2
_geom_bond_distance
_geom_bond_site_symmetry_2
_ccdc_geom_bond_type
C1     O62     1.297   .     A
C1     C9      1.439   .     S
C1     O61     1.293   .     A
C2     C4      1.472   .     S
C2     C23     1.421   .     A
C2     C19     1.403   .     A
C3     C9      1.399   .     A
C3     F37     1.360   .     S
C3     C209    1.401   .     S
C4     O64     1.301   .     A
C4     O63     1.304   .     A
C5     C22     1.521   .     S
C5     C6      1.421   .     A
C5     C411    1.401   1_545 S
C6     C7      1.397   .     A
C6     C15     1.449   .     S
C7     H38     1.077   .     S
C7     C416    1.379   1_545 S
C8     H49     1.084   .     S
C8     C9      1.392   .     A
C8     C211    1.379   .     S
C10    N60     1.371   .     A
C10    H52     1.081   .     S
C10    C79     1.422   .     S
C11    H53     1.081   .     S
C11    N59     1.368   .     A
C11    C146    1.422   1_455 S
C12    C23     1.418   .     A
C12    C633    1.418   .     S
C12    C639    1.424   .     S
C13    N59     1.411   .     A
C13    C25     1.525   .     S
C13    C150    1.413   1_455 S
C14    H54     1.082   .     S
C14    N60     1.339   .     A
C14    C81     1.413   .     S
C15    O66     1.291   .     A
C15    O65     1.303   .     A
C16    O68     1.301   .     A
C16    O67     1.303   .     A
C16    C18     1.469   .     S
C17    C32     1.395   .     A
C17    C640    1.404   1_554 S
C17    H668    1.084   1_554 S
C18    C32     1.404   .     A
C18    C31     1.396   .     A
C19    C20     1.386   .     A
C19    H58     1.083   .     S
C20    C633    1.389   .     S
C20    F648    1.356   .     S
C21    H39     1.076   .     S
C21    C632    1.389   1_554 S
C21    C624    1.418   1_554 S
C22    H44     1.111   .     S
C22    C24     1.527   .     S
C22    H45     1.107   .     S
C23    C30     1.413   .     A
C24    H42     1.109   .     S
C24    H41     1.111   .     S
C24    H43     1.111   .     S
C25    H51     1.114   .     S
C25    H50     1.097   .     S
C25    C26     1.524   .     S
C26    H48     1.111   .     S
C26    H47     1.102   .     S
C26    H46     1.108   .     S
C27    C31     1.400   .     A
C27    C624    1.424   1_554 S
C27    C640    1.418   1_554 S
C28    C29     1.392   .     A
C28    C629    1.404   .     S
C28    C639    1.418   .     S
C29    C30     1.387   .     A
C29    H55     1.084   .     S
C30    H40     1.079   .     S
C31    H57     1.070   .     S
C32    F35     1.357   .     S
Cu33   O63     1.956   .     S
Cu33   Cu34    2.700   .     S
Cu33   N59     2.029   .     S
Cu33   O65     1.959   .     S
Cu33   O67     1.947   .     S
Cu33   O61     1.948   .     S
Cu34   O64     1.947   .     S
Cu34   N60     2.029   .     S
Cu34   O66     1.948   .     S
Cu34   O68     1.956   .     S
Cu34   O62     1.959   .     S
F36    C632    1.356   1_554 S
H56    C629    1.084   .     S
C69    O130    1.297   .     A
C69    C77     1.439   .     S
C69    O129    1.293   .     A
C70    C72     1.472   .     S
C70    C91     1.421   .     A
C70    C87     1.403   .     A
C71    C77     1.399   .     A
C71    F105    1.360   .     S
C71    C277    1.401   .     S
C72    O132    1.301   .     A
C72    O131    1.304   .     A
C73    C90     1.521   .     S
C73    C74     1.421   .     A
C73    C479    1.401   1_545 S
C74    C75     1.397   .     A
C74    C83     1.449   .     S
C75    H106    1.077   .     S
C75    C484    1.379   1_545 S
C76    H117    1.084   .     S
C76    C77     1.392   .     A
C76    C279    1.379   .     S
C78    N128    1.371   .     A
C78    H120    1.081   .     S
C78    C147    1.422   .     S
C79    H121    1.081   .     S
C79    N127    1.368   .     A
C80    C91     1.418   .     A
C80    C701    1.418   .     S
C80    C707    1.424   .     S
C81    N127    1.411   .     A
C81    C93     1.525   .     S
C82    H122    1.082   .     S
C82    N128    1.339   .     A
C82    C149    1.413   .     S
C83    O134    1.291   .     A
C83    O133    1.303   .     A
C84    O136    1.301   .     A
C84    O135    1.303   .     A
C84    C86     1.469   .     S
C85    C100    1.395   .     A
C85    C708    1.404   1_554 S
C85    H736    1.084   1_554 S
C86    C100    1.404   .     A
C86    C99     1.396   .     A
C87    C88     1.386   .     A
C87    H126    1.083   .     S
C88    C701    1.389   .     S
C88    F716    1.356   .     S
C89    H107    1.076   .     S
C89    C700    1.389   1_554 S
C89    C692    1.418   1_554 S
C90    H112    1.111   .     S
C90    C92     1.527   .     S
C90    H113    1.107   .     S
C91    C98     1.413   .     A
C92    H110    1.109   .     S
C92    H109    1.111   .     S
C92    H111    1.111   .     S
C93    H119    1.114   .     S
C93    H118    1.097   .     S
C93    C94     1.524   .     S
C94    H116    1.111   .     S
C94    H115    1.102   .     S
C94    H114    1.108   .     S
C95    C99     1.400   .     A
C95    C692    1.424   1_554 S
C95    C708    1.418   1_554 S
C96    C97     1.392   .     A
C96    C697    1.404   .     S
C96    C707    1.418   .     S
C97    C98     1.387   .     A
C97    H123    1.084   .     S
C98    H108    1.079   .     S
C99    H125    1.070   .     S
C100   F103    1.357   .     S
Cu101  O131    1.956   .     S
Cu101  Cu102   2.700   .     S
Cu101  N127    2.029   .     S
Cu101  O133    1.959   .     S
Cu101  O135    1.947   .     S
Cu101  O129    1.948   .     S
Cu102  O132    1.947   .     S
Cu102  N128    2.029   .     S
Cu102  O134    1.948   .     S
Cu102  O136    1.956   .     S
Cu102  O130    1.959   .     S
F104   C700    1.356   1_554 S
H124   C697    1.084   .     S
C137   O198    1.297   .     A
C137   C145    1.439   .     S
C137   O197    1.293   .     A
C138   C140    1.472   .     S
C138   C159    1.421   .     A
C138   C155    1.403   .     A
C139   C145    1.399   .     A
C139   F173    1.360   .     S
C139   C345    1.401   .     S
C140   O200    1.301   .     A
C140   O199    1.304   .     A
C141   C158    1.521   .     S
C141   C142    1.421   .     A
C141   C547    1.401   1_545 S
C142   C143    1.397   .     A
C142   C151    1.449   .     S
C143   H174    1.077   .     S
C143   C552    1.379   1_545 S
C144   H185    1.084   .     S
C144   C145    1.392   .     A
C144   C347    1.379   .     S
C146   N196    1.371   .     A
C146   H188    1.081   .     S
C146   C11     1.422   1_655 S
C147   H189    1.081   .     S
C147   N195    1.368   .     A
C148   C159    1.418   .     A
C148   C769    1.418   .     S
C148   C775    1.424   .     S
C149   N195    1.411   .     A
C149   C161    1.525   .     S
C150   H190    1.082   .     S
C150   N196    1.339   .     A
C150   C13     1.413   1_655 S
C151   O202    1.291   .     A
C151   O201    1.303   .     A
C152   O204    1.301   .     A
C152   O203    1.303   .     A
C152   C154    1.469   .     S
C153   C168    1.395   .     A
C153   C776    1.404   1_554 S
C153   H804    1.084   1_554 S
C154   C168    1.404   .     A
C154   C167    1.396   .     A
C155   C156    1.386   .     A
C155   H194    1.083   .     S
C156   C769    1.389   .     S
C156   F784    1.356   .     S
C157   H175    1.076   .     S
C157   C768    1.389   1_554 S
C157   C760    1.418   1_554 S
C158   H180    1.111   .     S
C158   C160    1.527   .     S
C158   H181    1.107   .     S
C159   C166    1.413   .     A
C160   H178    1.109   .     S
C160   H177    1.111   .     S
C160   H179    1.111   .     S
C161   H187    1.114   .     S
C161   H186    1.097   .     S
C161   C162    1.524   .     S
C162   H184    1.111   .     S
C162   H183    1.102   .     S
C162   H182    1.108   .     S
C163   C167    1.400   .     A
C163   C760    1.424   1_554 S
C163   C776    1.418   1_554 S
C164   C165    1.392   .     A
C164   C765    1.404   .     S
C164   C775    1.418   .     S
C165   C166    1.387   .     A
C165   H191    1.084   .     S
C166   H176    1.079   .     S
C167   H193    1.070   .     S
C168   F171    1.357   .     S
Cu169  O199    1.956   .     S
Cu169  Cu170   2.700   .     S
Cu169  N195    2.029   .     S
Cu169  O201    1.959   .     S
Cu169  O203    1.947   .     S
Cu169  O197    1.948   .     S
Cu170  O200    1.947   .     S
Cu170  N196    2.029   .     S
Cu170  O202    1.948   .     S
Cu170  O204    1.956   .     S
Cu170  O198    1.959   .     S
F172   C768    1.356   1_554 S
H192   C765    1.084   .     S
C205   O266    1.297   .     A
C205   C213    1.439   .     S
C205   O265    1.293   .     A
C206   C208    1.472   .     S
C206   C227    1.421   .     A
C206   C223    1.403   .     A
C207   C213    1.399   .     A
C207   F241    1.360   .     S
C207   C413    1.401   .     S
C208   O268    1.301   .     A
C208   O267    1.304   .     A
C209   C226    1.521   .     S
C209   C210    1.421   .     A
C210   C211    1.397   .     A
C210   C219    1.449   .     S
C211   H242    1.077   .     S
C212   H253    1.084   .     S
C212   C213    1.392   .     A
C212   C415    1.379   .     S
C214   N264    1.371   .     A
C214   H256    1.081   .     S
C214   C283    1.422   .     S
C215   H257    1.081   .     S
C215   N263    1.368   .     A
C215   C350    1.422   1_455 S
C216   C227    1.418   .     A
C216   C837    1.418   .     S
C216   C843    1.424   .     S
C217   N263    1.411   .     A
C217   C229    1.525   .     S
C217   C354    1.413   1_455 S
C218   H258    1.082   .     S
C218   N264    1.339   .     A
C218   C285    1.413   .     S
C219   O270    1.291   .     A
C219   O269    1.303   .     A
C220   O272    1.301   .     A
C220   O271    1.303   .     A
C220   C222    1.469   .     S
C221   C236    1.395   .     A
C221   C844    1.404   1_554 S
C221   H872    1.084   1_554 S
C222   C236    1.404   .     A
C222   C235    1.396   .     A
C223   C224    1.386   .     A
C223   H262    1.083   .     S
C224   C837    1.389   .     S
C224   F852    1.356   .     S
C225   H243    1.076   .     S
C225   C836    1.389   1_554 S
C225   C828    1.418   1_554 S
C226   H248    1.111   .     S
C226   C228    1.527   .     S
C226   H249    1.107   .     S
C227   C234    1.413   .     A
C228   H246    1.109   .     S
C228   H245    1.111   .     S
C228   H247    1.111   .     S
C229   H255    1.114   .     S
C229   H254    1.097   .     S
C229   C230    1.524   .     S
C230   H252    1.111   .     S
C230   H251    1.102   .     S
C230   H250    1.108   .     S
C231   C235    1.400   .     A
C231   C828    1.424   1_554 S
C231   C844    1.418   1_554 S
C232   C233    1.392   .     A
C232   C833    1.404   .     S
C232   C843    1.418   .     S
C233   C234    1.387   .     A
C233   H259    1.084   .     S
C234   H244    1.079   .     S
C235   H261    1.070   .     S
C236   F239    1.357   .     S
Cu237  O267    1.956   .     S
Cu237  Cu238   2.700   .     S
Cu237  N263    2.029   .     S
Cu237  O269    1.959   .     S
Cu237  O271    1.947   .     S
Cu237  O265    1.948   .     S
Cu238  O268    1.947   .     S
Cu238  N264    2.029   .     S
Cu238  O270    1.948   .     S
Cu238  O272    1.956   .     S
Cu238  O266    1.959   .     S
F240   C836    1.356   1_554 S
H260   C833    1.084   .     S
C273   O334    1.297   .     A
C273   C281    1.439   .     S
C273   O333    1.293   .     A
C274   C276    1.472   .     S
C274   C295    1.421   .     A
C274   C291    1.403   .     A
C275   C281    1.399   .     A
C275   F309    1.360   .     S
C275   C481    1.401   .     S
C276   O336    1.301   .     A
C276   O335    1.304   .     A
C277   C294    1.521   .     S
C277   C278    1.421   .     A
C278   C279    1.397   .     A
C278   C287    1.449   .     S
C279   H310    1.077   .     S
C280   H321    1.084   .     S
C280   C281    1.392   .     A
C280   C483    1.379   .     S
C282   N332    1.371   .     A
C282   H324    1.081   .     S
C282   C351    1.422   .     S
C283   H325    1.081   .     S
C283   N331    1.368   .     A
C284   C295    1.418   .     A
C284   C905    1.418   .     S
C284   C911    1.424   .     S
C285   N331    1.411   .     A
C285   C297    1.525   .     S
C286   H326    1.082   .     S
C286   N332    1.339   .     A
C286   C353    1.413   .     S
C287   O338    1.291   .     A
C287   O337    1.303   .     A
C288   O340    1.301   .     A
C288   O339    1.303   .     A
C288   C290    1.469   .     S
C289   C304    1.395   .     A
C289   C912    1.404   1_554 S
C289   H940    1.084   1_554 S
C290   C304    1.404   .     A
C290   C303    1.396   .     A
C291   C292    1.386   .     A
C291   H330    1.083   .     S
C292   C905    1.389   .     S
C292   F920    1.356   .     S
C293   H311    1.076   .     S
C293   C904    1.389   1_554 S
C293   C896    1.418   1_554 S
C294   H316    1.111   .     S
C294   C296    1.527   .     S
C294   H317    1.107   .     S
C295   C302    1.413   .     A
C296   H314    1.109   .     S
C296   H313    1.111   .     S
C296   H315    1.111   .     S
C297   H323    1.114   .     S
C297   H322    1.097   .     S
C297   C298    1.524   .     S
C298   H320    1.111   .     S
C298   H319    1.102   .     S
C298   H318    1.108   .     S
C299   C303    1.400   .     A
C299   C896    1.424   1_554 S
C299   C912    1.418   1_554 S
C300   C301    1.392   .     A
C300   C901    1.404   .     S
C300   C911    1.418   .     S
C301   C302    1.387   .     A
C301   H327    1.084   .     S
C302   H312    1.079   .     S
C303   H329    1.070   .     S
C304   F307    1.357   .     S
Cu305  O335    1.956   .     S
Cu305  Cu306   2.700   .     S
Cu305  N331    2.029   .     S
Cu305  O337    1.959   .     S
Cu305  O339    1.947   .     S
Cu305  O333    1.948   .     S
Cu306  O336    1.947   .     S
Cu306  N332    2.029   .     S
Cu306  O338    1.948   .     S
Cu306  O340    1.956   .     S
Cu306  O334    1.959   .     S
F308   C904    1.356   1_554 S
H328   C901    1.084   .     S
C341   O402    1.297   .     A
C341   C349    1.439   .     S
C341   O401    1.293   .     A
C342   C344    1.472   .     S
C342   C363    1.421   .     A
C342   C359    1.403   .     A
C343   C349    1.399   .     A
C343   F377    1.360   .     S
C343   C549    1.401   .     S
C344   O404    1.301   .     A
C344   O403    1.304   .     A
C345   C362    1.521   .     S
C345   C346    1.421   .     A
C346   C347    1.397   .     A
C346   C355    1.449   .     S
C347   H378    1.077   .     S
C348   H389    1.084   .     S
C348   C349    1.392   .     A
C348   C551    1.379   .     S
C350   N400    1.371   .     A
C350   H392    1.081   .     S
C350   C215    1.422   1_655 S
C351   H393    1.081   .     S
C351   N399    1.368   .     A
C352   C363    1.418   .     A
C352   C973    1.418   .     S
C352   C979    1.424   .     S
C353   N399    1.411   .     A
C353   C365    1.525   .     S
C354   H394    1.082   .     S
C354   N400    1.339   .     A
C354   C217    1.413   1_655 S
C355   O406    1.291   .     A
C355   O405    1.303   .     A
C356   O408    1.301   .     A
C356   O407    1.303   .     A
C356   C358    1.469   .     S
C357   C372    1.395   .     A
C357   C980    1.404   1_554 S
C357   H1008   1.084   1_554 S
C358   C372    1.404   .     A
C358   C371    1.396   .     A
C359   C360    1.386   .     A
C359   H398    1.083   .     S
C360   C973    1.389   .     S
C360   F988    1.356   .     S
C361   H379    1.076   .     S
C361   C972    1.389   1_554 S
C361   C964    1.418   1_554 S
C362   H384    1.111   .     S
C362   C364    1.527   .     S
C362   H385    1.107   .     S
C363   C370    1.413   .     A
C364   H382    1.109   .     S
C364   H381    1.111   .     S
C364   H383    1.111   .     S
C365   H391    1.114   .     S
C365   H390    1.097   .     S
C365   C366    1.524   .     S
C366   H388    1.111   .     S
C366   H387    1.102   .     S
C366   H386    1.108   .     S
C367   C371    1.400   .     A
C367   C964    1.424   1_554 S
C367   C980    1.418   1_554 S
C368   C369    1.392   .     A
C368   C969    1.404   .     S
C368   C979    1.418   .     S
C369   C370    1.387   .     A
C369   H395    1.084   .     S
C370   H380    1.079   .     S
C371   H397    1.070   .     S
C372   F375    1.357   .     S
Cu373  O403    1.956   .     S
Cu373  Cu374   2.700   .     S
Cu373  N399    2.029   .     S
Cu373  O405    1.959   .     S
Cu373  O407    1.947   .     S
Cu373  O401    1.948   .     S
Cu374  O404    1.947   .     S
Cu374  N400    2.029   .     S
Cu374  O406    1.948   .     S
Cu374  O408    1.956   .     S
Cu374  O402    1.959   .     S
F376   C972    1.356   1_554 S
H396   C969    1.084   .     S
C409   O470    1.297   .     A
C409   C417    1.439   .     S
C409   O469    1.293   .     A
C410   C412    1.472   .     S
C410   C431    1.421   .     A
C410   C427    1.403   .     A
C411   C417    1.399   .     A
C411   F445    1.360   .     S
C411   C5      1.401   1_565 S
C412   O472    1.301   .     A
C412   O471    1.304   .     A
C413   C430    1.521   .     S
C413   C414    1.421   .     A
C414   C415    1.397   .     A
C414   C423    1.449   .     S
C415   H446    1.077   .     S
C416   H457    1.084   .     S
C416   C417    1.392   .     A
C416   C7      1.379   1_565 S
C418   N468    1.371   .     A
C418   H460    1.081   .     S
C418   C487    1.422   .     S
C419   H461    1.081   .     S
C419   N467    1.368   .     A
C419   C554    1.422   1_455 S
C420   C431    1.418   .     A
C420   C1041   1.418   .     S
C420   C1047   1.424   .     S
C421   N467    1.411   .     A
C421   C433    1.525   .     S
C421   C558    1.413   1_455 S
C422   H462    1.082   .     S
C422   N468    1.339   .     A
C422   C489    1.413   .     S
C423   O474    1.291   .     A
C423   O473    1.303   .     A
C424   O476    1.301   .     A
C424   O475    1.303   .     A
C424   C426    1.469   .     S
C425   C440    1.395   .     A
C425   C1048   1.404   1_554 S
C425   H1076   1.084   1_554 S
C426   C440    1.404   .     A
C426   C439    1.396   .     A
C427   C428    1.386   .     A
C427   H466    1.083   .     S
C428   C1041   1.389   .     S
C428   F1056   1.356   .     S
C429   H447    1.076   .     S
C429   C1040   1.389   1_554 S
C429   C1032   1.418   1_554 S
C430   H452    1.111   .     S
C430   C432    1.527   .     S
C430   H453    1.107   .     S
C431   C438    1.413   .     A
C432   H450    1.109   .     S
C432   H449    1.111   .     S
C432   H451    1.111   .     S
C433   H459    1.114   .     S
C433   H458    1.097   .     S
C433   C434    1.524   .     S
C434   H456    1.111   .     S
C434   H455    1.102   .     S
C434   H454    1.108   .     S
C435   C439    1.400   .     A
C435   C1032   1.424   1_554 S
C435   C1048   1.418   1_554 S
C436   C437    1.392   .     A
C436   C1037   1.404   .     S
C436   C1047   1.418   .     S
C437   C438    1.387   .     A
C437   H463    1.084   .     S
C438   H448    1.079   .     S
C439   H465    1.070   .     S
C440   F443    1.357   .     S
Cu441  O471    1.956   .     S
Cu441  Cu442   2.700   .     S
Cu441  N467    2.029   .     S
Cu441  O473    1.959   .     S
Cu441  O475    1.947   .     S
Cu441  O469    1.948   .     S
Cu442  O472    1.947   .     S
Cu442  N468    2.029   .     S
Cu442  O474    1.948   .     S
Cu442  O476    1.956   .     S
Cu442  O470    1.959   .     S
F444   C1040   1.356   1_554 S
H464   C1037   1.084   .     S
C477   O538    1.297   .     A
C477   C485    1.439   .     S
C477   O537    1.293   .     A
C478   C480    1.472   .     S
C478   C499    1.421   .     A
C478   C495    1.403   .     A
C479   C485    1.399   .     A
C479   F513    1.360   .     S
C479   C73     1.401   1_565 S
C480   O540    1.301   .     A
C480   O539    1.304   .     A
C481   C498    1.521   .     S
C481   C482    1.421   .     A
C482   C483    1.397   .     A
C482   C491    1.449   .     S
C483   H514    1.077   .     S
C484   H525    1.084   .     S
C484   C485    1.392   .     A
C484   C75     1.379   1_565 S
C486   N536    1.371   .     A
C486   H528    1.081   .     S
C486   C555    1.422   .     S
C487   H529    1.081   .     S
C487   N535    1.368   .     A
C488   C499    1.418   .     A
C488   C1109   1.418   .     S
C488   C1115   1.424   .     S
C489   N535    1.411   .     A
C489   C501    1.525   .     S
C490   H530    1.082   .     S
C490   N536    1.339   .     A
C490   C557    1.413   .     S
C491   O542    1.291   .     A
C491   O541    1.303   .     A
C492   O544    1.301   .     A
C492   O543    1.303   .     A
C492   C494    1.469   .     S
C493   C508    1.395   .     A
C493   C1116   1.404   1_554 S
C493   H1144   1.084   1_554 S
C494   C508    1.404   .     A
C494   C507    1.396   .     A
C495   C496    1.386   .     A
C495   H534    1.083   .     S
C496   C1109   1.389   .     S
C496   F1124   1.356   .     S
C497   H515    1.076   .     S
C497   C1108   1.389   1_554 S
C497   C1100   1.418   1_554 S
C498   H520    1.111   .     S
C498   C500    1.527   .     S
C498   H521    1.107   .     S
C499   C506    1.413   .     A
C500   H518    1.109   .     S
C500   H517    1.111   .     S
C500   H519    1.111   .     S
C501   H527    1.114   .     S
C501   H526    1.097   .     S
C501   C502    1.524   .     S
C502   H524    1.111   .     S
C502   H523    1.102   .     S
C502   H522    1.108   .     S
C503   C507    1.400   .     A
C503   C1100   1.424   1_554 S
C503   C1116   1.418   1_554 S
C504   C505    1.392   .     A
C504   C1105   1.404   .     S
C504   C1115   1.418   .     S
C505   C506    1.387   .     A
C505   H531    1.084   .     S
C506   H516    1.079   .     S
C507   H533    1.070   .     S
C508   F511    1.357   .     S
Cu509  O539    1.956   .     S
Cu509  Cu510   2.700   .     S
Cu509  N535    2.029   .     S
Cu509  O541    1.959   .     S
Cu509  O543    1.947   .     S
Cu509  O537    1.948   .     S
Cu510  O540    1.947   .     S
Cu510  N536    2.029   .     S
Cu510  O542    1.948   .     S
Cu510  O544    1.956   .     S
Cu510  O538    1.959   .     S
F512   C1108   1.356   1_554 S
H532   C1105   1.084   .     S
C545   O606    1.297   .     A
C545   C553    1.439   .     S
C545   O605    1.293   .     A
C546   C548    1.472   .     S
C546   C567    1.421   .     A
C546   C563    1.403   .     A
C547   C553    1.399   .     A
C547   F581    1.360   .     S
C547   C141    1.401   1_565 S
C548   O608    1.301   .     A
C548   O607    1.304   .     A
C549   C566    1.521   .     S
C549   C550    1.421   .     A
C550   C551    1.397   .     A
C550   C559    1.449   .     S
C551   H582    1.077   .     S
C552   H593    1.084   .     S
C552   C553    1.392   .     A
C552   C143    1.379   1_565 S
C554   N604    1.371   .     A
C554   H596    1.081   .     S
C554   C419    1.422   1_655 S
C555   H597    1.081   .     S
C555   N603    1.368   .     A
C556   C567    1.418   .     A
C556   C1177   1.418   .     S
C556   C1183   1.424   .     S
C557   N603    1.411   .     A
C557   C569    1.525   .     S
C558   H598    1.082   .     S
C558   N604    1.339   .     A
C558   C421    1.413   1_655 S
C559   O610    1.291   .     A
C559   O609    1.303   .     A
C560   O612    1.301   .     A
C560   O611    1.303   .     A
C560   C562    1.469   .     S
C561   C576    1.395   .     A
C561   C1184   1.404   1_554 S
C561   H1212   1.084   1_554 S
C562   C576    1.404   .     A
C562   C575    1.396   .     A
C563   C564    1.386   .     A
C563   H602    1.083   .     S
C564   C1177   1.389   .     S
C564   F1192   1.356   .     S
C565   H583    1.076   .     S
C565   C1176   1.389   1_554 S
C565   C1168   1.418   1_554 S
C566   H588    1.111   .     S
C566   C568    1.527   .     S
C566   H589    1.107   .     S
C567   C574    1.413   .     A
C568   H586    1.109   .     S
C568   H585    1.111   .     S
C568   H587    1.111   .     S
C569   H595    1.114   .     S
C569   H594    1.097   .     S
C569   C570    1.524   .     S
C570   H592    1.111   .     S
C570   H591    1.102   .     S
C570   H590    1.108   .     S
C571   C575    1.400   .     A
C571   C1168   1.424   1_554 S
C571   C1184   1.418   1_554 S
C572   C573    1.392   .     A
C572   C1173   1.404   .     S
C572   C1183   1.418   .     S
C573   C574    1.387   .     A
C573   H599    1.084   .     S
C574   H584    1.079   .     S
C575   H601    1.070   .     S
C576   F579    1.357   .     S
Cu577  O607    1.956   .     S
Cu577  Cu578   2.700   .     S
Cu577  N603    2.029   .     S
Cu577  O609    1.959   .     S
Cu577  O611    1.947   .     S
Cu577  O605    1.948   .     S
Cu578  O608    1.947   .     S
Cu578  N604    2.029   .     S
Cu578  O610    1.948   .     S
Cu578  O612    1.956   .     S
Cu578  O606    1.959   .     S
F580   C1176   1.356   1_554 S
H600   C1173   1.084   .     S
C613   O674    1.297   .     A
C613   C621    1.439   .     S
C613   O673    1.293   .     A
C614   C616    1.472   .     S
C614   C635    1.421   .     A
C614   C631    1.403   .     A
C615   C621    1.399   .     A
C615   F649    1.360   .     S
C615   C821    1.401   .     S
C616   O676    1.301   .     A
C616   O675    1.304   .     A
C617   C634    1.521   .     S
C617   C618    1.421   .     A
C617   C1023   1.401   1_545 S
C618   C619    1.397   .     A
C618   C627    1.449   .     S
C619   H650    1.077   .     S
C619   C1028   1.379   1_545 S
C620   H661    1.084   .     S
C620   C621    1.392   .     A
C620   C823    1.379   .     S
C622   N672    1.371   .     A
C622   H664    1.081   .     S
C622   C691    1.422   .     S
C623   H665    1.081   .     S
C623   N671    1.368   .     A
C623   C758    1.422   1_455 S
C624   C635    1.418   .     A
C624   C21     1.418   1_556 S
C624   C27     1.424   1_556 S
C625   N671    1.411   .     A
C625   C637    1.525   .     S
C625   C762    1.413   1_455 S
C626   H666    1.082   .     S
C626   N672    1.339   .     A
C626   C693    1.413   .     S
C627   O678    1.291   .     A
C627   O677    1.303   .     A
C628   O680    1.301   .     A
C628   O679    1.303   .     A
C628   C630    1.469   .     S
C629   C644    1.395   .     A
C630   C644    1.404   .     A
C630   C643    1.396   .     A
C631   C632    1.386   .     A
C631   H670    1.083   .     S
C632   C21     1.389   1_556 S
C632   F36     1.356   1_556 S
C633   H651    1.076   .     S
C634   H656    1.111   .     S
C634   C636    1.527   .     S
C634   H657    1.107   .     S
C635   C642    1.413   .     A
C636   H654    1.109   .     S
C636   H653    1.111   .     S
C636   H655    1.111   .     S
C637   H663    1.114   .     S
C637   H662    1.097   .     S
C637   C638    1.524   .     S
C638   H660    1.111   .     S
C638   H659    1.102   .     S
C638   H658    1.108   .     S
C639   C643    1.400   .     A
C640   C641    1.392   .     A
C640   C17     1.404   1_556 S
C640   C27     1.418   1_556 S
C641   C642    1.387   .     A
C641   H667    1.084   .     S
C642   H652    1.079   .     S
C643   H669    1.070   .     S
C644   F647    1.357   .     S
Cu645  O675    1.956   .     S
Cu645  Cu646   2.700   .     S
Cu645  N671    2.029   .     S
Cu645  O677    1.959   .     S
Cu645  O679    1.947   .     S
Cu645  O673    1.948   .     S
Cu646  O676    1.947   .     S
Cu646  N672    2.029   .     S
Cu646  O678    1.948   .     S
Cu646  O680    1.956   .     S
Cu646  O674    1.959   .     S
H668   C17     1.084   1_556 S
C681   O742    1.297   .     A
C681   C689    1.439   .     S
C681   O741    1.293   .     A
C682   C684    1.472   .     S
C682   C703    1.421   .     A
C682   C699    1.403   .     A
C683   C689    1.399   .     A
C683   F717    1.360   .     S
C683   C889    1.401   .     S
C684   O744    1.301   .     A
C684   O743    1.304   .     A
C685   C702    1.521   .     S
C685   C686    1.421   .     A
C685   C1091   1.401   1_545 S
C686   C687    1.397   .     A
C686   C695    1.449   .     S
C687   H718    1.077   .     S
C687   C1096   1.379   1_545 S
C688   H729    1.084   .     S
C688   C689    1.392   .     A
C688   C891    1.379   .     S
C690   N740    1.371   .     A
C690   H732    1.081   .     S
C690   C759    1.422   .     S
C691   H733    1.081   .     S
C691   N739    1.368   .     A
C692   C703    1.418   .     A
C692   C89     1.418   1_556 S
C692   C95     1.424   1_556 S
C693   N739    1.411   .     A
C693   C705    1.525   .     S
C694   H734    1.082   .     S
C694   N740    1.339   .     A
C694   C761    1.413   .     S
C695   O746    1.291   .     A
C695   O745    1.303   .     A
C696   O748    1.301   .     A
C696   O747    1.303   .     A
C696   C698    1.469   .     S
C697   C712    1.395   .     A
C698   C712    1.404   .     A
C698   C711    1.396   .     A
C699   C700    1.386   .     A
C699   H738    1.083   .     S
C700   C89     1.389   1_556 S
C700   F104    1.356   1_556 S
C701   H719    1.076   .     S
C702   H724    1.111   .     S
C702   C704    1.527   .     S
C702   H725    1.107   .     S
C703   C710    1.413   .     A
C704   H722    1.109   .     S
C704   H721    1.111   .     S
C704   H723    1.111   .     S
C705   H731    1.114   .     S
C705   H730    1.097   .     S
C705   C706    1.524   .     S
C706   H728    1.111   .     S
C706   H727    1.102   .     S
C706   H726    1.108   .     S
C707   C711    1.400   .     A
C708   C709    1.392   .     A
C708   C85     1.404   1_556 S
C708   C95     1.418   1_556 S
C709   C710    1.387   .     A
C709   H735    1.084   .     S
C710   H720    1.079   .     S
C711   H737    1.070   .     S
C712   F715    1.357   .     S
Cu713  O743    1.956   .     S
Cu713  Cu714   2.700   .     S
Cu713  N739    2.029   .     S
Cu713  O745    1.959   .     S
Cu713  O747    1.947   .     S
Cu713  O741    1.948   .     S
Cu714  O744    1.947   .     S
Cu714  N740    2.029   .     S
Cu714  O746    1.948   .     S
Cu714  O748    1.956   .     S
Cu714  O742    1.959   .     S
H736   C85     1.084   1_556 S
C749   O810    1.297   .     A
C749   C757    1.439   .     S
C749   O809    1.293   .     A
C750   C752    1.472   .     S
C750   C771    1.421   .     A
C750   C767    1.403   .     A
C751   C757    1.399   .     A
C751   F785    1.360   .     S
C751   C957    1.401   .     S
C752   O812    1.301   .     A
C752   O811    1.304   .     A
C753   C770    1.521   .     S
C753   C754    1.421   .     A
C753   C1159   1.401   1_545 S
C754   C755    1.397   .     A
C754   C763    1.449   .     S
C755   H786    1.077   .     S
C755   C1164   1.379   1_545 S
C756   H797    1.084   .     S
C756   C757    1.392   .     A
C756   C959    1.379   .     S
C758   N808    1.371   .     A
C758   H800    1.081   .     S
C758   C623    1.422   1_655 S
C759   H801    1.081   .     S
C759   N807    1.368   .     A
C760   C771    1.418   .     A
C760   C157    1.418   1_556 S
C760   C163    1.424   1_556 S
C761   N807    1.411   .     A
C761   C773    1.525   .     S
C762   H802    1.082   .     S
C762   N808    1.339   .     A
C762   C625    1.413   1_655 S
C763   O814    1.291   .     A
C763   O813    1.303   .     A
C764   O816    1.301   .     A
C764   O815    1.303   .     A
C764   C766    1.469   .     S
C765   C780    1.395   .     A
C766   C780    1.404   .     A
C766   C779    1.396   .     A
C767   C768    1.386   .     A
C767   H806    1.083   .     S
C768   C157    1.389   1_556 S
C768   F172    1.356   1_556 S
C769   H787    1.076   .     S
C770   H792    1.111   .     S
C770   C772    1.527   .     S
C770   H793    1.107   .     S
C771   C778    1.413   .     A
C772   H790    1.109   .     S
C772   H789    1.111   .     S
C772   H791    1.111   .     S
C773   H799    1.114   .     S
C773   H798    1.097   .     S
C773   C774    1.524   .     S
C774   H796    1.111   .     S
C774   H795    1.102   .     S
C774   H794    1.108   .     S
C775   C779    1.400   .     A
C776   C777    1.392   .     A
C776   C153    1.404   1_556 S
C776   C163    1.418   1_556 S
C777   C778    1.387   .     A
C777   H803    1.084   .     S
C778   H788    1.079   .     S
C779   H805    1.070   .     S
C780   F783    1.357   .     S
Cu781  O811    1.956   .     S
Cu781  Cu782   2.700   .     S
Cu781  N807    2.029   .     S
Cu781  O813    1.959   .     S
Cu781  O815    1.947   .     S
Cu781  O809    1.948   .     S
Cu782  O812    1.947   .     S
Cu782  N808    2.029   .     S
Cu782  O814    1.948   .     S
Cu782  O816    1.956   .     S
Cu782  O810    1.959   .     S
H804   C153    1.084   1_556 S
C817   O878    1.297   .     A
C817   C825    1.439   .     S
C817   O877    1.293   .     A
C818   C820    1.472   .     S
C818   C839    1.421   .     A
C818   C835    1.403   .     A
C819   C825    1.399   .     A
C819   F853    1.360   .     S
C819   C1025   1.401   .     S
C820   O880    1.301   .     A
C820   O879    1.304   .     A
C821   C838    1.521   .     S
C821   C822    1.421   .     A
C822   C823    1.397   .     A
C822   C831    1.449   .     S
C823   H854    1.077   .     S
C824   H865    1.084   .     S
C824   C825    1.392   .     A
C824   C1027   1.379   .     S
C826   N876    1.371   .     A
C826   H868    1.081   .     S
C826   C895    1.422   .     S
C827   H869    1.081   .     S
C827   N875    1.368   .     A
C827   C962    1.422   1_455 S
C828   C839    1.418   .     A
C828   C225    1.418   1_556 S
C828   C231    1.424   1_556 S
C829   N875    1.411   .     A
C829   C841    1.525   .     S
C829   C966    1.413   1_455 S
C830   H870    1.082   .     S
C830   N876    1.339   .     A
C830   C897    1.413   .     S
C831   O882    1.291   .     A
C831   O881    1.303   .     A
C832   O884    1.301   .     A
C832   O883    1.303   .     A
C832   C834    1.469   .     S
C833   C848    1.395   .     A
C834   C848    1.404   .     A
C834   C847    1.396   .     A
C835   C836    1.386   .     A
C835   H874    1.083   .     S
C836   C225    1.389   1_556 S
C836   F240    1.356   1_556 S
C837   H855    1.076   .     S
C838   H860    1.111   .     S
C838   C840    1.527   .     S
C838   H861    1.107   .     S
C839   C846    1.413   .     A
C840   H858    1.109   .     S
C840   H857    1.111   .     S
C840   H859    1.111   .     S
C841   H867    1.114   .     S
C841   H866    1.097   .     S
C841   C842    1.524   .     S
C842   H864    1.111   .     S
C842   H863    1.102   .     S
C842   H862    1.108   .     S
C843   C847    1.400   .     A
C844   C845    1.392   .     A
C844   C221    1.404   1_556 S
C844   C231    1.418   1_556 S
C845   C846    1.387   .     A
C845   H871    1.084   .     S
C846   H856    1.079   .     S
C847   H873    1.070   .     S
C848   F851    1.357   .     S
Cu849  O879    1.956   .     S
Cu849  Cu850   2.700   .     S
Cu849  N875    2.029   .     S
Cu849  O881    1.959   .     S
Cu849  O883    1.947   .     S
Cu849  O877    1.948   .     S
Cu850  O880    1.947   .     S
Cu850  N876    2.029   .     S
Cu850  O882    1.948   .     S
Cu850  O884    1.956   .     S
Cu850  O878    1.959   .     S
H872   C221    1.084   1_556 S
C885   O946    1.297   .     A
C885   C893    1.439   .     S
C885   O945    1.293   .     A
C886   C888    1.472   .     S
C886   C907    1.421   .     A
C886   C903    1.403   .     A
C887   C893    1.399   .     A
C887   F921    1.360   .     S
C887   C1093   1.401   .     S
C888   O948    1.301   .     A
C888   O947    1.304   .     A
C889   C906    1.521   .     S
C889   C890    1.421   .     A
C890   C891    1.397   .     A
C890   C899    1.449   .     S
C891   H922    1.077   .     S
C892   H933    1.084   .     S
C892   C893    1.392   .     A
C892   C1095   1.379   .     S
C894   N944    1.371   .     A
C894   H936    1.081   .     S
C894   C963    1.422   .     S
C895   H937    1.081   .     S
C895   N943    1.368   .     A
C896   C907    1.418   .     A
C896   C293    1.418   1_556 S
C896   C299    1.424   1_556 S
C897   N943    1.411   .     A
C897   C909    1.525   .     S
C898   H938    1.082   .     S
C898   N944    1.339   .     A
C898   C965    1.413   .     S
C899   O950    1.291   .     A
C899   O949    1.303   .     A
C900   O952    1.301   .     A
C900   O951    1.303   .     A
C900   C902    1.469   .     S
C901   C916    1.395   .     A
C902   C916    1.404   .     A
C902   C915    1.396   .     A
C903   C904    1.386   .     A
C903   H942    1.083   .     S
C904   C293    1.389   1_556 S
C904   F308    1.356   1_556 S
C905   H923    1.076   .     S
C906   H928    1.111   .     S
C906   C908    1.527   .     S
C906   H929    1.107   .     S
C907   C914    1.413   .     A
C908   H926    1.109   .     S
C908   H925    1.111   .     S
C908   H927    1.111   .     S
C909   H935    1.114   .     S
C909   H934    1.097   .     S
C909   C910    1.524   .     S
C910   H932    1.111   .     S
C910   H931    1.102   .     S
C910   H930    1.108   .     S
C911   C915    1.400   .     A
C912   C913    1.392   .     A
C912   C289    1.404   1_556 S
C912   C299    1.418   1_556 S
C913   C914    1.387   .     A
C913   H939    1.084   .     S
C914   H924    1.079   .     S
C915   H941    1.070   .     S
C916   F919    1.357   .     S
Cu917  O947    1.956   .     S
Cu917  Cu918   2.700   .     S
Cu917  N943    2.029   .     S
Cu917  O949    1.959   .     S
Cu917  O951    1.947   .     S
Cu917  O945    1.948   .     S
Cu918  O948    1.947   .     S
Cu918  N944    2.029   .     S
Cu918  O950    1.948   .     S
Cu918  O952    1.956   .     S
Cu918  O946    1.959   .     S
H940   C289    1.084   1_556 S
C953   O1014   1.297   .     A
C953   C961    1.439   .     S
C953   O1013   1.293   .     A
C954   C956    1.472   .     S
C954   C975    1.421   .     A
C954   C971    1.403   .     A
C955   C961    1.399   .     A
C955   F989    1.360   .     S
C955   C1161   1.401   .     S
C956   O1016   1.301   .     A
C956   O1015   1.304   .     A
C957   C974    1.521   .     S
C957   C958    1.421   .     A
C958   C959    1.397   .     A
C958   C967    1.449   .     S
C959   H990    1.077   .     S
C960   H1001   1.084   .     S
C960   C961    1.392   .     A
C960   C1163   1.379   .     S
C962   N1012   1.371   .     A
C962   H1004   1.081   .     S
C962   C827    1.422   1_655 S
C963   H1005   1.081   .     S
C963   N1011   1.368   .     A
C964   C975    1.418   .     A
C964   C361    1.418   1_556 S
C964   C367    1.424   1_556 S
C965   N1011   1.411   .     A
C965   C977    1.525   .     S
C966   H1006   1.082   .     S
C966   N1012   1.339   .     A
C966   C829    1.413   1_655 S
C967   O1018   1.291   .     A
C967   O1017   1.303   .     A
C968   O1020   1.301   .     A
C968   O1019   1.303   .     A
C968   C970    1.469   .     S
C969   C984    1.395   .     A
C970   C984    1.404   .     A
C970   C983    1.396   .     A
C971   C972    1.386   .     A
C971   H1010   1.083   .     S
C972   C361    1.389   1_556 S
C972   F376    1.356   1_556 S
C973   H991    1.076   .     S
C974   H996    1.111   .     S
C974   C976    1.527   .     S
C974   H997    1.107   .     S
C975   C982    1.413   .     A
C976   H994    1.109   .     S
C976   H993    1.111   .     S
C976   H995    1.111   .     S
C977   H1003   1.114   .     S
C977   H1002   1.097   .     S
C977   C978    1.524   .     S
C978   H1000   1.111   .     S
C978   H999    1.102   .     S
C978   H998    1.108   .     S
C979   C983    1.400   .     A
C980   C981    1.392   .     A
C980   C357    1.404   1_556 S
C980   C367    1.418   1_556 S
C981   C982    1.387   .     A
C981   H1007   1.084   .     S
C982   H992    1.079   .     S
C983   H1009   1.070   .     S
C984   F987    1.357   .     S
Cu985  O1015   1.956   .     S
Cu985  Cu986   2.700   .     S
Cu985  N1011   2.029   .     S
Cu985  O1017   1.959   .     S
Cu985  O1019   1.947   .     S
Cu985  O1013   1.948   .     S
Cu986  O1016   1.947   .     S
Cu986  N1012   2.029   .     S
Cu986  O1018   1.948   .     S
Cu986  O1020   1.956   .     S
Cu986  O1014   1.959   .     S
H1008  C357    1.084   1_556 S
C1021  O1082   1.297   .     A
C1021  C1029   1.439   .     S
C1021  O1081   1.293   .     A
C1022  C1024   1.472   .     S
C1022  C1043   1.421   .     A
C1022  C1039   1.403   .     A
C1023  C1029   1.399   .     A
C1023  F1057   1.360   .     S
C1023  C617    1.401   1_565 S
C1024  O1084   1.301   .     A
C1024  O1083   1.304   .     A
C1025  C1042   1.521   .     S
C1025  C1026   1.421   .     A
C1026  C1027   1.397   .     A
C1026  C1035   1.449   .     S
C1027  H1058   1.077   .     S
C1028  H1069   1.084   .     S
C1028  C1029   1.392   .     A
C1028  C619    1.379   1_565 S
C1030  N1080   1.371   .     A
C1030  H1072   1.081   .     S
C1030  C1099   1.422   .     S
C1031  H1073   1.081   .     S
C1031  N1079   1.368   .     A
C1031  C1166   1.422   1_455 S
C1032  C1043   1.418   .     A
C1032  C429    1.418   1_556 S
C1032  C435    1.424   1_556 S
C1033  N1079   1.411   .     A
C1033  C1045   1.525   .     S
C1033  C1170   1.413   1_455 S
C1034  H1074   1.082   .     S
C1034  N1080   1.339   .     A
C1034  C1101   1.413   .     S
C1035  O1086   1.291   .     A
C1035  O1085   1.303   .     A
C1036  O1088   1.301   .     A
C1036  O1087   1.303   .     A
C1036  C1038   1.469   .     S
C1037  C1052   1.395   .     A
C1038  C1052   1.404   .     A
C1038  C1051   1.396   .     A
C1039  C1040   1.386   .     A
C1039  H1078   1.083   .     S
C1040  C429    1.389   1_556 S
C1040  F444    1.356   1_556 S
C1041  H1059   1.076   .     S
C1042  H1064   1.111   .     S
C1042  C1044   1.527   .     S
C1042  H1065   1.107   .     S
C1043  C1050   1.413   .     A
C1044  H1062   1.109   .     S
C1044  H1061   1.111   .     S
C1044  H1063   1.111   .     S
C1045  H1071   1.114   .     S
C1045  H1070   1.097   .     S
C1045  C1046   1.524   .     S
C1046  H1068   1.111   .     S
C1046  H1067   1.102   .     S
C1046  H1066   1.108   .     S
C1047  C1051   1.400   .     A
C1048  C1049   1.392   .     A
C1048  C425    1.404   1_556 S
C1048  C435    1.418   1_556 S
C1049  C1050   1.387   .     A
C1049  H1075   1.084   .     S
C1050  H1060   1.079   .     S
C1051  H1077   1.070   .     S
C1052  F1055   1.357   .     S
Cu1053 O1083   1.956   .     S
Cu1053 Cu1054  2.700   .     S
Cu1053 N1079   2.029   .     S
Cu1053 O1085   1.959   .     S
Cu1053 O1087   1.947   .     S
Cu1053 O1081   1.948   .     S
Cu1054 O1084   1.947   .     S
Cu1054 N1080   2.029   .     S
Cu1054 O1086   1.948   .     S
Cu1054 O1088   1.956   .     S
Cu1054 O1082   1.959   .     S
H1076  C425    1.084   1_556 S
C1089  O1150   1.297   .     A
C1089  C1097   1.439   .     S
C1089  O1149   1.293   .     A
C1090  C1092   1.472   .     S
C1090  C1111   1.421   .     A
C1090  C1107   1.403   .     A
C1091  C1097   1.399   .     A
C1091  F1125   1.360   .     S
C1091  C685    1.401   1_565 S
C1092  O1152   1.301   .     A
C1092  O1151   1.304   .     A
C1093  C1110   1.521   .     S
C1093  C1094   1.421   .     A
C1094  C1095   1.397   .     A
C1094  C1103   1.449   .     S
C1095  H1126   1.077   .     S
C1096  H1137   1.084   .     S
C1096  C1097   1.392   .     A
C1096  C687    1.379   1_565 S
C1098  N1148   1.371   .     A
C1098  H1140   1.081   .     S
C1098  C1167   1.422   .     S
C1099  H1141   1.081   .     S
C1099  N1147   1.368   .     A
C1100  C1111   1.418   .     A
C1100  C497    1.418   1_556 S
C1100  C503    1.424   1_556 S
C1101  N1147   1.411   .     A
C1101  C1113   1.525   .     S
C1102  H1142   1.082   .     S
C1102  N1148   1.339   .     A
C1102  C1169   1.413   .     S
C1103  O1154   1.291   .     A
C1103  O1153   1.303   .     A
C1104  O1156   1.301   .     A
C1104  O1155   1.303   .     A
C1104  C1106   1.469   .     S
C1105  C1120   1.395   .     A
C1106  C1120   1.404   .     A
C1106  C1119   1.396   .     A
C1107  C1108   1.386   .     A
C1107  H1146   1.083   .     S
C1108  C497    1.389   1_556 S
C1108  F512    1.356   1_556 S
C1109  H1127   1.076   .     S
C1110  H1132   1.111   .     S
C1110  C1112   1.527   .     S
C1110  H1133   1.107   .     S
C1111  C1118   1.413   .     A
C1112  H1130   1.109   .     S
C1112  H1129   1.111   .     S
C1112  H1131   1.111   .     S
C1113  H1139   1.114   .     S
C1113  H1138   1.097   .     S
C1113  C1114   1.524   .     S
C1114  H1136   1.111   .     S
C1114  H1135   1.102   .     S
C1114  H1134   1.108   .     S
C1115  C1119   1.400   .     A
C1116  C1117   1.392   .     A
C1116  C493    1.404   1_556 S
C1116  C503    1.418   1_556 S
C1117  C1118   1.387   .     A
C1117  H1143   1.084   .     S
C1118  H1128   1.079   .     S
C1119  H1145   1.070   .     S
C1120  F1123   1.357   .     S
Cu1121 O1151   1.956   .     S
Cu1121 Cu1122  2.700   .     S
Cu1121 N1147   2.029   .     S
Cu1121 O1153   1.959   .     S
Cu1121 O1155   1.947   .     S
Cu1121 O1149   1.948   .     S
Cu1122 O1152   1.947   .     S
Cu1122 N1148   2.029   .     S
Cu1122 O1154   1.948   .     S
Cu1122 O1156   1.956   .     S
Cu1122 O1150   1.959   .     S
H1144  C493    1.084   1_556 S
C1157  O1218   1.297   .     A
C1157  C1165   1.439   .     S
C1157  O1217   1.293   .     A
C1158  C1160   1.472   .     S
C1158  C1179   1.421   .     A
C1158  C1175   1.403   .     A
C1159  C1165   1.399   .     A
C1159  F1193   1.360   .     S
C1159  C753    1.401   1_565 S
C1160  O1220   1.301   .     A
C1160  O1219   1.304   .     A
C1161  C1178   1.521   .     S
C1161  C1162   1.421   .     A
C1162  C1163   1.397   .     A
C1162  C1171   1.449   .     S
C1163  H1194   1.077   .     S
C1164  H1205   1.084   .     S
C1164  C1165   1.392   .     A
C1164  C755    1.379   1_565 S
C1166  N1216   1.371   .     A
C1166  H1208   1.081   .     S
C1166  C1031   1.422   1_655 S
C1167  H1209   1.081   .     S
C1167  N1215   1.368   .     A
C1168  C1179   1.418   .     A
C1168  C565    1.418   1_556 S
C1168  C571    1.424   1_556 S
C1169  N1215   1.411   .     A
C1169  C1181   1.525   .     S
C1170  H1210   1.082   .     S
C1170  N1216   1.339   .     A
C1170  C1033   1.413   1_655 S
C1171  O1222   1.291   .     A
C1171  O1221   1.303   .     A
C1172  O1224   1.301   .     A
C1172  O1223   1.303   .     A
C1172  C1174   1.469   .     S
C1173  C1188   1.395   .     A
C1174  C1188   1.404   .     A
C1174  C1187   1.396   .     A
C1175  C1176   1.386   .     A
C1175  H1214   1.083   .     S
C1176  C565    1.389   1_556 S
C1176  F580    1.356   1_556 S
C1177  H1195   1.076   .     S
C1178  H1200   1.111   .     S
C1178  C1180   1.527   .     S
C1178  H1201   1.107   .     S
C1179  C1186   1.413   .     A
C1180  H1198   1.109   .     S
C1180  H1197   1.111   .     S
C1180  H1199   1.111   .     S
C1181  H1207   1.114   .     S
C1181  H1206   1.097   .     S
C1181  C1182   1.524   .     S
C1182  H1204   1.111   .     S
C1182  H1203   1.102   .     S
C1182  H1202   1.108   .     S
C1183  C1187   1.400   .     A
C1184  C1185   1.392   .     A
C1184  C561    1.404   1_556 S
C1184  C571    1.418   1_556 S
C1185  C1186   1.387   .     A
C1185  H1211   1.084   .     S
C1186  H1196   1.079   .     S
C1187  H1213   1.070   .     S
C1188  F1191   1.357   .     S
Cu1189 O1219   1.956   .     S
Cu1189 Cu1190  2.700   .     S
Cu1189 N1215   2.029   .     S
Cu1189 O1221   1.959   .     S
Cu1189 O1223   1.947   .     S
Cu1189 O1217   1.948   .     S
Cu1190 O1220   1.947   .     S
Cu1190 N1216   2.029   .     S
Cu1190 O1222   1.948   .     S
Cu1190 O1224   1.956   .     S
Cu1190 O1218   1.959   .     S
H1212  C561    1.084   1_556 S
