data_str_m2_o1_o2_pcu_sym.26
_audit_creation_date              2020-01-03
_audit_creation_method            'Materials Studio'
_symmetry_space_group_name_H-M    'P1'
_symmetry_Int_Tables_number       1
_symmetry_cell_setting            triclinic
loop_
_symmetry_equiv_pos_as_xyz
  x,y,z
_cell_length_a                    32.9668
_cell_length_b                    28.7544
_cell_length_c                    30.5698
_cell_angle_alpha                 90.0001
_cell_angle_beta                  95.6124
_cell_angle_gamma                 90.0002
loop_
_atom_site_label
_atom_site_type_symbol
_atom_site_fract_x
_atom_site_fract_y
_atom_site_fract_z
_atom_site_U_iso_or_equiv
_atom_site_adp_type
_atom_site_occupancy
C1     C     0.08749   0.16659   0.25096   0.00000  Uiso   1.00
C2     C     0.31204   0.20857   0.24726   0.00000  Uiso   1.00
C3     C     0.31203   0.12356   0.24933   0.00000  Uiso   1.00
C4     C     0.02129   0.20857   0.25274   0.00000  Uiso   1.00
C5     C     0.17843   0.20129   0.04702   0.00000  Uiso   1.00
C6     C     0.16720   0.11901   0.45076   0.00000  Uiso   1.00
C7     C     0.15491   0.20129   0.45298   0.00000  Uiso   1.00
C8     C     0.16613   0.11901   0.04924   0.00000  Uiso   1.00
C9     C     0.17462   0.20538   0.09178   0.00000  Uiso   1.00
C10    C     0.16271   0.12071   0.40496   0.00000  Uiso   1.00
C11    C     0.15871   0.20538   0.40822   0.00000  Uiso   1.00
C12    C     0.24584   0.16659   0.24904   0.00000  Uiso   1.00
C13    C     0.17063   0.12071   0.09504   0.00000  Uiso   1.00
C14    C     0.17088   0.16455   0.11695   0.00000  Uiso   1.00
C15    C     0.16246   0.16456   0.38305   0.00000  Uiso   1.00
C16    C     0.16936   0.15958   0.02445   0.00000  Uiso   1.00
C17    C     0.16397   0.15958   0.47555   0.00000  Uiso   1.00
C18    C     0.29049   0.16621   0.24817   0.00000  Uiso   1.00
C19    C     0.04285   0.16621   0.25183   0.00000  Uiso   1.00
C20    C     0.14151   0.27413   0.10284   0.00000  Uiso   1.00
C21    C     0.13574   0.29729   0.05723   0.00000  Uiso   1.00
C22    C     0.10299   0.00163   0.05520   0.00000  Uiso   1.00
C23    C     0.16793   0.16643   0.16506   0.00000  Uiso   1.00
C24    C     0.11959   0.06947   0.36609   0.00000  Uiso   1.00
C25    C     0.09899   0.03789   0.39760   0.00000  Uiso   1.00
C26    C     0.05515   0.02690   0.37985   0.00000  Uiso   1.00
C27    C     0.19183   0.27413   0.39716   0.00000  Uiso   1.00
C28    C     0.19759   0.29729   0.44277   0.00000  Uiso   1.00
C29    C     0.23034   0.00163   0.44480   0.00000  Uiso   1.00
C30    C     0.21374   0.06947   0.13391   0.00000  Uiso   1.00
C31    C     0.23434   0.03789   0.10240   0.00000  Uiso   1.00
C32    C     0.27818   0.02690   0.12014   0.00000  Uiso   1.00
C33    C     0.16540   0.16643   0.33494   0.00000  Uiso   1.00
C34    C     0.13809   0.02429   0.22335   0.00000  Uiso   1.00
C35    C     0.19678   0.30820   0.27406   0.00000  Uiso   1.00
C36    C     0.19524   0.02430   0.27665   0.00000  Uiso   1.00
C37    C     0.13655   0.30820   0.22594   0.00000  Uiso   1.00
C38    C     0.02130   0.12356   0.25066   0.00000  Uiso   1.00
Cu39   Cu    0.16667   0.21355   0.25000   0.00000  Uiso   1.00
Cu40   Cu    0.16667   0.11978   0.25000   0.00000  Uiso   1.00
H41    H     0.18728   0.23187   0.02988   0.00000  Uiso   1.00
H42    H     0.21824   0.03546   0.33928   0.00000  Uiso   1.00
H43    H     0.11303   0.26129   0.18079   0.00000  Uiso   1.00
H44    H     0.08042   0.30445   0.18827   0.00000  Uiso   1.00
H45    H     0.14264   0.30218   0.12778   0.00000  Uiso   1.00
H46    H     0.11445   0.25202   0.10746   0.00000  Uiso   1.00
H47    H     0.16476   0.31281   0.04872   0.00000  Uiso   1.00
H48    H     0.12554   0.27093   0.03209   0.00000  Uiso   1.00
H49    H     0.07346   0.31995   0.06288   0.00000  Uiso   1.00
H50    H     0.09904   0.01677   0.02163   0.00000  Uiso   1.00
H51    H     0.11189   0.02987   0.07890   0.00000  Uiso   1.00
H52    H     0.17231   0.08543   0.46610   0.00000  Uiso   1.00
H53    H     0.12016   0.05092   0.33426   0.00000  Uiso   1.00
H54    H     0.10088   0.10147   0.35888   0.00000  Uiso   1.00
H55    H     0.11614   0.00478   0.40177   0.00000  Uiso   1.00
H56    H     0.09899   0.05502   0.43017   0.00000  Uiso   1.00
H57    H     0.03705   0.05943   0.37525   0.00000  Uiso   1.00
H58    H     0.04095   0.00429   0.40355   0.00000  Uiso   1.00
H59    H     0.05455   0.00830   0.34794   0.00000  Uiso   1.00
H60    H     0.19069   0.30218   0.37222   0.00000  Uiso   1.00
H61    H     0.21888   0.25202   0.39254   0.00000  Uiso   1.00
H62    H     0.16857   0.31282   0.45128   0.00000  Uiso   1.00
H63    H     0.14606   0.23187   0.47012   0.00000  Uiso   1.00
H64    H     0.20779   0.27093   0.46791   0.00000  Uiso   1.00
H65    H     0.25987   0.31995   0.43712   0.00000  Uiso   1.00
H66    H     0.23429   0.01678   0.47838   0.00000  Uiso   1.00
H67    H     0.22145   0.02987   0.42110   0.00000  Uiso   1.00
H68    H     0.21316   0.05092   0.16574   0.00000  Uiso   1.00
H69    H     0.23245   0.10147   0.14113   0.00000  Uiso   1.00
H70    H     0.21719   0.00478   0.09822   0.00000  Uiso   1.00
H71    H     0.23434   0.05503   0.06983   0.00000  Uiso   1.00
H72    H     0.29628   0.05943   0.12476   0.00000  Uiso   1.00
H73    H     0.29238   0.00430   0.09644   0.00000  Uiso   1.00
H74    H     0.16102   0.08543   0.03390   0.00000  Uiso   1.00
H75    H     0.27878   0.00830   0.15205   0.00000  Uiso   1.00
H76    H     0.03271   0.06044   0.22400   0.00000  Uiso   1.00
H77    H     0.03688   0.06160   0.28006   0.00000  Uiso   1.00
H78    H     0.29846   0.26511   0.20895   0.00000  Uiso   1.00
H79    H     0.30020   0.27550   0.26370   0.00000  Uiso   1.00
H80    H     0.30062   0.06044   0.27599   0.00000  Uiso   1.00
H81    H     0.29645   0.06160   0.21993   0.00000  Uiso   1.00
H82    H     0.03488   0.26511   0.29106   0.00000  Uiso   1.00
H83    H     0.03313   0.27550   0.23631   0.00000  Uiso   1.00
H84    H     0.11195   0.08205   0.19125   0.00000  Uiso   1.00
H85    H     0.11509   0.03546   0.16072   0.00000  Uiso   1.00
H86    H     0.22030   0.26129   0.31921   0.00000  Uiso   1.00
H87    H     0.25292   0.30445   0.31173   0.00000  Uiso   1.00
H88    H     0.22139   0.08206   0.30875   0.00000  Uiso   1.00
N89    N     0.16667   0.28402   0.25000   0.00000  Uiso   1.00
N90    N     0.04249   0.25177   0.26111   0.00000  Uiso   1.00
N91    N     0.16667   0.04931   0.25000   0.00000  Uiso   1.00
N92    N     0.10906   0.04653   0.19197   0.00000  Uiso   1.00
N93    N     0.23064   0.28306   0.29571   0.00000  Uiso   1.00
N94    N     0.22427   0.04653   0.30803   0.00000  Uiso   1.00
N95    N     0.10270   0.28306   0.20429   0.00000  Uiso   1.00
N96    N     0.04269   0.07994   0.25184   0.00000  Uiso   1.00
N97    N     0.29084   0.25177   0.23889   0.00000  Uiso   1.00
N98    N     0.29064   0.07994   0.24815   0.00000  Uiso   1.00
O99    O     0.10655   0.20625   0.24999   0.00000  Uiso   1.00
O100   O     0.16057   0.07880   0.38250   0.00000  Uiso   1.00
O101   O     0.15468   0.24907   0.38925   0.00000  Uiso   1.00
O102   O     0.17276   0.07880   0.11750   0.00000  Uiso   1.00
O103   O     0.22679   0.12709   0.25001   0.00000  Uiso   1.00
O104   O     0.22679   0.20625   0.25001   0.00000  Uiso   1.00
O105   O     0.10655   0.12709   0.24999   0.00000  Uiso   1.00
O106   O     0.16666   0.20626   0.18573   0.00000  Uiso   1.00
O107   O     0.16667   0.12707   0.31427   0.00000  Uiso   1.00
O108   O     0.16667   0.20626   0.31427   0.00000  Uiso   1.00
O109   O     0.16666   0.12707   0.18573   0.00000  Uiso   1.00
O110   O     0.17866   0.24907   0.11075   0.00000  Uiso   1.00
C111   C     0.42082   0.16659   0.25096   0.00000  Uiso   1.00
C112   C     0.64538   0.20857   0.24726   0.00000  Uiso   1.00
C113   C     0.64536   0.12356   0.24933   0.00000  Uiso   1.00
C114   C     0.35462   0.20857   0.25274   0.00000  Uiso   1.00
C115   C     0.51176   0.20129   0.04702   0.00000  Uiso   1.00
C116   C     0.50053   0.11901   0.45076   0.00000  Uiso   1.00
C117   C     0.48824   0.20129   0.45298   0.00000  Uiso   1.00
C118   C     0.49947   0.11901   0.04924   0.00000  Uiso   1.00
C119   C     0.50795   0.20538   0.09178   0.00000  Uiso   1.00
C120   C     0.49604   0.12071   0.40496   0.00000  Uiso   1.00
C121   C     0.49205   0.20538   0.40822   0.00000  Uiso   1.00
C122   C     0.57918   0.16659   0.24904   0.00000  Uiso   1.00
C123   C     0.50396   0.12071   0.09504   0.00000  Uiso   1.00
C124   C     0.50421   0.16455   0.11695   0.00000  Uiso   1.00
C125   C     0.49579   0.16456   0.38305   0.00000  Uiso   1.00
C126   C     0.50270   0.15958   0.02445   0.00000  Uiso   1.00
C127   C     0.49730   0.15958   0.47555   0.00000  Uiso   1.00
C128   C     0.62382   0.16621   0.24817   0.00000  Uiso   1.00
C129   C     0.37618   0.16621   0.25183   0.00000  Uiso   1.00
C130   C     0.47484   0.27413   0.10284   0.00000  Uiso   1.00
C131   C     0.46907   0.29729   0.05723   0.00000  Uiso   1.00
C132   C     0.43632   0.00163   0.05520   0.00000  Uiso   1.00
C133   C     0.50126   0.16643   0.16506   0.00000  Uiso   1.00
C134   C     0.45292   0.06947   0.36609   0.00000  Uiso   1.00
C135   C     0.43233   0.03789   0.39760   0.00000  Uiso   1.00
C136   C     0.38849   0.02690   0.37985   0.00000  Uiso   1.00
C137   C     0.52516   0.27413   0.39716   0.00000  Uiso   1.00
C138   C     0.53092   0.29729   0.44277   0.00000  Uiso   1.00
C139   C     0.56368   0.00163   0.44480   0.00000  Uiso   1.00
C140   C     0.54708   0.06947   0.13391   0.00000  Uiso   1.00
C141   C     0.56767   0.03789   0.10240   0.00000  Uiso   1.00
C142   C     0.61151   0.02690   0.12014   0.00000  Uiso   1.00
C143   C     0.49874   0.16643   0.33494   0.00000  Uiso   1.00
C144   C     0.47142   0.02429   0.22335   0.00000  Uiso   1.00
C145   C     0.53012   0.30820   0.27406   0.00000  Uiso   1.00
C146   C     0.52857   0.02430   0.27665   0.00000  Uiso   1.00
C147   C     0.46988   0.30820   0.22594   0.00000  Uiso   1.00
C148   C     0.35463   0.12356   0.25066   0.00000  Uiso   1.00
Cu149  Cu    0.50000   0.21355   0.25000   0.00000  Uiso   1.00
Cu150  Cu    0.50000   0.11978   0.25000   0.00000  Uiso   1.00
H151   H     0.52061   0.23187   0.02988   0.00000  Uiso   1.00
H152   H     0.55158   0.03546   0.33928   0.00000  Uiso   1.00
H153   H     0.44637   0.26129   0.18079   0.00000  Uiso   1.00
H154   H     0.41375   0.30445   0.18827   0.00000  Uiso   1.00
H155   H     0.47597   0.30218   0.12778   0.00000  Uiso   1.00
H156   H     0.44779   0.25202   0.10746   0.00000  Uiso   1.00
H157   H     0.49809   0.31281   0.04872   0.00000  Uiso   1.00
H158   H     0.45888   0.27093   0.03209   0.00000  Uiso   1.00
H159   H     0.40679   0.31995   0.06288   0.00000  Uiso   1.00
H160   H     0.43237   0.01677   0.02163   0.00000  Uiso   1.00
H161   H     0.44522   0.02987   0.07890   0.00000  Uiso   1.00
H162   H     0.50564   0.08543   0.46610   0.00000  Uiso   1.00
H163   H     0.45350   0.05092   0.33426   0.00000  Uiso   1.00
H164   H     0.43421   0.10147   0.35888   0.00000  Uiso   1.00
H165   H     0.44947   0.00478   0.40177   0.00000  Uiso   1.00
H166   H     0.43233   0.05502   0.43017   0.00000  Uiso   1.00
H167   H     0.37039   0.05943   0.37525   0.00000  Uiso   1.00
H168   H     0.37428   0.00429   0.40355   0.00000  Uiso   1.00
H169   H     0.38788   0.00830   0.34794   0.00000  Uiso   1.00
H170   H     0.52403   0.30218   0.37222   0.00000  Uiso   1.00
H171   H     0.55221   0.25202   0.39254   0.00000  Uiso   1.00
H172   H     0.50190   0.31282   0.45128   0.00000  Uiso   1.00
H173   H     0.47939   0.23187   0.47012   0.00000  Uiso   1.00
H174   H     0.54112   0.27093   0.46791   0.00000  Uiso   1.00
H175   H     0.59321   0.31995   0.43712   0.00000  Uiso   1.00
H176   H     0.56762   0.01678   0.47838   0.00000  Uiso   1.00
H177   H     0.55478   0.02987   0.42110   0.00000  Uiso   1.00
H178   H     0.54650   0.05092   0.16574   0.00000  Uiso   1.00
H179   H     0.56578   0.10147   0.14113   0.00000  Uiso   1.00
H180   H     0.55053   0.00478   0.09822   0.00000  Uiso   1.00
H181   H     0.56767   0.05503   0.06983   0.00000  Uiso   1.00
H182   H     0.62961   0.05943   0.12476   0.00000  Uiso   1.00
H183   H     0.62572   0.00430   0.09644   0.00000  Uiso   1.00
H184   H     0.49436   0.08543   0.03390   0.00000  Uiso   1.00
H185   H     0.61211   0.00830   0.15205   0.00000  Uiso   1.00
H186   H     0.36604   0.06044   0.22400   0.00000  Uiso   1.00
H187   H     0.37022   0.06160   0.28006   0.00000  Uiso   1.00
H188   H     0.63179   0.26511   0.20895   0.00000  Uiso   1.00
H189   H     0.63353   0.27550   0.26370   0.00000  Uiso   1.00
H190   H     0.63396   0.06044   0.27599   0.00000  Uiso   1.00
H191   H     0.62978   0.06160   0.21993   0.00000  Uiso   1.00
H192   H     0.36821   0.26511   0.29106   0.00000  Uiso   1.00
H193   H     0.36647   0.27550   0.23631   0.00000  Uiso   1.00
H194   H     0.44528   0.08205   0.19125   0.00000  Uiso   1.00
H195   H     0.44842   0.03546   0.16072   0.00000  Uiso   1.00
H196   H     0.55363   0.26129   0.31921   0.00000  Uiso   1.00
H197   H     0.58625   0.30445   0.31173   0.00000  Uiso   1.00
H198   H     0.55472   0.08206   0.30875   0.00000  Uiso   1.00
N199   N     0.50000   0.28402   0.25000   0.00000  Uiso   1.00
N200   N     0.37583   0.25177   0.26111   0.00000  Uiso   1.00
N201   N     0.50000   0.04931   0.25000   0.00000  Uiso   1.00
N202   N     0.44240   0.04653   0.19197   0.00000  Uiso   1.00
N203   N     0.56397   0.28306   0.29571   0.00000  Uiso   1.00
N204   N     0.55760   0.04653   0.30803   0.00000  Uiso   1.00
N205   N     0.43603   0.28306   0.20429   0.00000  Uiso   1.00
N206   N     0.37602   0.07994   0.25184   0.00000  Uiso   1.00
N207   N     0.62417   0.25177   0.23889   0.00000  Uiso   1.00
N208   N     0.62398   0.07994   0.24815   0.00000  Uiso   1.00
O209   O     0.43988   0.20625   0.24999   0.00000  Uiso   1.00
O210   O     0.49391   0.07880   0.38250   0.00000  Uiso   1.00
O211   O     0.48801   0.24907   0.38925   0.00000  Uiso   1.00
O212   O     0.50609   0.07880   0.11750   0.00000  Uiso   1.00
O213   O     0.56012   0.12709   0.25001   0.00000  Uiso   1.00
O214   O     0.56012   0.20625   0.25001   0.00000  Uiso   1.00
O215   O     0.43988   0.12709   0.24999   0.00000  Uiso   1.00
O216   O     0.50000   0.20626   0.18573   0.00000  Uiso   1.00
O217   O     0.50000   0.12707   0.31427   0.00000  Uiso   1.00
O218   O     0.50000   0.20626   0.31427   0.00000  Uiso   1.00
O219   O     0.50000   0.12707   0.18573   0.00000  Uiso   1.00
O220   O     0.51199   0.24907   0.11075   0.00000  Uiso   1.00
C221   C     0.75416   0.16659   0.25096   0.00000  Uiso   1.00
C222   C     0.97871   0.20857   0.24726   0.00000  Uiso   1.00
C223   C     0.97870   0.12356   0.24933   0.00000  Uiso   1.00
C224   C     0.68796   0.20857   0.25274   0.00000  Uiso   1.00
C225   C     0.84510   0.20129   0.04702   0.00000  Uiso   1.00
C226   C     0.83387   0.11901   0.45076   0.00000  Uiso   1.00
C227   C     0.82157   0.20129   0.45298   0.00000  Uiso   1.00
C228   C     0.83280   0.11901   0.04924   0.00000  Uiso   1.00
C229   C     0.84129   0.20538   0.09178   0.00000  Uiso   1.00
C230   C     0.82937   0.12071   0.40496   0.00000  Uiso   1.00
C231   C     0.82538   0.20538   0.40822   0.00000  Uiso   1.00
C232   C     0.91251   0.16659   0.24904   0.00000  Uiso   1.00
C233   C     0.83729   0.12071   0.09504   0.00000  Uiso   1.00
C234   C     0.83754   0.16455   0.11695   0.00000  Uiso   1.00
C235   C     0.82912   0.16456   0.38305   0.00000  Uiso   1.00
C236   C     0.83603   0.15958   0.02445   0.00000  Uiso   1.00
C237   C     0.83063   0.15958   0.47555   0.00000  Uiso   1.00
C238   C     0.95715   0.16621   0.24817   0.00000  Uiso   1.00
C239   C     0.70951   0.16621   0.25183   0.00000  Uiso   1.00
C240   C     0.80817   0.27413   0.10284   0.00000  Uiso   1.00
C241   C     0.80241   0.29729   0.05723   0.00000  Uiso   1.00
C242   C     0.76966   0.00163   0.05520   0.00000  Uiso   1.00
C243   C     0.83460   0.16643   0.16506   0.00000  Uiso   1.00
C244   C     0.78626   0.06947   0.36609   0.00000  Uiso   1.00
C245   C     0.76566   0.03789   0.39760   0.00000  Uiso   1.00
C246   C     0.72182   0.02690   0.37985   0.00000  Uiso   1.00
C247   C     0.85849   0.27413   0.39716   0.00000  Uiso   1.00
C248   C     0.86426   0.29729   0.44277   0.00000  Uiso   1.00
C249   C     0.89701   0.00163   0.44480   0.00000  Uiso   1.00
C250   C     0.88041   0.06947   0.13391   0.00000  Uiso   1.00
C251   C     0.90101   0.03789   0.10240   0.00000  Uiso   1.00
C252   C     0.94485   0.02690   0.12014   0.00000  Uiso   1.00
C253   C     0.83207   0.16643   0.33494   0.00000  Uiso   1.00
C254   C     0.80476   0.02429   0.22335   0.00000  Uiso   1.00
C255   C     0.86345   0.30820   0.27406   0.00000  Uiso   1.00
C256   C     0.86191   0.02430   0.27665   0.00000  Uiso   1.00
C257   C     0.80322   0.30820   0.22594   0.00000  Uiso   1.00
C258   C     0.68797   0.12356   0.25066   0.00000  Uiso   1.00
Cu259  Cu    0.83333   0.21355   0.25000   0.00000  Uiso   1.00
Cu260  Cu    0.83333   0.11978   0.25000   0.00000  Uiso   1.00
H261   H     0.85394   0.23187   0.02988   0.00000  Uiso   1.00
H262   H     0.88491   0.03546   0.33928   0.00000  Uiso   1.00
H263   H     0.77970   0.26129   0.18079   0.00000  Uiso   1.00
H264   H     0.74708   0.30445   0.18827   0.00000  Uiso   1.00
H265   H     0.80931   0.30218   0.12778   0.00000  Uiso   1.00
H266   H     0.78112   0.25202   0.10746   0.00000  Uiso   1.00
H267   H     0.83143   0.31281   0.04872   0.00000  Uiso   1.00
H268   H     0.79221   0.27093   0.03209   0.00000  Uiso   1.00
H269   H     0.74012   0.31995   0.06288   0.00000  Uiso   1.00
H270   H     0.76570   0.01677   0.02163   0.00000  Uiso   1.00
H271   H     0.77855   0.02987   0.07890   0.00000  Uiso   1.00
H272   H     0.83897   0.08543   0.46610   0.00000  Uiso   1.00
H273   H     0.78683   0.05092   0.33426   0.00000  Uiso   1.00
H274   H     0.76755   0.10147   0.35888   0.00000  Uiso   1.00
H275   H     0.78281   0.00478   0.40177   0.00000  Uiso   1.00
H276   H     0.76566   0.05502   0.43017   0.00000  Uiso   1.00
H277   H     0.70372   0.05943   0.37525   0.00000  Uiso   1.00
H278   H     0.70762   0.00429   0.40355   0.00000  Uiso   1.00
H279   H     0.72122   0.00830   0.34794   0.00000  Uiso   1.00
H280   H     0.85736   0.30218   0.37222   0.00000  Uiso   1.00
H281   H     0.88555   0.25202   0.39254   0.00000  Uiso   1.00
H282   H     0.83524   0.31282   0.45128   0.00000  Uiso   1.00
H283   H     0.81273   0.23187   0.47012   0.00000  Uiso   1.00
H284   H     0.87445   0.27093   0.46791   0.00000  Uiso   1.00
H285   H     0.92654   0.31995   0.43712   0.00000  Uiso   1.00
H286   H     0.90096   0.01678   0.47838   0.00000  Uiso   1.00
H287   H     0.88811   0.02987   0.42110   0.00000  Uiso   1.00
H288   H     0.87983   0.05092   0.16574   0.00000  Uiso   1.00
H289   H     0.89912   0.10147   0.14113   0.00000  Uiso   1.00
H290   H     0.88386   0.00478   0.09822   0.00000  Uiso   1.00
H291   H     0.90101   0.05503   0.06983   0.00000  Uiso   1.00
H292   H     0.96295   0.05943   0.12476   0.00000  Uiso   1.00
H293   H     0.95905   0.00430   0.09644   0.00000  Uiso   1.00
H294   H     0.82769   0.08543   0.03390   0.00000  Uiso   1.00
H295   H     0.94545   0.00830   0.15205   0.00000  Uiso   1.00
H296   H     0.69938   0.06044   0.22400   0.00000  Uiso   1.00
H297   H     0.70355   0.06160   0.28006   0.00000  Uiso   1.00
H298   H     0.96512   0.26511   0.20895   0.00000  Uiso   1.00
H299   H     0.96687   0.27550   0.26370   0.00000  Uiso   1.00
H300   H     0.96729   0.06044   0.27599   0.00000  Uiso   1.00
H301   H     0.96311   0.06160   0.21993   0.00000  Uiso   1.00
H302   H     0.70154   0.26511   0.29106   0.00000  Uiso   1.00
H303   H     0.69980   0.27550   0.23631   0.00000  Uiso   1.00
H304   H     0.77861   0.08205   0.19125   0.00000  Uiso   1.00
H305   H     0.78176   0.03546   0.16072   0.00000  Uiso   1.00
H306   H     0.88697   0.26129   0.31921   0.00000  Uiso   1.00
H307   H     0.91958   0.30445   0.31173   0.00000  Uiso   1.00
H308   H     0.88805   0.08206   0.30875   0.00000  Uiso   1.00
N309   N     0.83333   0.28402   0.25000   0.00000  Uiso   1.00
N310   N     0.70916   0.25177   0.26111   0.00000  Uiso   1.00
N311   N     0.83333   0.04931   0.25000   0.00000  Uiso   1.00
N312   N     0.77573   0.04653   0.19197   0.00000  Uiso   1.00
N313   N     0.89730   0.28306   0.29571   0.00000  Uiso   1.00
N314   N     0.89094   0.04653   0.30803   0.00000  Uiso   1.00
N315   N     0.76936   0.28306   0.20429   0.00000  Uiso   1.00
N316   N     0.70936   0.07994   0.25184   0.00000  Uiso   1.00
N317   N     0.95751   0.25177   0.23889   0.00000  Uiso   1.00
N318   N     0.95731   0.07994   0.24815   0.00000  Uiso   1.00
O319   O     0.77321   0.20625   0.24999   0.00000  Uiso   1.00
O320   O     0.82724   0.07880   0.38250   0.00000  Uiso   1.00
O321   O     0.82134   0.24907   0.38925   0.00000  Uiso   1.00
O322   O     0.83943   0.07880   0.11750   0.00000  Uiso   1.00
O323   O     0.89345   0.12709   0.25001   0.00000  Uiso   1.00
O324   O     0.89345   0.20625   0.25001   0.00000  Uiso   1.00
O325   O     0.77321   0.12709   0.24999   0.00000  Uiso   1.00
O326   O     0.83333   0.20626   0.18573   0.00000  Uiso   1.00
O327   O     0.83334   0.12707   0.31427   0.00000  Uiso   1.00
O328   O     0.83334   0.20626   0.31427   0.00000  Uiso   1.00
O329   O     0.83333   0.12707   0.18573   0.00000  Uiso   1.00
O330   O     0.84532   0.24907   0.11075   0.00000  Uiso   1.00
C331   C     0.08749   0.49992   0.25096   0.00000  Uiso   1.00
C332   C     0.31204   0.54190   0.24726   0.00000  Uiso   1.00
C333   C     0.31203   0.45689   0.24933   0.00000  Uiso   1.00
C334   C     0.02129   0.54190   0.25274   0.00000  Uiso   1.00
C335   C     0.17843   0.53463   0.04702   0.00000  Uiso   1.00
C336   C     0.16720   0.45235   0.45076   0.00000  Uiso   1.00
C337   C     0.15491   0.53463   0.45298   0.00000  Uiso   1.00
C338   C     0.16613   0.45235   0.04924   0.00000  Uiso   1.00
C339   C     0.17462   0.53871   0.09178   0.00000  Uiso   1.00
C340   C     0.16271   0.45405   0.40496   0.00000  Uiso   1.00
C341   C     0.15871   0.53871   0.40822   0.00000  Uiso   1.00
C342   C     0.24584   0.49992   0.24904   0.00000  Uiso   1.00
C343   C     0.17063   0.45405   0.09504   0.00000  Uiso   1.00
C344   C     0.17088   0.49789   0.11695   0.00000  Uiso   1.00
C345   C     0.16246   0.49789   0.38305   0.00000  Uiso   1.00
C346   C     0.16936   0.49291   0.02445   0.00000  Uiso   1.00
C347   C     0.16397   0.49291   0.47555   0.00000  Uiso   1.00
C348   C     0.29049   0.49955   0.24817   0.00000  Uiso   1.00
C349   C     0.04285   0.49955   0.25183   0.00000  Uiso   1.00
C350   C     0.14151   0.60746   0.10284   0.00000  Uiso   1.00
C351   C     0.13574   0.63062   0.05723   0.00000  Uiso   1.00
C352   C     0.10299   0.33496   0.05520   0.00000  Uiso   1.00
C353   C     0.16793   0.49976   0.16506   0.00000  Uiso   1.00
C354   C     0.11959   0.40281   0.36609   0.00000  Uiso   1.00
C355   C     0.09899   0.37122   0.39760   0.00000  Uiso   1.00
C356   C     0.05515   0.36023   0.37985   0.00000  Uiso   1.00
C357   C     0.19183   0.60746   0.39716   0.00000  Uiso   1.00
C358   C     0.19759   0.63062   0.44277   0.00000  Uiso   1.00
C359   C     0.23034   0.33497   0.44480   0.00000  Uiso   1.00
C360   C     0.21374   0.40281   0.13391   0.00000  Uiso   1.00
C361   C     0.23434   0.37123   0.10240   0.00000  Uiso   1.00
C362   C     0.27818   0.36024   0.12014   0.00000  Uiso   1.00
C363   C     0.16540   0.49976   0.33494   0.00000  Uiso   1.00
C364   C     0.13809   0.35763   0.22335   0.00000  Uiso   1.00
C365   C     0.19678   0.64153   0.27406   0.00000  Uiso   1.00
C366   C     0.19524   0.35763   0.27665   0.00000  Uiso   1.00
C367   C     0.13655   0.64153   0.22594   0.00000  Uiso   1.00
C368   C     0.02130   0.45689   0.25066   0.00000  Uiso   1.00
Cu369  Cu    0.16667   0.54689   0.25000   0.00000  Uiso   1.00
Cu370  Cu    0.16667   0.45311   0.25000   0.00000  Uiso   1.00
H371   H     0.18728   0.56520   0.02988   0.00000  Uiso   1.00
H372   H     0.21824   0.36880   0.33928   0.00000  Uiso   1.00
H373   H     0.11303   0.59462   0.18079   0.00000  Uiso   1.00
H374   H     0.08042   0.63778   0.18827   0.00000  Uiso   1.00
H375   H     0.14264   0.63551   0.12778   0.00000  Uiso   1.00
H376   H     0.11445   0.58535   0.10746   0.00000  Uiso   1.00
H377   H     0.16476   0.64615   0.04872   0.00000  Uiso   1.00
H378   H     0.12554   0.60426   0.03209   0.00000  Uiso   1.00
H379   H     0.07346   0.65328   0.06288   0.00000  Uiso   1.00
H380   H     0.09904   0.35011   0.02163   0.00000  Uiso   1.00
H381   H     0.11189   0.36320   0.07890   0.00000  Uiso   1.00
H382   H     0.17231   0.41877   0.46610   0.00000  Uiso   1.00
H383   H     0.12016   0.38426   0.33426   0.00000  Uiso   1.00
H384   H     0.10088   0.43480   0.35888   0.00000  Uiso   1.00
H385   H     0.11614   0.33811   0.40177   0.00000  Uiso   1.00
H386   H     0.09899   0.38836   0.43017   0.00000  Uiso   1.00
H387   H     0.03705   0.39276   0.37525   0.00000  Uiso   1.00
H388   H     0.04095   0.33762   0.40355   0.00000  Uiso   1.00
H389   H     0.05455   0.34163   0.34794   0.00000  Uiso   1.00
H390   H     0.19069   0.63551   0.37222   0.00000  Uiso   1.00
H391   H     0.21888   0.58535   0.39254   0.00000  Uiso   1.00
H392   H     0.16857   0.64615   0.45128   0.00000  Uiso   1.00
H393   H     0.14606   0.56520   0.47012   0.00000  Uiso   1.00
H394   H     0.20779   0.60426   0.46791   0.00000  Uiso   1.00
H395   H     0.25987   0.65328   0.43712   0.00000  Uiso   1.00
H396   H     0.23429   0.35011   0.47838   0.00000  Uiso   1.00
H397   H     0.22145   0.36320   0.42110   0.00000  Uiso   1.00
H398   H     0.21316   0.38425   0.16574   0.00000  Uiso   1.00
H399   H     0.23245   0.43480   0.14113   0.00000  Uiso   1.00
H400   H     0.21719   0.33811   0.09822   0.00000  Uiso   1.00
H401   H     0.23434   0.38837   0.06983   0.00000  Uiso   1.00
H402   H     0.29628   0.39277   0.12476   0.00000  Uiso   1.00
H403   H     0.29238   0.33763   0.09644   0.00000  Uiso   1.00
H404   H     0.16102   0.41877   0.03390   0.00000  Uiso   1.00
H405   H     0.27878   0.34163   0.15205   0.00000  Uiso   1.00
H406   H     0.03271   0.39378   0.22400   0.00000  Uiso   1.00
H407   H     0.03688   0.39493   0.28006   0.00000  Uiso   1.00
H408   H     0.29846   0.59845   0.20895   0.00000  Uiso   1.00
H409   H     0.30020   0.60883   0.26370   0.00000  Uiso   1.00
H410   H     0.30062   0.39378   0.27599   0.00000  Uiso   1.00
H411   H     0.29645   0.39493   0.21993   0.00000  Uiso   1.00
H412   H     0.03488   0.59844   0.29106   0.00000  Uiso   1.00
H413   H     0.03313   0.60883   0.23631   0.00000  Uiso   1.00
H414   H     0.11195   0.41539   0.19125   0.00000  Uiso   1.00
H415   H     0.11509   0.36880   0.16072   0.00000  Uiso   1.00
H416   H     0.22030   0.59462   0.31921   0.00000  Uiso   1.00
H417   H     0.25292   0.63778   0.31173   0.00000  Uiso   1.00
H418   H     0.22139   0.41539   0.30875   0.00000  Uiso   1.00
N419   N     0.16667   0.61736   0.25000   0.00000  Uiso   1.00
N420   N     0.04249   0.58511   0.26111   0.00000  Uiso   1.00
N421   N     0.16667   0.38264   0.25000   0.00000  Uiso   1.00
N422   N     0.10906   0.37986   0.19197   0.00000  Uiso   1.00
N423   N     0.23064   0.61639   0.29571   0.00000  Uiso   1.00
N424   N     0.22427   0.37986   0.30803   0.00000  Uiso   1.00
N425   N     0.10270   0.61639   0.20429   0.00000  Uiso   1.00
N426   N     0.04269   0.41327   0.25184   0.00000  Uiso   1.00
N427   N     0.29084   0.58511   0.23889   0.00000  Uiso   1.00
N428   N     0.29064   0.41327   0.24815   0.00000  Uiso   1.00
O429   O     0.10655   0.53958   0.24999   0.00000  Uiso   1.00
O430   O     0.16057   0.41213   0.38250   0.00000  Uiso   1.00
O431   O     0.15468   0.58240   0.38925   0.00000  Uiso   1.00
O432   O     0.17276   0.41213   0.11750   0.00000  Uiso   1.00
O433   O     0.22679   0.46042   0.25001   0.00000  Uiso   1.00
O434   O     0.22679   0.53958   0.25001   0.00000  Uiso   1.00
O435   O     0.10655   0.46042   0.24999   0.00000  Uiso   1.00
O436   O     0.16666   0.53959   0.18573   0.00000  Uiso   1.00
O437   O     0.16667   0.46041   0.31427   0.00000  Uiso   1.00
O438   O     0.16667   0.53959   0.31427   0.00000  Uiso   1.00
O439   O     0.16666   0.46041   0.18573   0.00000  Uiso   1.00
O440   O     0.17866   0.58240   0.11075   0.00000  Uiso   1.00
C441   C     0.42082   0.49992   0.25096   0.00000  Uiso   1.00
C442   C     0.64538   0.54190   0.24726   0.00000  Uiso   1.00
C443   C     0.64536   0.45689   0.24933   0.00000  Uiso   1.00
C444   C     0.35462   0.54190   0.25274   0.00000  Uiso   1.00
C445   C     0.51176   0.53463   0.04702   0.00000  Uiso   1.00
C446   C     0.50053   0.45235   0.45076   0.00000  Uiso   1.00
C447   C     0.48824   0.53463   0.45298   0.00000  Uiso   1.00
C448   C     0.49947   0.45235   0.04924   0.00000  Uiso   1.00
C449   C     0.50795   0.53871   0.09178   0.00000  Uiso   1.00
C450   C     0.49604   0.45405   0.40496   0.00000  Uiso   1.00
C451   C     0.49205   0.53871   0.40822   0.00000  Uiso   1.00
C452   C     0.57918   0.49992   0.24904   0.00000  Uiso   1.00
C453   C     0.50396   0.45405   0.09504   0.00000  Uiso   1.00
C454   C     0.50421   0.49789   0.11695   0.00000  Uiso   1.00
C455   C     0.49579   0.49789   0.38305   0.00000  Uiso   1.00
C456   C     0.50270   0.49291   0.02445   0.00000  Uiso   1.00
C457   C     0.49730   0.49291   0.47555   0.00000  Uiso   1.00
C458   C     0.62382   0.49955   0.24817   0.00000  Uiso   1.00
C459   C     0.37618   0.49955   0.25183   0.00000  Uiso   1.00
C460   C     0.47484   0.60746   0.10284   0.00000  Uiso   1.00
C461   C     0.46907   0.63062   0.05723   0.00000  Uiso   1.00
C462   C     0.43632   0.33496   0.05520   0.00000  Uiso   1.00
C463   C     0.50126   0.49976   0.16506   0.00000  Uiso   1.00
C464   C     0.45292   0.40281   0.36609   0.00000  Uiso   1.00
C465   C     0.43233   0.37122   0.39760   0.00000  Uiso   1.00
C466   C     0.38849   0.36023   0.37985   0.00000  Uiso   1.00
C467   C     0.52516   0.60746   0.39716   0.00000  Uiso   1.00
C468   C     0.53092   0.63062   0.44277   0.00000  Uiso   1.00
C469   C     0.56368   0.33497   0.44480   0.00000  Uiso   1.00
C470   C     0.54708   0.40281   0.13391   0.00000  Uiso   1.00
C471   C     0.56767   0.37123   0.10240   0.00000  Uiso   1.00
C472   C     0.61151   0.36024   0.12014   0.00000  Uiso   1.00
C473   C     0.49874   0.49976   0.33494   0.00000  Uiso   1.00
C474   C     0.47142   0.35763   0.22335   0.00000  Uiso   1.00
C475   C     0.53012   0.64153   0.27406   0.00000  Uiso   1.00
C476   C     0.52857   0.35763   0.27665   0.00000  Uiso   1.00
C477   C     0.46988   0.64153   0.22594   0.00000  Uiso   1.00
C478   C     0.35463   0.45689   0.25066   0.00000  Uiso   1.00
Cu479  Cu    0.50000   0.54689   0.25000   0.00000  Uiso   1.00
Cu480  Cu    0.50000   0.45311   0.25000   0.00000  Uiso   1.00
H481   H     0.52061   0.56520   0.02988   0.00000  Uiso   1.00
H482   H     0.55158   0.36880   0.33928   0.00000  Uiso   1.00
H483   H     0.44637   0.59462   0.18079   0.00000  Uiso   1.00
H484   H     0.41375   0.63778   0.18827   0.00000  Uiso   1.00
H485   H     0.47597   0.63551   0.12778   0.00000  Uiso   1.00
H486   H     0.44779   0.58535   0.10746   0.00000  Uiso   1.00
H487   H     0.49809   0.64615   0.04872   0.00000  Uiso   1.00
H488   H     0.45888   0.60426   0.03209   0.00000  Uiso   1.00
H489   H     0.40679   0.65328   0.06288   0.00000  Uiso   1.00
H490   H     0.43237   0.35011   0.02163   0.00000  Uiso   1.00
H491   H     0.44522   0.36320   0.07890   0.00000  Uiso   1.00
H492   H     0.50564   0.41877   0.46610   0.00000  Uiso   1.00
H493   H     0.45350   0.38426   0.33426   0.00000  Uiso   1.00
H494   H     0.43421   0.43480   0.35888   0.00000  Uiso   1.00
H495   H     0.44947   0.33811   0.40177   0.00000  Uiso   1.00
H496   H     0.43233   0.38836   0.43017   0.00000  Uiso   1.00
H497   H     0.37039   0.39276   0.37525   0.00000  Uiso   1.00
H498   H     0.37428   0.33762   0.40355   0.00000  Uiso   1.00
H499   H     0.38788   0.34163   0.34794   0.00000  Uiso   1.00
H500   H     0.52403   0.63551   0.37222   0.00000  Uiso   1.00
H501   H     0.55221   0.58535   0.39254   0.00000  Uiso   1.00
H502   H     0.50190   0.64615   0.45128   0.00000  Uiso   1.00
H503   H     0.47939   0.56520   0.47012   0.00000  Uiso   1.00
H504   H     0.54112   0.60426   0.46791   0.00000  Uiso   1.00
H505   H     0.59321   0.65328   0.43712   0.00000  Uiso   1.00
H506   H     0.56762   0.35011   0.47838   0.00000  Uiso   1.00
H507   H     0.55478   0.36320   0.42110   0.00000  Uiso   1.00
H508   H     0.54650   0.38425   0.16574   0.00000  Uiso   1.00
H509   H     0.56578   0.43480   0.14113   0.00000  Uiso   1.00
H510   H     0.55053   0.33811   0.09822   0.00000  Uiso   1.00
H511   H     0.56767   0.38837   0.06983   0.00000  Uiso   1.00
H512   H     0.62961   0.39277   0.12476   0.00000  Uiso   1.00
H513   H     0.62572   0.33763   0.09644   0.00000  Uiso   1.00
H514   H     0.49436   0.41877   0.03390   0.00000  Uiso   1.00
H515   H     0.61211   0.34163   0.15205   0.00000  Uiso   1.00
H516   H     0.36604   0.39378   0.22400   0.00000  Uiso   1.00
H517   H     0.37022   0.39493   0.28006   0.00000  Uiso   1.00
H518   H     0.63179   0.59845   0.20895   0.00000  Uiso   1.00
H519   H     0.63353   0.60883   0.26370   0.00000  Uiso   1.00
H520   H     0.63396   0.39378   0.27599   0.00000  Uiso   1.00
H521   H     0.62978   0.39493   0.21993   0.00000  Uiso   1.00
H522   H     0.36821   0.59844   0.29106   0.00000  Uiso   1.00
H523   H     0.36647   0.60883   0.23631   0.00000  Uiso   1.00
H524   H     0.44528   0.41539   0.19125   0.00000  Uiso   1.00
H525   H     0.44842   0.36880   0.16072   0.00000  Uiso   1.00
H526   H     0.55363   0.59462   0.31921   0.00000  Uiso   1.00
H527   H     0.58625   0.63778   0.31173   0.00000  Uiso   1.00
H528   H     0.55472   0.41539   0.30875   0.00000  Uiso   1.00
N529   N     0.50000   0.61736   0.25000   0.00000  Uiso   1.00
N530   N     0.37583   0.58511   0.26111   0.00000  Uiso   1.00
N531   N     0.50000   0.38264   0.25000   0.00000  Uiso   1.00
N532   N     0.44240   0.37986   0.19197   0.00000  Uiso   1.00
N533   N     0.56397   0.61639   0.29571   0.00000  Uiso   1.00
N534   N     0.55760   0.37986   0.30803   0.00000  Uiso   1.00
N535   N     0.43603   0.61639   0.20429   0.00000  Uiso   1.00
N536   N     0.37602   0.41327   0.25184   0.00000  Uiso   1.00
N537   N     0.62417   0.58511   0.23889   0.00000  Uiso   1.00
N538   N     0.62398   0.41327   0.24815   0.00000  Uiso   1.00
O539   O     0.43988   0.53958   0.24999   0.00000  Uiso   1.00
O540   O     0.49391   0.41213   0.38250   0.00000  Uiso   1.00
O541   O     0.48801   0.58240   0.38925   0.00000  Uiso   1.00
O542   O     0.50609   0.41213   0.11750   0.00000  Uiso   1.00
O543   O     0.56012   0.46042   0.25001   0.00000  Uiso   1.00
O544   O     0.56012   0.53958   0.25001   0.00000  Uiso   1.00
O545   O     0.43988   0.46042   0.24999   0.00000  Uiso   1.00
O546   O     0.50000   0.53959   0.18573   0.00000  Uiso   1.00
O547   O     0.50000   0.46041   0.31427   0.00000  Uiso   1.00
O548   O     0.50000   0.53959   0.31427   0.00000  Uiso   1.00
O549   O     0.50000   0.46041   0.18573   0.00000  Uiso   1.00
O550   O     0.51199   0.58240   0.11075   0.00000  Uiso   1.00
C551   C     0.75416   0.49992   0.25096   0.00000  Uiso   1.00
C552   C     0.97871   0.54190   0.24726   0.00000  Uiso   1.00
C553   C     0.97870   0.45689   0.24933   0.00000  Uiso   1.00
C554   C     0.68796   0.54190   0.25274   0.00000  Uiso   1.00
C555   C     0.84510   0.53463   0.04702   0.00000  Uiso   1.00
C556   C     0.83387   0.45235   0.45076   0.00000  Uiso   1.00
C557   C     0.82157   0.53463   0.45298   0.00000  Uiso   1.00
C558   C     0.83280   0.45235   0.04924   0.00000  Uiso   1.00
C559   C     0.84129   0.53871   0.09178   0.00000  Uiso   1.00
C560   C     0.82937   0.45405   0.40496   0.00000  Uiso   1.00
C561   C     0.82538   0.53871   0.40822   0.00000  Uiso   1.00
C562   C     0.91251   0.49992   0.24904   0.00000  Uiso   1.00
C563   C     0.83729   0.45405   0.09504   0.00000  Uiso   1.00
C564   C     0.83754   0.49789   0.11695   0.00000  Uiso   1.00
C565   C     0.82912   0.49789   0.38305   0.00000  Uiso   1.00
C566   C     0.83603   0.49291   0.02445   0.00000  Uiso   1.00
C567   C     0.83063   0.49291   0.47555   0.00000  Uiso   1.00
C568   C     0.95715   0.49955   0.24817   0.00000  Uiso   1.00
C569   C     0.70951   0.49955   0.25183   0.00000  Uiso   1.00
C570   C     0.80817   0.60746   0.10284   0.00000  Uiso   1.00
C571   C     0.80241   0.63062   0.05723   0.00000  Uiso   1.00
C572   C     0.76966   0.33496   0.05520   0.00000  Uiso   1.00
C573   C     0.83460   0.49976   0.16506   0.00000  Uiso   1.00
C574   C     0.78626   0.40281   0.36609   0.00000  Uiso   1.00
C575   C     0.76566   0.37122   0.39760   0.00000  Uiso   1.00
C576   C     0.72182   0.36023   0.37985   0.00000  Uiso   1.00
C577   C     0.85849   0.60746   0.39716   0.00000  Uiso   1.00
C578   C     0.86426   0.63062   0.44277   0.00000  Uiso   1.00
C579   C     0.89701   0.33497   0.44480   0.00000  Uiso   1.00
C580   C     0.88041   0.40281   0.13391   0.00000  Uiso   1.00
C581   C     0.90101   0.37123   0.10240   0.00000  Uiso   1.00
C582   C     0.94485   0.36024   0.12014   0.00000  Uiso   1.00
C583   C     0.83207   0.49976   0.33494   0.00000  Uiso   1.00
C584   C     0.80476   0.35763   0.22335   0.00000  Uiso   1.00
C585   C     0.86345   0.64153   0.27406   0.00000  Uiso   1.00
C586   C     0.86191   0.35763   0.27665   0.00000  Uiso   1.00
C587   C     0.80322   0.64153   0.22594   0.00000  Uiso   1.00
C588   C     0.68797   0.45689   0.25066   0.00000  Uiso   1.00
Cu589  Cu    0.83333   0.54689   0.25000   0.00000  Uiso   1.00
Cu590  Cu    0.83333   0.45311   0.25000   0.00000  Uiso   1.00
H591   H     0.85394   0.56520   0.02988   0.00000  Uiso   1.00
H592   H     0.88491   0.36880   0.33928   0.00000  Uiso   1.00
H593   H     0.77970   0.59462   0.18079   0.00000  Uiso   1.00
H594   H     0.74708   0.63778   0.18827   0.00000  Uiso   1.00
H595   H     0.80931   0.63551   0.12778   0.00000  Uiso   1.00
H596   H     0.78112   0.58535   0.10746   0.00000  Uiso   1.00
H597   H     0.83143   0.64615   0.04872   0.00000  Uiso   1.00
H598   H     0.79221   0.60426   0.03209   0.00000  Uiso   1.00
H599   H     0.74012   0.65328   0.06288   0.00000  Uiso   1.00
H600   H     0.76570   0.35011   0.02163   0.00000  Uiso   1.00
H601   H     0.77855   0.36320   0.07890   0.00000  Uiso   1.00
H602   H     0.83897   0.41877   0.46610   0.00000  Uiso   1.00
H603   H     0.78683   0.38426   0.33426   0.00000  Uiso   1.00
H604   H     0.76755   0.43480   0.35888   0.00000  Uiso   1.00
H605   H     0.78281   0.33811   0.40177   0.00000  Uiso   1.00
H606   H     0.76566   0.38836   0.43017   0.00000  Uiso   1.00
H607   H     0.70372   0.39276   0.37525   0.00000  Uiso   1.00
H608   H     0.70762   0.33762   0.40355   0.00000  Uiso   1.00
H609   H     0.72122   0.34163   0.34794   0.00000  Uiso   1.00
H610   H     0.85736   0.63551   0.37222   0.00000  Uiso   1.00
H611   H     0.88555   0.58535   0.39254   0.00000  Uiso   1.00
H612   H     0.83524   0.64615   0.45128   0.00000  Uiso   1.00
H613   H     0.81273   0.56520   0.47012   0.00000  Uiso   1.00
H614   H     0.87445   0.60426   0.46791   0.00000  Uiso   1.00
H615   H     0.92654   0.65328   0.43712   0.00000  Uiso   1.00
H616   H     0.90096   0.35011   0.47838   0.00000  Uiso   1.00
H617   H     0.88811   0.36320   0.42110   0.00000  Uiso   1.00
H618   H     0.87983   0.38425   0.16574   0.00000  Uiso   1.00
H619   H     0.89912   0.43480   0.14113   0.00000  Uiso   1.00
H620   H     0.88386   0.33811   0.09822   0.00000  Uiso   1.00
H621   H     0.90101   0.38837   0.06983   0.00000  Uiso   1.00
H622   H     0.96295   0.39277   0.12476   0.00000  Uiso   1.00
H623   H     0.95905   0.33763   0.09644   0.00000  Uiso   1.00
H624   H     0.82769   0.41877   0.03390   0.00000  Uiso   1.00
H625   H     0.94545   0.34163   0.15205   0.00000  Uiso   1.00
H626   H     0.69938   0.39378   0.22400   0.00000  Uiso   1.00
H627   H     0.70355   0.39493   0.28006   0.00000  Uiso   1.00
H628   H     0.96512   0.59845   0.20895   0.00000  Uiso   1.00
H629   H     0.96687   0.60883   0.26370   0.00000  Uiso   1.00
H630   H     0.96729   0.39378   0.27599   0.00000  Uiso   1.00
H631   H     0.96311   0.39493   0.21993   0.00000  Uiso   1.00
H632   H     0.70154   0.59844   0.29106   0.00000  Uiso   1.00
H633   H     0.69980   0.60883   0.23631   0.00000  Uiso   1.00
H634   H     0.77861   0.41539   0.19125   0.00000  Uiso   1.00
H635   H     0.78176   0.36880   0.16072   0.00000  Uiso   1.00
H636   H     0.88697   0.59462   0.31921   0.00000  Uiso   1.00
H637   H     0.91958   0.63778   0.31173   0.00000  Uiso   1.00
H638   H     0.88805   0.41539   0.30875   0.00000  Uiso   1.00
N639   N     0.83333   0.61736   0.25000   0.00000  Uiso   1.00
N640   N     0.70916   0.58511   0.26111   0.00000  Uiso   1.00
N641   N     0.83333   0.38264   0.25000   0.00000  Uiso   1.00
N642   N     0.77573   0.37986   0.19197   0.00000  Uiso   1.00
N643   N     0.89730   0.61639   0.29571   0.00000  Uiso   1.00
N644   N     0.89094   0.37986   0.30803   0.00000  Uiso   1.00
N645   N     0.76936   0.61639   0.20429   0.00000  Uiso   1.00
N646   N     0.70936   0.41327   0.25184   0.00000  Uiso   1.00
N647   N     0.95751   0.58511   0.23889   0.00000  Uiso   1.00
N648   N     0.95731   0.41327   0.24815   0.00000  Uiso   1.00
O649   O     0.77321   0.53958   0.24999   0.00000  Uiso   1.00
O650   O     0.82724   0.41213   0.38250   0.00000  Uiso   1.00
O651   O     0.82134   0.58240   0.38925   0.00000  Uiso   1.00
O652   O     0.83943   0.41213   0.11750   0.00000  Uiso   1.00
O653   O     0.89345   0.46042   0.25001   0.00000  Uiso   1.00
O654   O     0.89345   0.53958   0.25001   0.00000  Uiso   1.00
O655   O     0.77321   0.46042   0.24999   0.00000  Uiso   1.00
O656   O     0.83333   0.53959   0.18573   0.00000  Uiso   1.00
O657   O     0.83334   0.46041   0.31427   0.00000  Uiso   1.00
O658   O     0.83334   0.53959   0.31427   0.00000  Uiso   1.00
O659   O     0.83333   0.46041   0.18573   0.00000  Uiso   1.00
O660   O     0.84532   0.58240   0.11075   0.00000  Uiso   1.00
C661   C     0.08749   0.83325   0.25096   0.00000  Uiso   1.00
C662   C     0.31204   0.87524   0.24726   0.00000  Uiso   1.00
C663   C     0.31203   0.79022   0.24933   0.00000  Uiso   1.00
C664   C     0.02129   0.87524   0.25274   0.00000  Uiso   1.00
C665   C     0.17843   0.86796   0.04702   0.00000  Uiso   1.00
C666   C     0.16720   0.78568   0.45076   0.00000  Uiso   1.00
C667   C     0.15491   0.86796   0.45298   0.00000  Uiso   1.00
C668   C     0.16613   0.78568   0.04924   0.00000  Uiso   1.00
C669   C     0.17462   0.87204   0.09178   0.00000  Uiso   1.00
C670   C     0.16271   0.78738   0.40496   0.00000  Uiso   1.00
C671   C     0.15871   0.87204   0.40822   0.00000  Uiso   1.00
C672   C     0.24584   0.83325   0.24904   0.00000  Uiso   1.00
C673   C     0.17063   0.78738   0.09504   0.00000  Uiso   1.00
C674   C     0.17088   0.83122   0.11695   0.00000  Uiso   1.00
C675   C     0.16246   0.83122   0.38305   0.00000  Uiso   1.00
C676   C     0.16936   0.82624   0.02445   0.00000  Uiso   1.00
C677   C     0.16397   0.82624   0.47555   0.00000  Uiso   1.00
C678   C     0.29049   0.83288   0.24817   0.00000  Uiso   1.00
C679   C     0.04285   0.83288   0.25183   0.00000  Uiso   1.00
C680   C     0.14151   0.94079   0.10284   0.00000  Uiso   1.00
C681   C     0.13574   0.96395   0.05723   0.00000  Uiso   1.00
C682   C     0.10299   0.66830   0.05520   0.00000  Uiso   1.00
C683   C     0.16793   0.83310   0.16506   0.00000  Uiso   1.00
C684   C     0.11959   0.73614   0.36609   0.00000  Uiso   1.00
C685   C     0.09899   0.70456   0.39760   0.00000  Uiso   1.00
C686   C     0.05515   0.69357   0.37985   0.00000  Uiso   1.00
C687   C     0.19183   0.94079   0.39716   0.00000  Uiso   1.00
C688   C     0.19759   0.96396   0.44277   0.00000  Uiso   1.00
C689   C     0.23034   0.66830   0.44480   0.00000  Uiso   1.00
C690   C     0.21374   0.73614   0.13391   0.00000  Uiso   1.00
C691   C     0.23434   0.70456   0.10240   0.00000  Uiso   1.00
C692   C     0.27818   0.69357   0.12014   0.00000  Uiso   1.00
C693   C     0.16540   0.83310   0.33494   0.00000  Uiso   1.00
C694   C     0.13809   0.69096   0.22335   0.00000  Uiso   1.00
C695   C     0.19678   0.97486   0.27406   0.00000  Uiso   1.00
C696   C     0.19524   0.69096   0.27665   0.00000  Uiso   1.00
C697   C     0.13655   0.97486   0.22594   0.00000  Uiso   1.00
C698   C     0.02130   0.79023   0.25066   0.00000  Uiso   1.00
Cu699  Cu    0.16667   0.88022   0.25000   0.00000  Uiso   1.00
Cu700  Cu    0.16667   0.78645   0.25000   0.00000  Uiso   1.00
H701   H     0.18728   0.89853   0.02988   0.00000  Uiso   1.00
H702   H     0.21824   0.70213   0.33928   0.00000  Uiso   1.00
H703   H     0.11303   0.92796   0.18079   0.00000  Uiso   1.00
H704   H     0.08042   0.97111   0.18827   0.00000  Uiso   1.00
H705   H     0.14264   0.96884   0.12778   0.00000  Uiso   1.00
H706   H     0.11445   0.91868   0.10746   0.00000  Uiso   1.00
H707   H     0.16476   0.97948   0.04872   0.00000  Uiso   1.00
H708   H     0.12554   0.93759   0.03209   0.00000  Uiso   1.00
H709   H     0.07346   0.98661   0.06288   0.00000  Uiso   1.00
H710   H     0.09904   0.68344   0.02163   0.00000  Uiso   1.00
H711   H     0.11189   0.69653   0.07890   0.00000  Uiso   1.00
H712   H     0.17231   0.75210   0.46610   0.00000  Uiso   1.00
H713   H     0.12016   0.71759   0.33426   0.00000  Uiso   1.00
H714   H     0.10088   0.76814   0.35888   0.00000  Uiso   1.00
H715   H     0.11614   0.67144   0.40177   0.00000  Uiso   1.00
H716   H     0.09899   0.72169   0.43017   0.00000  Uiso   1.00
H717   H     0.03705   0.72610   0.37525   0.00000  Uiso   1.00
H718   H     0.04095   0.67096   0.40355   0.00000  Uiso   1.00
H719   H     0.05455   0.67497   0.34794   0.00000  Uiso   1.00
H720   H     0.19069   0.96884   0.37222   0.00000  Uiso   1.00
H721   H     0.21888   0.91869   0.39254   0.00000  Uiso   1.00
H722   H     0.16857   0.97948   0.45128   0.00000  Uiso   1.00
H723   H     0.14606   0.89853   0.47012   0.00000  Uiso   1.00
H724   H     0.20779   0.93760   0.46791   0.00000  Uiso   1.00
H725   H     0.25987   0.98661   0.43712   0.00000  Uiso   1.00
H726   H     0.23429   0.68344   0.47838   0.00000  Uiso   1.00
H727   H     0.22145   0.69654   0.42110   0.00000  Uiso   1.00
H728   H     0.21316   0.71758   0.16574   0.00000  Uiso   1.00
H729   H     0.23245   0.76814   0.14113   0.00000  Uiso   1.00
H730   H     0.21719   0.67145   0.09822   0.00000  Uiso   1.00
H731   H     0.23434   0.72170   0.06983   0.00000  Uiso   1.00
H732   H     0.29628   0.72610   0.12476   0.00000  Uiso   1.00
H733   H     0.29238   0.67096   0.09644   0.00000  Uiso   1.00
H734   H     0.16102   0.75210   0.03390   0.00000  Uiso   1.00
H735   H     0.27878   0.67496   0.15205   0.00000  Uiso   1.00
H736   H     0.03271   0.72711   0.22400   0.00000  Uiso   1.00
H737   H     0.03688   0.72826   0.28006   0.00000  Uiso   1.00
H738   H     0.29846   0.93178   0.20895   0.00000  Uiso   1.00
H739   H     0.30020   0.94216   0.26370   0.00000  Uiso   1.00
H740   H     0.30062   0.72711   0.27599   0.00000  Uiso   1.00
H741   H     0.29645   0.72826   0.21993   0.00000  Uiso   1.00
H742   H     0.03488   0.93178   0.29106   0.00000  Uiso   1.00
H743   H     0.03313   0.94216   0.23631   0.00000  Uiso   1.00
H744   H     0.11195   0.74872   0.19125   0.00000  Uiso   1.00
H745   H     0.11509   0.70213   0.16072   0.00000  Uiso   1.00
H746   H     0.22030   0.92796   0.31921   0.00000  Uiso   1.00
H747   H     0.25292   0.97112   0.31173   0.00000  Uiso   1.00
H748   H     0.22139   0.74872   0.30875   0.00000  Uiso   1.00
N749   N     0.16667   0.95069   0.25000   0.00000  Uiso   1.00
N750   N     0.04249   0.91844   0.26111   0.00000  Uiso   1.00
N751   N     0.16667   0.71598   0.25000   0.00000  Uiso   1.00
N752   N     0.10906   0.71319   0.19197   0.00000  Uiso   1.00
N753   N     0.23064   0.94972   0.29571   0.00000  Uiso   1.00
N754   N     0.22427   0.71319   0.30803   0.00000  Uiso   1.00
N755   N     0.10270   0.94972   0.20429   0.00000  Uiso   1.00
N756   N     0.04269   0.74660   0.25184   0.00000  Uiso   1.00
N757   N     0.29084   0.91844   0.23889   0.00000  Uiso   1.00
N758   N     0.29064   0.74660   0.24815   0.00000  Uiso   1.00
O759   O     0.10655   0.87291   0.24999   0.00000  Uiso   1.00
O760   O     0.16057   0.74547   0.38250   0.00000  Uiso   1.00
O761   O     0.15468   0.91574   0.38925   0.00000  Uiso   1.00
O762   O     0.17276   0.74547   0.11750   0.00000  Uiso   1.00
O763   O     0.22679   0.79375   0.25001   0.00000  Uiso   1.00
O764   O     0.22679   0.87291   0.25001   0.00000  Uiso   1.00
O765   O     0.10655   0.79375   0.24999   0.00000  Uiso   1.00
O766   O     0.16666   0.87293   0.18573   0.00000  Uiso   1.00
O767   O     0.16667   0.79374   0.31427   0.00000  Uiso   1.00
O768   O     0.16667   0.87293   0.31427   0.00000  Uiso   1.00
O769   O     0.16666   0.79374   0.18573   0.00000  Uiso   1.00
O770   O     0.17866   0.91574   0.11075   0.00000  Uiso   1.00
C771   C     0.42082   0.83325   0.25096   0.00000  Uiso   1.00
C772   C     0.64538   0.87524   0.24726   0.00000  Uiso   1.00
C773   C     0.64536   0.79022   0.24933   0.00000  Uiso   1.00
C774   C     0.35462   0.87524   0.25274   0.00000  Uiso   1.00
C775   C     0.51176   0.86796   0.04702   0.00000  Uiso   1.00
C776   C     0.50053   0.78568   0.45076   0.00000  Uiso   1.00
C777   C     0.48824   0.86796   0.45298   0.00000  Uiso   1.00
C778   C     0.49947   0.78568   0.04924   0.00000  Uiso   1.00
C779   C     0.50795   0.87204   0.09178   0.00000  Uiso   1.00
C780   C     0.49604   0.78738   0.40496   0.00000  Uiso   1.00
C781   C     0.49205   0.87204   0.40822   0.00000  Uiso   1.00
C782   C     0.57918   0.83325   0.24904   0.00000  Uiso   1.00
C783   C     0.50396   0.78738   0.09504   0.00000  Uiso   1.00
C784   C     0.50421   0.83122   0.11695   0.00000  Uiso   1.00
C785   C     0.49579   0.83122   0.38305   0.00000  Uiso   1.00
C786   C     0.50270   0.82624   0.02445   0.00000  Uiso   1.00
C787   C     0.49730   0.82624   0.47555   0.00000  Uiso   1.00
C788   C     0.62382   0.83288   0.24817   0.00000  Uiso   1.00
C789   C     0.37618   0.83288   0.25183   0.00000  Uiso   1.00
C790   C     0.47484   0.94079   0.10284   0.00000  Uiso   1.00
C791   C     0.46907   0.96395   0.05723   0.00000  Uiso   1.00
C792   C     0.43632   0.66830   0.05520   0.00000  Uiso   1.00
C793   C     0.50126   0.83310   0.16506   0.00000  Uiso   1.00
C794   C     0.45292   0.73614   0.36609   0.00000  Uiso   1.00
C795   C     0.43233   0.70456   0.39760   0.00000  Uiso   1.00
C796   C     0.38849   0.69357   0.37985   0.00000  Uiso   1.00
C797   C     0.52516   0.94079   0.39716   0.00000  Uiso   1.00
C798   C     0.53092   0.96396   0.44277   0.00000  Uiso   1.00
C799   C     0.56368   0.66830   0.44480   0.00000  Uiso   1.00
C800   C     0.54708   0.73614   0.13391   0.00000  Uiso   1.00
C801   C     0.56767   0.70456   0.10240   0.00000  Uiso   1.00
C802   C     0.61151   0.69357   0.12014   0.00000  Uiso   1.00
C803   C     0.49874   0.83310   0.33494   0.00000  Uiso   1.00
C804   C     0.47142   0.69096   0.22335   0.00000  Uiso   1.00
C805   C     0.53012   0.97486   0.27406   0.00000  Uiso   1.00
C806   C     0.52857   0.69096   0.27665   0.00000  Uiso   1.00
C807   C     0.46988   0.97486   0.22594   0.00000  Uiso   1.00
C808   C     0.35463   0.79023   0.25066   0.00000  Uiso   1.00
Cu809  Cu    0.50000   0.88022   0.25000   0.00000  Uiso   1.00
Cu810  Cu    0.50000   0.78645   0.25000   0.00000  Uiso   1.00
H811   H     0.52061   0.89853   0.02988   0.00000  Uiso   1.00
H812   H     0.55158   0.70213   0.33928   0.00000  Uiso   1.00
H813   H     0.44637   0.92796   0.18079   0.00000  Uiso   1.00
H814   H     0.41375   0.97111   0.18827   0.00000  Uiso   1.00
H815   H     0.47597   0.96884   0.12778   0.00000  Uiso   1.00
H816   H     0.44779   0.91868   0.10746   0.00000  Uiso   1.00
H817   H     0.49809   0.97948   0.04872   0.00000  Uiso   1.00
H818   H     0.45888   0.93759   0.03209   0.00000  Uiso   1.00
H819   H     0.40679   0.98661   0.06288   0.00000  Uiso   1.00
H820   H     0.43237   0.68344   0.02163   0.00000  Uiso   1.00
H821   H     0.44522   0.69653   0.07890   0.00000  Uiso   1.00
H822   H     0.50564   0.75210   0.46610   0.00000  Uiso   1.00
H823   H     0.45350   0.71759   0.33426   0.00000  Uiso   1.00
H824   H     0.43421   0.76814   0.35888   0.00000  Uiso   1.00
H825   H     0.44947   0.67144   0.40177   0.00000  Uiso   1.00
H826   H     0.43233   0.72169   0.43017   0.00000  Uiso   1.00
H827   H     0.37039   0.72610   0.37525   0.00000  Uiso   1.00
H828   H     0.37428   0.67096   0.40355   0.00000  Uiso   1.00
H829   H     0.38788   0.67497   0.34794   0.00000  Uiso   1.00
H830   H     0.52403   0.96884   0.37222   0.00000  Uiso   1.00
H831   H     0.55221   0.91869   0.39254   0.00000  Uiso   1.00
H832   H     0.50190   0.97948   0.45128   0.00000  Uiso   1.00
H833   H     0.47939   0.89853   0.47012   0.00000  Uiso   1.00
H834   H     0.54112   0.93760   0.46791   0.00000  Uiso   1.00
H835   H     0.59321   0.98661   0.43712   0.00000  Uiso   1.00
H836   H     0.56762   0.68344   0.47838   0.00000  Uiso   1.00
H837   H     0.55478   0.69654   0.42110   0.00000  Uiso   1.00
H838   H     0.54650   0.71758   0.16574   0.00000  Uiso   1.00
H839   H     0.56578   0.76814   0.14113   0.00000  Uiso   1.00
H840   H     0.55053   0.67145   0.09822   0.00000  Uiso   1.00
H841   H     0.56767   0.72170   0.06983   0.00000  Uiso   1.00
H842   H     0.62961   0.72610   0.12476   0.00000  Uiso   1.00
H843   H     0.62572   0.67096   0.09644   0.00000  Uiso   1.00
H844   H     0.49436   0.75210   0.03390   0.00000  Uiso   1.00
H845   H     0.61211   0.67496   0.15205   0.00000  Uiso   1.00
H846   H     0.36604   0.72711   0.22400   0.00000  Uiso   1.00
H847   H     0.37022   0.72826   0.28006   0.00000  Uiso   1.00
H848   H     0.63179   0.93178   0.20895   0.00000  Uiso   1.00
H849   H     0.63353   0.94216   0.26370   0.00000  Uiso   1.00
H850   H     0.63396   0.72711   0.27599   0.00000  Uiso   1.00
H851   H     0.62978   0.72826   0.21993   0.00000  Uiso   1.00
H852   H     0.36821   0.93178   0.29106   0.00000  Uiso   1.00
H853   H     0.36647   0.94216   0.23631   0.00000  Uiso   1.00
H854   H     0.44528   0.74872   0.19125   0.00000  Uiso   1.00
H855   H     0.44842   0.70213   0.16072   0.00000  Uiso   1.00
H856   H     0.55363   0.92796   0.31921   0.00000  Uiso   1.00
H857   H     0.58625   0.97112   0.31173   0.00000  Uiso   1.00
H858   H     0.55472   0.74872   0.30875   0.00000  Uiso   1.00
N859   N     0.50000   0.95069   0.25000   0.00000  Uiso   1.00
N860   N     0.37583   0.91844   0.26111   0.00000  Uiso   1.00
N861   N     0.50000   0.71598   0.25000   0.00000  Uiso   1.00
N862   N     0.44240   0.71319   0.19197   0.00000  Uiso   1.00
N863   N     0.56397   0.94972   0.29571   0.00000  Uiso   1.00
N864   N     0.55760   0.71319   0.30803   0.00000  Uiso   1.00
N865   N     0.43603   0.94972   0.20429   0.00000  Uiso   1.00
N866   N     0.37602   0.74660   0.25184   0.00000  Uiso   1.00
N867   N     0.62417   0.91844   0.23889   0.00000  Uiso   1.00
N868   N     0.62398   0.74660   0.24815   0.00000  Uiso   1.00
O869   O     0.43988   0.87291   0.24999   0.00000  Uiso   1.00
O870   O     0.49391   0.74547   0.38250   0.00000  Uiso   1.00
O871   O     0.48801   0.91574   0.38925   0.00000  Uiso   1.00
O872   O     0.50609   0.74547   0.11750   0.00000  Uiso   1.00
O873   O     0.56012   0.79375   0.25001   0.00000  Uiso   1.00
O874   O     0.56012   0.87291   0.25001   0.00000  Uiso   1.00
O875   O     0.43988   0.79375   0.24999   0.00000  Uiso   1.00
O876   O     0.50000   0.87293   0.18573   0.00000  Uiso   1.00
O877   O     0.50000   0.79374   0.31427   0.00000  Uiso   1.00
O878   O     0.50000   0.87293   0.31427   0.00000  Uiso   1.00
O879   O     0.50000   0.79374   0.18573   0.00000  Uiso   1.00
O880   O     0.51199   0.91574   0.11075   0.00000  Uiso   1.00
C881   C     0.75416   0.83325   0.25096   0.00000  Uiso   1.00
C882   C     0.97871   0.87524   0.24726   0.00000  Uiso   1.00
C883   C     0.97870   0.79022   0.24933   0.00000  Uiso   1.00
C884   C     0.68796   0.87524   0.25274   0.00000  Uiso   1.00
C885   C     0.84510   0.86796   0.04702   0.00000  Uiso   1.00
C886   C     0.83387   0.78568   0.45076   0.00000  Uiso   1.00
C887   C     0.82157   0.86796   0.45298   0.00000  Uiso   1.00
C888   C     0.83280   0.78568   0.04924   0.00000  Uiso   1.00
C889   C     0.84129   0.87204   0.09178   0.00000  Uiso   1.00
C890   C     0.82937   0.78738   0.40496   0.00000  Uiso   1.00
C891   C     0.82538   0.87204   0.40822   0.00000  Uiso   1.00
C892   C     0.91251   0.83325   0.24904   0.00000  Uiso   1.00
C893   C     0.83729   0.78738   0.09504   0.00000  Uiso   1.00
C894   C     0.83754   0.83122   0.11695   0.00000  Uiso   1.00
C895   C     0.82912   0.83122   0.38305   0.00000  Uiso   1.00
C896   C     0.83603   0.82624   0.02445   0.00000  Uiso   1.00
C897   C     0.83063   0.82624   0.47555   0.00000  Uiso   1.00
C898   C     0.95715   0.83288   0.24817   0.00000  Uiso   1.00
C899   C     0.70951   0.83288   0.25183   0.00000  Uiso   1.00
C900   C     0.80817   0.94079   0.10284   0.00000  Uiso   1.00
C901   C     0.80241   0.96395   0.05723   0.00000  Uiso   1.00
C902   C     0.76966   0.66830   0.05520   0.00000  Uiso   1.00
C903   C     0.83460   0.83310   0.16506   0.00000  Uiso   1.00
C904   C     0.78626   0.73614   0.36609   0.00000  Uiso   1.00
C905   C     0.76566   0.70456   0.39760   0.00000  Uiso   1.00
C906   C     0.72182   0.69357   0.37985   0.00000  Uiso   1.00
C907   C     0.85849   0.94079   0.39716   0.00000  Uiso   1.00
C908   C     0.86426   0.96396   0.44277   0.00000  Uiso   1.00
C909   C     0.89701   0.66830   0.44480   0.00000  Uiso   1.00
C910   C     0.88041   0.73614   0.13391   0.00000  Uiso   1.00
C911   C     0.90101   0.70456   0.10240   0.00000  Uiso   1.00
C912   C     0.94485   0.69357   0.12014   0.00000  Uiso   1.00
C913   C     0.83207   0.83310   0.33494   0.00000  Uiso   1.00
C914   C     0.80476   0.69096   0.22335   0.00000  Uiso   1.00
C915   C     0.86345   0.97486   0.27406   0.00000  Uiso   1.00
C916   C     0.86191   0.69096   0.27665   0.00000  Uiso   1.00
C917   C     0.80322   0.97486   0.22594   0.00000  Uiso   1.00
C918   C     0.68797   0.79023   0.25066   0.00000  Uiso   1.00
Cu919  Cu    0.83333   0.88022   0.25000   0.00000  Uiso   1.00
Cu920  Cu    0.83333   0.78645   0.25000   0.00000  Uiso   1.00
H921   H     0.85394   0.89853   0.02988   0.00000  Uiso   1.00
H922   H     0.88491   0.70213   0.33928   0.00000  Uiso   1.00
H923   H     0.77970   0.92796   0.18079   0.00000  Uiso   1.00
H924   H     0.74708   0.97111   0.18827   0.00000  Uiso   1.00
H925   H     0.80931   0.96884   0.12778   0.00000  Uiso   1.00
H926   H     0.78112   0.91868   0.10746   0.00000  Uiso   1.00
H927   H     0.83143   0.97948   0.04872   0.00000  Uiso   1.00
H928   H     0.79221   0.93759   0.03209   0.00000  Uiso   1.00
H929   H     0.74012   0.98661   0.06288   0.00000  Uiso   1.00
H930   H     0.76570   0.68344   0.02163   0.00000  Uiso   1.00
H931   H     0.77855   0.69653   0.07890   0.00000  Uiso   1.00
H932   H     0.83897   0.75210   0.46610   0.00000  Uiso   1.00
H933   H     0.78683   0.71759   0.33426   0.00000  Uiso   1.00
H934   H     0.76755   0.76814   0.35888   0.00000  Uiso   1.00
H935   H     0.78281   0.67144   0.40177   0.00000  Uiso   1.00
H936   H     0.76566   0.72169   0.43017   0.00000  Uiso   1.00
H937   H     0.70372   0.72610   0.37525   0.00000  Uiso   1.00
H938   H     0.70762   0.67096   0.40355   0.00000  Uiso   1.00
H939   H     0.72122   0.67497   0.34794   0.00000  Uiso   1.00
H940   H     0.85736   0.96884   0.37222   0.00000  Uiso   1.00
H941   H     0.88555   0.91869   0.39254   0.00000  Uiso   1.00
H942   H     0.83524   0.97948   0.45128   0.00000  Uiso   1.00
H943   H     0.81273   0.89853   0.47012   0.00000  Uiso   1.00
H944   H     0.87445   0.93760   0.46791   0.00000  Uiso   1.00
H945   H     0.92654   0.98661   0.43712   0.00000  Uiso   1.00
H946   H     0.90096   0.68344   0.47838   0.00000  Uiso   1.00
H947   H     0.88811   0.69654   0.42110   0.00000  Uiso   1.00
H948   H     0.87983   0.71758   0.16574   0.00000  Uiso   1.00
H949   H     0.89912   0.76814   0.14113   0.00000  Uiso   1.00
H950   H     0.88386   0.67145   0.09822   0.00000  Uiso   1.00
H951   H     0.90101   0.72170   0.06983   0.00000  Uiso   1.00
H952   H     0.96295   0.72610   0.12476   0.00000  Uiso   1.00
H953   H     0.95905   0.67096   0.09644   0.00000  Uiso   1.00
H954   H     0.82769   0.75210   0.03390   0.00000  Uiso   1.00
H955   H     0.94545   0.67496   0.15205   0.00000  Uiso   1.00
H956   H     0.69938   0.72711   0.22400   0.00000  Uiso   1.00
H957   H     0.70355   0.72826   0.28006   0.00000  Uiso   1.00
H958   H     0.96512   0.93178   0.20895   0.00000  Uiso   1.00
H959   H     0.96687   0.94216   0.26370   0.00000  Uiso   1.00
H960   H     0.96729   0.72711   0.27599   0.00000  Uiso   1.00
H961   H     0.96311   0.72826   0.21993   0.00000  Uiso   1.00
H962   H     0.70154   0.93178   0.29106   0.00000  Uiso   1.00
H963   H     0.69980   0.94216   0.23631   0.00000  Uiso   1.00
H964   H     0.77861   0.74872   0.19125   0.00000  Uiso   1.00
H965   H     0.78176   0.70213   0.16072   0.00000  Uiso   1.00
H966   H     0.88697   0.92796   0.31921   0.00000  Uiso   1.00
H967   H     0.91958   0.97112   0.31173   0.00000  Uiso   1.00
H968   H     0.88805   0.74872   0.30875   0.00000  Uiso   1.00
N969   N     0.83333   0.95069   0.25000   0.00000  Uiso   1.00
N970   N     0.70916   0.91844   0.26111   0.00000  Uiso   1.00
N971   N     0.83333   0.71598   0.25000   0.00000  Uiso   1.00
N972   N     0.77573   0.71319   0.19197   0.00000  Uiso   1.00
N973   N     0.89730   0.94972   0.29571   0.00000  Uiso   1.00
N974   N     0.89094   0.71319   0.30803   0.00000  Uiso   1.00
N975   N     0.76936   0.94972   0.20429   0.00000  Uiso   1.00
N976   N     0.70936   0.74660   0.25184   0.00000  Uiso   1.00
N977   N     0.95751   0.91844   0.23889   0.00000  Uiso   1.00
N978   N     0.95731   0.74660   0.24815   0.00000  Uiso   1.00
O979   O     0.77321   0.87291   0.24999   0.00000  Uiso   1.00
O980   O     0.82724   0.74547   0.38250   0.00000  Uiso   1.00
O981   O     0.82134   0.91574   0.38925   0.00000  Uiso   1.00
O982   O     0.83943   0.74547   0.11750   0.00000  Uiso   1.00
O983   O     0.89345   0.79375   0.25001   0.00000  Uiso   1.00
O984   O     0.89345   0.87291   0.25001   0.00000  Uiso   1.00
O985   O     0.77321   0.79375   0.24999   0.00000  Uiso   1.00
O986   O     0.83333   0.87293   0.18573   0.00000  Uiso   1.00
O987   O     0.83334   0.79374   0.31427   0.00000  Uiso   1.00
O988   O     0.83334   0.87293   0.31427   0.00000  Uiso   1.00
O989   O     0.83333   0.79374   0.18573   0.00000  Uiso   1.00
O990   O     0.84532   0.91574   0.11075   0.00000  Uiso   1.00
C991   C     0.08749   0.16659   0.75096   0.00000  Uiso   1.00
C992   C     0.31204   0.20857   0.74726   0.00000  Uiso   1.00
C993   C     0.31203   0.12356   0.74933   0.00000  Uiso   1.00
C994   C     0.02129   0.20857   0.75274   0.00000  Uiso   1.00
C995   C     0.17843   0.20129   0.54702   0.00000  Uiso   1.00
C996   C     0.16720   0.11901   0.95076   0.00000  Uiso   1.00
C997   C     0.15491   0.20129   0.95298   0.00000  Uiso   1.00
C998   C     0.16613   0.11901   0.54924   0.00000  Uiso   1.00
C999   C     0.17462   0.20538   0.59178   0.00000  Uiso   1.00
C1000  C     0.16271   0.12071   0.90496   0.00000  Uiso   1.00
C1001  C     0.15871   0.20538   0.90822   0.00000  Uiso   1.00
C1002  C     0.24584   0.16659   0.74904   0.00000  Uiso   1.00
C1003  C     0.17063   0.12071   0.59504   0.00000  Uiso   1.00
C1004  C     0.17088   0.16455   0.61695   0.00000  Uiso   1.00
C1005  C     0.16246   0.16456   0.88305   0.00000  Uiso   1.00
C1006  C     0.16936   0.15958   0.52445   0.00000  Uiso   1.00
C1007  C     0.16397   0.15958   0.97555   0.00000  Uiso   1.00
C1008  C     0.29049   0.16621   0.74817   0.00000  Uiso   1.00
C1009  C     0.04285   0.16621   0.75183   0.00000  Uiso   1.00
C1010  C     0.14151   0.27413   0.60284   0.00000  Uiso   1.00
C1011  C     0.13574   0.29729   0.55723   0.00000  Uiso   1.00
C1012  C     0.10299   0.00163   0.55520   0.00000  Uiso   1.00
C1013  C     0.16793   0.16643   0.66506   0.00000  Uiso   1.00
C1014  C     0.11959   0.06947   0.86609   0.00000  Uiso   1.00
C1015  C     0.09899   0.03789   0.89760   0.00000  Uiso   1.00
C1016  C     0.05515   0.02690   0.87985   0.00000  Uiso   1.00
C1017  C     0.19183   0.27413   0.89716   0.00000  Uiso   1.00
C1018  C     0.19759   0.29729   0.94277   0.00000  Uiso   1.00
C1019  C     0.23034   0.00163   0.94480   0.00000  Uiso   1.00
C1020  C     0.21374   0.06947   0.63391   0.00000  Uiso   1.00
C1021  C     0.23434   0.03789   0.60240   0.00000  Uiso   1.00
C1022  C     0.27818   0.02690   0.62014   0.00000  Uiso   1.00
C1023  C     0.16540   0.16643   0.83494   0.00000  Uiso   1.00
C1024  C     0.13809   0.02429   0.72335   0.00000  Uiso   1.00
C1025  C     0.19678   0.30820   0.77406   0.00000  Uiso   1.00
C1026  C     0.19524   0.02430   0.77665   0.00000  Uiso   1.00
C1027  C     0.13655   0.30820   0.72594   0.00000  Uiso   1.00
C1028  C     0.02130   0.12356   0.75066   0.00000  Uiso   1.00
Cu1029 Cu    0.16667   0.21355   0.75000   0.00000  Uiso   1.00
Cu1030 Cu    0.16667   0.11978   0.75000   0.00000  Uiso   1.00
H1031  H     0.18728   0.23187   0.52988   0.00000  Uiso   1.00
H1032  H     0.21824   0.03546   0.83928   0.00000  Uiso   1.00
H1033  H     0.11303   0.26129   0.68079   0.00000  Uiso   1.00
H1034  H     0.08042   0.30445   0.68827   0.00000  Uiso   1.00
H1035  H     0.14264   0.30218   0.62778   0.00000  Uiso   1.00
H1036  H     0.11445   0.25202   0.60746   0.00000  Uiso   1.00
H1037  H     0.16476   0.31281   0.54872   0.00000  Uiso   1.00
H1038  H     0.12554   0.27093   0.53209   0.00000  Uiso   1.00
H1039  H     0.07346   0.31995   0.56288   0.00000  Uiso   1.00
H1040  H     0.09904   0.01677   0.52163   0.00000  Uiso   1.00
H1041  H     0.11189   0.02987   0.57890   0.00000  Uiso   1.00
H1042  H     0.17231   0.08543   0.96610   0.00000  Uiso   1.00
H1043  H     0.12016   0.05092   0.83426   0.00000  Uiso   1.00
H1044  H     0.10088   0.10147   0.85888   0.00000  Uiso   1.00
H1045  H     0.11614   0.00478   0.90177   0.00000  Uiso   1.00
H1046  H     0.09899   0.05502   0.93017   0.00000  Uiso   1.00
H1047  H     0.03705   0.05943   0.87525   0.00000  Uiso   1.00
H1048  H     0.04095   0.00429   0.90355   0.00000  Uiso   1.00
H1049  H     0.05455   0.00830   0.84794   0.00000  Uiso   1.00
H1050  H     0.19069   0.30218   0.87222   0.00000  Uiso   1.00
H1051  H     0.21888   0.25202   0.89254   0.00000  Uiso   1.00
H1052  H     0.16857   0.31282   0.95128   0.00000  Uiso   1.00
H1053  H     0.14606   0.23187   0.97012   0.00000  Uiso   1.00
H1054  H     0.20779   0.27093   0.96791   0.00000  Uiso   1.00
H1055  H     0.25987   0.31995   0.93712   0.00000  Uiso   1.00
H1056  H     0.23429   0.01678   0.97838   0.00000  Uiso   1.00
H1057  H     0.22145   0.02987   0.92110   0.00000  Uiso   1.00
H1058  H     0.21316   0.05092   0.66574   0.00000  Uiso   1.00
H1059  H     0.23245   0.10147   0.64113   0.00000  Uiso   1.00
H1060  H     0.21719   0.00478   0.59822   0.00000  Uiso   1.00
H1061  H     0.23434   0.05503   0.56983   0.00000  Uiso   1.00
H1062  H     0.29628   0.05943   0.62476   0.00000  Uiso   1.00
H1063  H     0.29238   0.00430   0.59644   0.00000  Uiso   1.00
H1064  H     0.16102   0.08543   0.53390   0.00000  Uiso   1.00
H1065  H     0.27878   0.00830   0.65205   0.00000  Uiso   1.00
H1066  H     0.03271   0.06044   0.72400   0.00000  Uiso   1.00
H1067  H     0.03688   0.06160   0.78006   0.00000  Uiso   1.00
H1068  H     0.29846   0.26511   0.70895   0.00000  Uiso   1.00
H1069  H     0.30020   0.27550   0.76370   0.00000  Uiso   1.00
H1070  H     0.30062   0.06044   0.77599   0.00000  Uiso   1.00
H1071  H     0.29645   0.06160   0.71993   0.00000  Uiso   1.00
H1072  H     0.03488   0.26511   0.79106   0.00000  Uiso   1.00
H1073  H     0.03313   0.27550   0.73631   0.00000  Uiso   1.00
H1074  H     0.11195   0.08205   0.69125   0.00000  Uiso   1.00
H1075  H     0.11509   0.03546   0.66072   0.00000  Uiso   1.00
H1076  H     0.22030   0.26129   0.81921   0.00000  Uiso   1.00
H1077  H     0.25292   0.30445   0.81173   0.00000  Uiso   1.00
H1078  H     0.22139   0.08206   0.80875   0.00000  Uiso   1.00
N1079  N     0.16667   0.28402   0.75000   0.00000  Uiso   1.00
N1080  N     0.04249   0.25177   0.76111   0.00000  Uiso   1.00
N1081  N     0.16667   0.04931   0.75000   0.00000  Uiso   1.00
N1082  N     0.10906   0.04653   0.69197   0.00000  Uiso   1.00
N1083  N     0.23064   0.28306   0.79571   0.00000  Uiso   1.00
N1084  N     0.22427   0.04653   0.80803   0.00000  Uiso   1.00
N1085  N     0.10270   0.28306   0.70429   0.00000  Uiso   1.00
N1086  N     0.04269   0.07994   0.75184   0.00000  Uiso   1.00
N1087  N     0.29084   0.25177   0.73889   0.00000  Uiso   1.00
N1088  N     0.29064   0.07994   0.74815   0.00000  Uiso   1.00
O1089  O     0.10655   0.20625   0.74999   0.00000  Uiso   1.00
O1090  O     0.16057   0.07880   0.88250   0.00000  Uiso   1.00
O1091  O     0.15468   0.24907   0.88925   0.00000  Uiso   1.00
O1092  O     0.17276   0.07880   0.61750   0.00000  Uiso   1.00
O1093  O     0.22679   0.12709   0.75001   0.00000  Uiso   1.00
O1094  O     0.22679   0.20625   0.75001   0.00000  Uiso   1.00
O1095  O     0.10655   0.12709   0.74999   0.00000  Uiso   1.00
O1096  O     0.16666   0.20626   0.68573   0.00000  Uiso   1.00
O1097  O     0.16667   0.12707   0.81427   0.00000  Uiso   1.00
O1098  O     0.16667   0.20626   0.81427   0.00000  Uiso   1.00
O1099  O     0.16666   0.12707   0.68573   0.00000  Uiso   1.00
O1100  O     0.17866   0.24907   0.61075   0.00000  Uiso   1.00
C1101  C     0.42082   0.16659   0.75096   0.00000  Uiso   1.00
C1102  C     0.64538   0.20857   0.74726   0.00000  Uiso   1.00
C1103  C     0.64536   0.12356   0.74933   0.00000  Uiso   1.00
C1104  C     0.35462   0.20857   0.75274   0.00000  Uiso   1.00
C1105  C     0.51176   0.20129   0.54702   0.00000  Uiso   1.00
C1106  C     0.50053   0.11901   0.95076   0.00000  Uiso   1.00
C1107  C     0.48824   0.20129   0.95298   0.00000  Uiso   1.00
C1108  C     0.49947   0.11901   0.54924   0.00000  Uiso   1.00
C1109  C     0.50795   0.20538   0.59178   0.00000  Uiso   1.00
C1110  C     0.49604   0.12071   0.90496   0.00000  Uiso   1.00
C1111  C     0.49205   0.20538   0.90822   0.00000  Uiso   1.00
C1112  C     0.57918   0.16659   0.74904   0.00000  Uiso   1.00
C1113  C     0.50396   0.12071   0.59504   0.00000  Uiso   1.00
C1114  C     0.50421   0.16455   0.61695   0.00000  Uiso   1.00
C1115  C     0.49579   0.16456   0.88305   0.00000  Uiso   1.00
C1116  C     0.50270   0.15958   0.52445   0.00000  Uiso   1.00
C1117  C     0.49730   0.15958   0.97555   0.00000  Uiso   1.00
C1118  C     0.62382   0.16621   0.74817   0.00000  Uiso   1.00
C1119  C     0.37618   0.16621   0.75183   0.00000  Uiso   1.00
C1120  C     0.47484   0.27413   0.60284   0.00000  Uiso   1.00
C1121  C     0.46907   0.29729   0.55723   0.00000  Uiso   1.00
C1122  C     0.43632   0.00163   0.55520   0.00000  Uiso   1.00
C1123  C     0.50126   0.16643   0.66506   0.00000  Uiso   1.00
C1124  C     0.45292   0.06947   0.86609   0.00000  Uiso   1.00
C1125  C     0.43233   0.03789   0.89760   0.00000  Uiso   1.00
C1126  C     0.38849   0.02690   0.87985   0.00000  Uiso   1.00
C1127  C     0.52516   0.27413   0.89716   0.00000  Uiso   1.00
C1128  C     0.53092   0.29729   0.94277   0.00000  Uiso   1.00
C1129  C     0.56368   0.00163   0.94480   0.00000  Uiso   1.00
C1130  C     0.54708   0.06947   0.63391   0.00000  Uiso   1.00
C1131  C     0.56767   0.03789   0.60240   0.00000  Uiso   1.00
C1132  C     0.61151   0.02690   0.62014   0.00000  Uiso   1.00
C1133  C     0.49874   0.16643   0.83494   0.00000  Uiso   1.00
C1134  C     0.47142   0.02429   0.72335   0.00000  Uiso   1.00
C1135  C     0.53012   0.30820   0.77406   0.00000  Uiso   1.00
C1136  C     0.52857   0.02430   0.77665   0.00000  Uiso   1.00
C1137  C     0.46988   0.30820   0.72594   0.00000  Uiso   1.00
C1138  C     0.35463   0.12356   0.75066   0.00000  Uiso   1.00
Cu1139 Cu    0.50000   0.21355   0.75000   0.00000  Uiso   1.00
Cu1140 Cu    0.50000   0.11978   0.75000   0.00000  Uiso   1.00
H1141  H     0.52061   0.23187   0.52988   0.00000  Uiso   1.00
H1142  H     0.55158   0.03546   0.83928   0.00000  Uiso   1.00
H1143  H     0.44637   0.26129   0.68079   0.00000  Uiso   1.00
H1144  H     0.41375   0.30445   0.68827   0.00000  Uiso   1.00
H1145  H     0.47597   0.30218   0.62778   0.00000  Uiso   1.00
H1146  H     0.44779   0.25202   0.60746   0.00000  Uiso   1.00
H1147  H     0.49809   0.31281   0.54872   0.00000  Uiso   1.00
H1148  H     0.45888   0.27093   0.53209   0.00000  Uiso   1.00
H1149  H     0.40679   0.31995   0.56288   0.00000  Uiso   1.00
H1150  H     0.43237   0.01677   0.52163   0.00000  Uiso   1.00
H1151  H     0.44522   0.02987   0.57890   0.00000  Uiso   1.00
H1152  H     0.50564   0.08543   0.96610   0.00000  Uiso   1.00
H1153  H     0.45350   0.05092   0.83426   0.00000  Uiso   1.00
H1154  H     0.43421   0.10147   0.85888   0.00000  Uiso   1.00
H1155  H     0.44947   0.00478   0.90177   0.00000  Uiso   1.00
H1156  H     0.43233   0.05502   0.93017   0.00000  Uiso   1.00
H1157  H     0.37039   0.05943   0.87525   0.00000  Uiso   1.00
H1158  H     0.37428   0.00429   0.90355   0.00000  Uiso   1.00
H1159  H     0.38788   0.00830   0.84794   0.00000  Uiso   1.00
H1160  H     0.52403   0.30218   0.87222   0.00000  Uiso   1.00
H1161  H     0.55221   0.25202   0.89254   0.00000  Uiso   1.00
H1162  H     0.50190   0.31282   0.95128   0.00000  Uiso   1.00
H1163  H     0.47939   0.23187   0.97012   0.00000  Uiso   1.00
H1164  H     0.54112   0.27093   0.96791   0.00000  Uiso   1.00
H1165  H     0.59321   0.31995   0.93712   0.00000  Uiso   1.00
H1166  H     0.56762   0.01678   0.97838   0.00000  Uiso   1.00
H1167  H     0.55478   0.02987   0.92110   0.00000  Uiso   1.00
H1168  H     0.54650   0.05092   0.66574   0.00000  Uiso   1.00
H1169  H     0.56578   0.10147   0.64113   0.00000  Uiso   1.00
H1170  H     0.55053   0.00478   0.59822   0.00000  Uiso   1.00
H1171  H     0.56767   0.05503   0.56983   0.00000  Uiso   1.00
H1172  H     0.62961   0.05943   0.62476   0.00000  Uiso   1.00
H1173  H     0.62572   0.00430   0.59644   0.00000  Uiso   1.00
H1174  H     0.49436   0.08543   0.53390   0.00000  Uiso   1.00
H1175  H     0.61211   0.00830   0.65205   0.00000  Uiso   1.00
H1176  H     0.36604   0.06044   0.72400   0.00000  Uiso   1.00
H1177  H     0.37022   0.06160   0.78006   0.00000  Uiso   1.00
H1178  H     0.63179   0.26511   0.70895   0.00000  Uiso   1.00
H1179  H     0.63353   0.27550   0.76370   0.00000  Uiso   1.00
H1180  H     0.63396   0.06044   0.77599   0.00000  Uiso   1.00
H1181  H     0.62978   0.06160   0.71993   0.00000  Uiso   1.00
H1182  H     0.36821   0.26511   0.79106   0.00000  Uiso   1.00
H1183  H     0.36647   0.27550   0.73631   0.00000  Uiso   1.00
H1184  H     0.44528   0.08205   0.69125   0.00000  Uiso   1.00
H1185  H     0.44842   0.03546   0.66072   0.00000  Uiso   1.00
H1186  H     0.55363   0.26129   0.81921   0.00000  Uiso   1.00
H1187  H     0.58625   0.30445   0.81173   0.00000  Uiso   1.00
H1188  H     0.55472   0.08206   0.80875   0.00000  Uiso   1.00
N1189  N     0.50000   0.28402   0.75000   0.00000  Uiso   1.00
N1190  N     0.37583   0.25177   0.76111   0.00000  Uiso   1.00
N1191  N     0.50000   0.04931   0.75000   0.00000  Uiso   1.00
N1192  N     0.44240   0.04653   0.69197   0.00000  Uiso   1.00
N1193  N     0.56397   0.28306   0.79571   0.00000  Uiso   1.00
N1194  N     0.55760   0.04653   0.80803   0.00000  Uiso   1.00
N1195  N     0.43603   0.28306   0.70429   0.00000  Uiso   1.00
N1196  N     0.37602   0.07994   0.75184   0.00000  Uiso   1.00
N1197  N     0.62417   0.25177   0.73889   0.00000  Uiso   1.00
N1198  N     0.62398   0.07994   0.74815   0.00000  Uiso   1.00
O1199  O     0.43988   0.20625   0.74999   0.00000  Uiso   1.00
O1200  O     0.49391   0.07880   0.88250   0.00000  Uiso   1.00
O1201  O     0.48801   0.24907   0.88925   0.00000  Uiso   1.00
O1202  O     0.50609   0.07880   0.61750   0.00000  Uiso   1.00
O1203  O     0.56012   0.12709   0.75001   0.00000  Uiso   1.00
O1204  O     0.56012   0.20625   0.75001   0.00000  Uiso   1.00
O1205  O     0.43988   0.12709   0.74999   0.00000  Uiso   1.00
O1206  O     0.50000   0.20626   0.68573   0.00000  Uiso   1.00
O1207  O     0.50000   0.12707   0.81427   0.00000  Uiso   1.00
O1208  O     0.50000   0.20626   0.81427   0.00000  Uiso   1.00
O1209  O     0.50000   0.12707   0.68573   0.00000  Uiso   1.00
O1210  O     0.51199   0.24907   0.61075   0.00000  Uiso   1.00
C1211  C     0.75416   0.16659   0.75096   0.00000  Uiso   1.00
C1212  C     0.97871   0.20857   0.74726   0.00000  Uiso   1.00
C1213  C     0.97870   0.12356   0.74933   0.00000  Uiso   1.00
C1214  C     0.68796   0.20857   0.75274   0.00000  Uiso   1.00
C1215  C     0.84510   0.20129   0.54702   0.00000  Uiso   1.00
C1216  C     0.83387   0.11901   0.95076   0.00000  Uiso   1.00
C1217  C     0.82157   0.20129   0.95298   0.00000  Uiso   1.00
C1218  C     0.83280   0.11901   0.54924   0.00000  Uiso   1.00
C1219  C     0.84129   0.20538   0.59178   0.00000  Uiso   1.00
C1220  C     0.82937   0.12071   0.90496   0.00000  Uiso   1.00
C1221  C     0.82538   0.20538   0.90822   0.00000  Uiso   1.00
C1222  C     0.91251   0.16659   0.74904   0.00000  Uiso   1.00
C1223  C     0.83729   0.12071   0.59504   0.00000  Uiso   1.00
C1224  C     0.83754   0.16455   0.61695   0.00000  Uiso   1.00
C1225  C     0.82912   0.16456   0.88305   0.00000  Uiso   1.00
C1226  C     0.83603   0.15958   0.52445   0.00000  Uiso   1.00
C1227  C     0.83063   0.15958   0.97555   0.00000  Uiso   1.00
C1228  C     0.95715   0.16621   0.74817   0.00000  Uiso   1.00
C1229  C     0.70951   0.16621   0.75183   0.00000  Uiso   1.00
C1230  C     0.80817   0.27413   0.60284   0.00000  Uiso   1.00
C1231  C     0.80241   0.29729   0.55723   0.00000  Uiso   1.00
C1232  C     0.76966   0.00163   0.55520   0.00000  Uiso   1.00
C1233  C     0.83460   0.16643   0.66506   0.00000  Uiso   1.00
C1234  C     0.78626   0.06947   0.86609   0.00000  Uiso   1.00
C1235  C     0.76566   0.03789   0.89760   0.00000  Uiso   1.00
C1236  C     0.72182   0.02690   0.87985   0.00000  Uiso   1.00
C1237  C     0.85849   0.27413   0.89716   0.00000  Uiso   1.00
C1238  C     0.86426   0.29729   0.94277   0.00000  Uiso   1.00
C1239  C     0.89701   0.00163   0.94480   0.00000  Uiso   1.00
C1240  C     0.88041   0.06947   0.63391   0.00000  Uiso   1.00
C1241  C     0.90101   0.03789   0.60240   0.00000  Uiso   1.00
C1242  C     0.94485   0.02690   0.62014   0.00000  Uiso   1.00
C1243  C     0.83207   0.16643   0.83494   0.00000  Uiso   1.00
C1244  C     0.80476   0.02429   0.72335   0.00000  Uiso   1.00
C1245  C     0.86345   0.30820   0.77406   0.00000  Uiso   1.00
C1246  C     0.86191   0.02430   0.77665   0.00000  Uiso   1.00
C1247  C     0.80322   0.30820   0.72594   0.00000  Uiso   1.00
C1248  C     0.68797   0.12356   0.75066   0.00000  Uiso   1.00
Cu1249 Cu    0.83333   0.21355   0.75000   0.00000  Uiso   1.00
Cu1250 Cu    0.83333   0.11978   0.75000   0.00000  Uiso   1.00
H1251  H     0.85394   0.23187   0.52988   0.00000  Uiso   1.00
H1252  H     0.88491   0.03546   0.83928   0.00000  Uiso   1.00
H1253  H     0.77970   0.26129   0.68079   0.00000  Uiso   1.00
H1254  H     0.74708   0.30445   0.68827   0.00000  Uiso   1.00
H1255  H     0.80931   0.30218   0.62778   0.00000  Uiso   1.00
H1256  H     0.78112   0.25202   0.60746   0.00000  Uiso   1.00
H1257  H     0.83143   0.31281   0.54872   0.00000  Uiso   1.00
H1258  H     0.79221   0.27093   0.53209   0.00000  Uiso   1.00
H1259  H     0.74012   0.31995   0.56288   0.00000  Uiso   1.00
H1260  H     0.76570   0.01677   0.52163   0.00000  Uiso   1.00
H1261  H     0.77855   0.02987   0.57890   0.00000  Uiso   1.00
H1262  H     0.83897   0.08543   0.96610   0.00000  Uiso   1.00
H1263  H     0.78683   0.05092   0.83426   0.00000  Uiso   1.00
H1264  H     0.76755   0.10147   0.85888   0.00000  Uiso   1.00
H1265  H     0.78281   0.00478   0.90177   0.00000  Uiso   1.00
H1266  H     0.76566   0.05502   0.93017   0.00000  Uiso   1.00
H1267  H     0.70372   0.05943   0.87525   0.00000  Uiso   1.00
H1268  H     0.70762   0.00429   0.90355   0.00000  Uiso   1.00
H1269  H     0.72122   0.00830   0.84794   0.00000  Uiso   1.00
H1270  H     0.85736   0.30218   0.87222   0.00000  Uiso   1.00
H1271  H     0.88555   0.25202   0.89254   0.00000  Uiso   1.00
H1272  H     0.83524   0.31282   0.95128   0.00000  Uiso   1.00
H1273  H     0.81273   0.23187   0.97012   0.00000  Uiso   1.00
H1274  H     0.87445   0.27093   0.96791   0.00000  Uiso   1.00
H1275  H     0.92654   0.31995   0.93712   0.00000  Uiso   1.00
H1276  H     0.90096   0.01678   0.97838   0.00000  Uiso   1.00
H1277  H     0.88811   0.02987   0.92110   0.00000  Uiso   1.00
H1278  H     0.87983   0.05092   0.66574   0.00000  Uiso   1.00
H1279  H     0.89912   0.10147   0.64113   0.00000  Uiso   1.00
H1280  H     0.88386   0.00478   0.59822   0.00000  Uiso   1.00
H1281  H     0.90101   0.05503   0.56983   0.00000  Uiso   1.00
H1282  H     0.96295   0.05943   0.62476   0.00000  Uiso   1.00
H1283  H     0.95905   0.00430   0.59644   0.00000  Uiso   1.00
H1284  H     0.82769   0.08543   0.53390   0.00000  Uiso   1.00
H1285  H     0.94545   0.00830   0.65205   0.00000  Uiso   1.00
H1286  H     0.69938   0.06044   0.72400   0.00000  Uiso   1.00
H1287  H     0.70355   0.06160   0.78006   0.00000  Uiso   1.00
H1288  H     0.96512   0.26511   0.70895   0.00000  Uiso   1.00
H1289  H     0.96687   0.27550   0.76370   0.00000  Uiso   1.00
H1290  H     0.96729   0.06044   0.77599   0.00000  Uiso   1.00
H1291  H     0.96311   0.06160   0.71993   0.00000  Uiso   1.00
H1292  H     0.70154   0.26511   0.79106   0.00000  Uiso   1.00
H1293  H     0.69980   0.27550   0.73631   0.00000  Uiso   1.00
H1294  H     0.77861   0.08205   0.69125   0.00000  Uiso   1.00
H1295  H     0.78176   0.03546   0.66072   0.00000  Uiso   1.00
H1296  H     0.88697   0.26129   0.81921   0.00000  Uiso   1.00
H1297  H     0.91958   0.30445   0.81173   0.00000  Uiso   1.00
H1298  H     0.88805   0.08206   0.80875   0.00000  Uiso   1.00
N1299  N     0.83333   0.28402   0.75000   0.00000  Uiso   1.00
N1300  N     0.70916   0.25177   0.76111   0.00000  Uiso   1.00
N1301  N     0.83333   0.04931   0.75000   0.00000  Uiso   1.00
N1302  N     0.77573   0.04653   0.69197   0.00000  Uiso   1.00
N1303  N     0.89730   0.28306   0.79571   0.00000  Uiso   1.00
N1304  N     0.89094   0.04653   0.80803   0.00000  Uiso   1.00
N1305  N     0.76936   0.28306   0.70429   0.00000  Uiso   1.00
N1306  N     0.70936   0.07994   0.75184   0.00000  Uiso   1.00
N1307  N     0.95751   0.25177   0.73889   0.00000  Uiso   1.00
N1308  N     0.95731   0.07994   0.74815   0.00000  Uiso   1.00
O1309  O     0.77321   0.20625   0.74999   0.00000  Uiso   1.00
O1310  O     0.82724   0.07880   0.88250   0.00000  Uiso   1.00
O1311  O     0.82134   0.24907   0.88925   0.00000  Uiso   1.00
O1312  O     0.83943   0.07880   0.61750   0.00000  Uiso   1.00
O1313  O     0.89345   0.12709   0.75001   0.00000  Uiso   1.00
O1314  O     0.89345   0.20625   0.75001   0.00000  Uiso   1.00
O1315  O     0.77321   0.12709   0.74999   0.00000  Uiso   1.00
O1316  O     0.83333   0.20626   0.68573   0.00000  Uiso   1.00
O1317  O     0.83334   0.12707   0.81427   0.00000  Uiso   1.00
O1318  O     0.83334   0.20626   0.81427   0.00000  Uiso   1.00
O1319  O     0.83333   0.12707   0.68573   0.00000  Uiso   1.00
O1320  O     0.84532   0.24907   0.61075   0.00000  Uiso   1.00
C1321  C     0.08749   0.49992   0.75096   0.00000  Uiso   1.00
C1322  C     0.31204   0.54190   0.74726   0.00000  Uiso   1.00
C1323  C     0.31203   0.45689   0.74933   0.00000  Uiso   1.00
C1324  C     0.02129   0.54190   0.75274   0.00000  Uiso   1.00
C1325  C     0.17843   0.53463   0.54702   0.00000  Uiso   1.00
C1326  C     0.16720   0.45235   0.95076   0.00000  Uiso   1.00
C1327  C     0.15491   0.53463   0.95298   0.00000  Uiso   1.00
C1328  C     0.16613   0.45235   0.54924   0.00000  Uiso   1.00
C1329  C     0.17462   0.53871   0.59178   0.00000  Uiso   1.00
C1330  C     0.16271   0.45405   0.90496   0.00000  Uiso   1.00
C1331  C     0.15871   0.53871   0.90822   0.00000  Uiso   1.00
C1332  C     0.24584   0.49992   0.74904   0.00000  Uiso   1.00
C1333  C     0.17063   0.45405   0.59504   0.00000  Uiso   1.00
C1334  C     0.17088   0.49789   0.61695   0.00000  Uiso   1.00
C1335  C     0.16246   0.49789   0.88305   0.00000  Uiso   1.00
C1336  C     0.16936   0.49291   0.52445   0.00000  Uiso   1.00
C1337  C     0.16397   0.49291   0.97555   0.00000  Uiso   1.00
C1338  C     0.29049   0.49955   0.74817   0.00000  Uiso   1.00
C1339  C     0.04285   0.49955   0.75183   0.00000  Uiso   1.00
C1340  C     0.14151   0.60746   0.60284   0.00000  Uiso   1.00
C1341  C     0.13574   0.63062   0.55723   0.00000  Uiso   1.00
C1342  C     0.10299   0.33496   0.55520   0.00000  Uiso   1.00
C1343  C     0.16793   0.49976   0.66506   0.00000  Uiso   1.00
C1344  C     0.11959   0.40281   0.86609   0.00000  Uiso   1.00
C1345  C     0.09899   0.37122   0.89760   0.00000  Uiso   1.00
C1346  C     0.05515   0.36023   0.87985   0.00000  Uiso   1.00
C1347  C     0.19183   0.60746   0.89716   0.00000  Uiso   1.00
C1348  C     0.19759   0.63062   0.94277   0.00000  Uiso   1.00
C1349  C     0.23034   0.33497   0.94480   0.00000  Uiso   1.00
C1350  C     0.21374   0.40281   0.63391   0.00000  Uiso   1.00
C1351  C     0.23434   0.37123   0.60240   0.00000  Uiso   1.00
C1352  C     0.27818   0.36024   0.62014   0.00000  Uiso   1.00
C1353  C     0.16540   0.49976   0.83494   0.00000  Uiso   1.00
C1354  C     0.13809   0.35763   0.72335   0.00000  Uiso   1.00
C1355  C     0.19678   0.64153   0.77406   0.00000  Uiso   1.00
C1356  C     0.19524   0.35763   0.77665   0.00000  Uiso   1.00
C1357  C     0.13655   0.64153   0.72594   0.00000  Uiso   1.00
C1358  C     0.02130   0.45689   0.75066   0.00000  Uiso   1.00
Cu1359 Cu    0.16667   0.54689   0.75000   0.00000  Uiso   1.00
Cu1360 Cu    0.16667   0.45311   0.75000   0.00000  Uiso   1.00
H1361  H     0.18728   0.56520   0.52988   0.00000  Uiso   1.00
H1362  H     0.21824   0.36880   0.83928   0.00000  Uiso   1.00
H1363  H     0.11303   0.59462   0.68079   0.00000  Uiso   1.00
H1364  H     0.08042   0.63778   0.68827   0.00000  Uiso   1.00
H1365  H     0.14264   0.63551   0.62778   0.00000  Uiso   1.00
H1366  H     0.11445   0.58535   0.60746   0.00000  Uiso   1.00
H1367  H     0.16476   0.64615   0.54872   0.00000  Uiso   1.00
H1368  H     0.12554   0.60426   0.53209   0.00000  Uiso   1.00
H1369  H     0.07346   0.65328   0.56288   0.00000  Uiso   1.00
H1370  H     0.09904   0.35011   0.52163   0.00000  Uiso   1.00
H1371  H     0.11189   0.36320   0.57890   0.00000  Uiso   1.00
H1372  H     0.17231   0.41877   0.96610   0.00000  Uiso   1.00
H1373  H     0.12016   0.38426   0.83426   0.00000  Uiso   1.00
H1374  H     0.10088   0.43480   0.85888   0.00000  Uiso   1.00
H1375  H     0.11614   0.33811   0.90177   0.00000  Uiso   1.00
H1376  H     0.09899   0.38836   0.93017   0.00000  Uiso   1.00
H1377  H     0.03705   0.39276   0.87525   0.00000  Uiso   1.00
H1378  H     0.04095   0.33762   0.90355   0.00000  Uiso   1.00
H1379  H     0.05455   0.34163   0.84794   0.00000  Uiso   1.00
H1380  H     0.19069   0.63551   0.87222   0.00000  Uiso   1.00
H1381  H     0.21888   0.58535   0.89254   0.00000  Uiso   1.00
H1382  H     0.16857   0.64615   0.95128   0.00000  Uiso   1.00
H1383  H     0.14606   0.56520   0.97012   0.00000  Uiso   1.00
H1384  H     0.20779   0.60426   0.96791   0.00000  Uiso   1.00
H1385  H     0.25987   0.65328   0.93712   0.00000  Uiso   1.00
H1386  H     0.23429   0.35011   0.97838   0.00000  Uiso   1.00
H1387  H     0.22145   0.36320   0.92110   0.00000  Uiso   1.00
H1388  H     0.21316   0.38425   0.66574   0.00000  Uiso   1.00
H1389  H     0.23245   0.43480   0.64113   0.00000  Uiso   1.00
H1390  H     0.21719   0.33811   0.59822   0.00000  Uiso   1.00
H1391  H     0.23434   0.38837   0.56983   0.00000  Uiso   1.00
H1392  H     0.29628   0.39277   0.62476   0.00000  Uiso   1.00
H1393  H     0.29238   0.33763   0.59644   0.00000  Uiso   1.00
H1394  H     0.16102   0.41877   0.53390   0.00000  Uiso   1.00
H1395  H     0.27878   0.34163   0.65205   0.00000  Uiso   1.00
H1396  H     0.03271   0.39378   0.72400   0.00000  Uiso   1.00
H1397  H     0.03688   0.39493   0.78006   0.00000  Uiso   1.00
H1398  H     0.29846   0.59845   0.70895   0.00000  Uiso   1.00
H1399  H     0.30020   0.60883   0.76370   0.00000  Uiso   1.00
H1400  H     0.30062   0.39378   0.77599   0.00000  Uiso   1.00
H1401  H     0.29645   0.39493   0.71993   0.00000  Uiso   1.00
H1402  H     0.03488   0.59844   0.79106   0.00000  Uiso   1.00
H1403  H     0.03313   0.60883   0.73631   0.00000  Uiso   1.00
H1404  H     0.11195   0.41539   0.69125   0.00000  Uiso   1.00
H1405  H     0.11509   0.36880   0.66072   0.00000  Uiso   1.00
H1406  H     0.22030   0.59462   0.81921   0.00000  Uiso   1.00
H1407  H     0.25292   0.63778   0.81173   0.00000  Uiso   1.00
H1408  H     0.22139   0.41539   0.80875   0.00000  Uiso   1.00
N1409  N     0.16667   0.61736   0.75000   0.00000  Uiso   1.00
N1410  N     0.04249   0.58511   0.76111   0.00000  Uiso   1.00
N1411  N     0.16667   0.38264   0.75000   0.00000  Uiso   1.00
N1412  N     0.10906   0.37986   0.69197   0.00000  Uiso   1.00
N1413  N     0.23064   0.61639   0.79571   0.00000  Uiso   1.00
N1414  N     0.22427   0.37986   0.80803   0.00000  Uiso   1.00
N1415  N     0.10270   0.61639   0.70429   0.00000  Uiso   1.00
N1416  N     0.04269   0.41327   0.75184   0.00000  Uiso   1.00
N1417  N     0.29084   0.58511   0.73889   0.00000  Uiso   1.00
N1418  N     0.29064   0.41327   0.74815   0.00000  Uiso   1.00
O1419  O     0.10655   0.53958   0.74999   0.00000  Uiso   1.00
O1420  O     0.16057   0.41213   0.88250   0.00000  Uiso   1.00
O1421  O     0.15468   0.58240   0.88925   0.00000  Uiso   1.00
O1422  O     0.17276   0.41213   0.61750   0.00000  Uiso   1.00
O1423  O     0.22679   0.46042   0.75001   0.00000  Uiso   1.00
O1424  O     0.22679   0.53958   0.75001   0.00000  Uiso   1.00
O1425  O     0.10655   0.46042   0.74999   0.00000  Uiso   1.00
O1426  O     0.16666   0.53959   0.68573   0.00000  Uiso   1.00
O1427  O     0.16667   0.46041   0.81427   0.00000  Uiso   1.00
O1428  O     0.16667   0.53959   0.81427   0.00000  Uiso   1.00
O1429  O     0.16666   0.46041   0.68573   0.00000  Uiso   1.00
O1430  O     0.17866   0.58240   0.61075   0.00000  Uiso   1.00
C1431  C     0.42082   0.49992   0.75096   0.00000  Uiso   1.00
C1432  C     0.64538   0.54190   0.74726   0.00000  Uiso   1.00
C1433  C     0.64536   0.45689   0.74933   0.00000  Uiso   1.00
C1434  C     0.35462   0.54190   0.75274   0.00000  Uiso   1.00
C1435  C     0.51176   0.53463   0.54702   0.00000  Uiso   1.00
C1436  C     0.50053   0.45235   0.95076   0.00000  Uiso   1.00
C1437  C     0.48824   0.53463   0.95298   0.00000  Uiso   1.00
C1438  C     0.49947   0.45235   0.54924   0.00000  Uiso   1.00
C1439  C     0.50795   0.53871   0.59178   0.00000  Uiso   1.00
C1440  C     0.49604   0.45405   0.90496   0.00000  Uiso   1.00
C1441  C     0.49205   0.53871   0.90822   0.00000  Uiso   1.00
C1442  C     0.57918   0.49992   0.74904   0.00000  Uiso   1.00
C1443  C     0.50396   0.45405   0.59504   0.00000  Uiso   1.00
C1444  C     0.50421   0.49789   0.61695   0.00000  Uiso   1.00
C1445  C     0.49579   0.49789   0.88305   0.00000  Uiso   1.00
C1446  C     0.50270   0.49291   0.52445   0.00000  Uiso   1.00
C1447  C     0.49730   0.49291   0.97555   0.00000  Uiso   1.00
C1448  C     0.62382   0.49955   0.74817   0.00000  Uiso   1.00
C1449  C     0.37618   0.49955   0.75183   0.00000  Uiso   1.00
C1450  C     0.47484   0.60746   0.60284   0.00000  Uiso   1.00
C1451  C     0.46907   0.63062   0.55723   0.00000  Uiso   1.00
C1452  C     0.43632   0.33496   0.55520   0.00000  Uiso   1.00
C1453  C     0.50126   0.49976   0.66506   0.00000  Uiso   1.00
C1454  C     0.45292   0.40281   0.86609   0.00000  Uiso   1.00
C1455  C     0.43233   0.37122   0.89760   0.00000  Uiso   1.00
C1456  C     0.38849   0.36023   0.87985   0.00000  Uiso   1.00
C1457  C     0.52516   0.60746   0.89716   0.00000  Uiso   1.00
C1458  C     0.53092   0.63062   0.94277   0.00000  Uiso   1.00
C1459  C     0.56368   0.33497   0.94480   0.00000  Uiso   1.00
C1460  C     0.54708   0.40281   0.63391   0.00000  Uiso   1.00
C1461  C     0.56767   0.37123   0.60240   0.00000  Uiso   1.00
C1462  C     0.61151   0.36024   0.62014   0.00000  Uiso   1.00
C1463  C     0.49874   0.49976   0.83494   0.00000  Uiso   1.00
C1464  C     0.47142   0.35763   0.72335   0.00000  Uiso   1.00
C1465  C     0.53012   0.64153   0.77406   0.00000  Uiso   1.00
C1466  C     0.52857   0.35763   0.77665   0.00000  Uiso   1.00
C1467  C     0.46988   0.64153   0.72594   0.00000  Uiso   1.00
C1468  C     0.35463   0.45689   0.75066   0.00000  Uiso   1.00
Cu1469 Cu    0.50000   0.54689   0.75000   0.00000  Uiso   1.00
Cu1470 Cu    0.50000   0.45311   0.75000   0.00000  Uiso   1.00
H1471  H     0.52061   0.56520   0.52988   0.00000  Uiso   1.00
H1472  H     0.55158   0.36880   0.83928   0.00000  Uiso   1.00
H1473  H     0.44637   0.59462   0.68079   0.00000  Uiso   1.00
H1474  H     0.41375   0.63778   0.68827   0.00000  Uiso   1.00
H1475  H     0.47597   0.63551   0.62778   0.00000  Uiso   1.00
H1476  H     0.44779   0.58535   0.60746   0.00000  Uiso   1.00
H1477  H     0.49809   0.64615   0.54872   0.00000  Uiso   1.00
H1478  H     0.45888   0.60426   0.53209   0.00000  Uiso   1.00
H1479  H     0.40679   0.65328   0.56288   0.00000  Uiso   1.00
H1480  H     0.43237   0.35011   0.52163   0.00000  Uiso   1.00
H1481  H     0.44522   0.36320   0.57890   0.00000  Uiso   1.00
H1482  H     0.50564   0.41877   0.96610   0.00000  Uiso   1.00
H1483  H     0.45350   0.38426   0.83426   0.00000  Uiso   1.00
H1484  H     0.43421   0.43480   0.85888   0.00000  Uiso   1.00
H1485  H     0.44947   0.33811   0.90177   0.00000  Uiso   1.00
H1486  H     0.43233   0.38836   0.93017   0.00000  Uiso   1.00
H1487  H     0.37039   0.39276   0.87525   0.00000  Uiso   1.00
H1488  H     0.37428   0.33762   0.90355   0.00000  Uiso   1.00
H1489  H     0.38788   0.34163   0.84794   0.00000  Uiso   1.00
H1490  H     0.52403   0.63551   0.87222   0.00000  Uiso   1.00
H1491  H     0.55221   0.58535   0.89254   0.00000  Uiso   1.00
H1492  H     0.50190   0.64615   0.95128   0.00000  Uiso   1.00
H1493  H     0.47939   0.56520   0.97012   0.00000  Uiso   1.00
H1494  H     0.54112   0.60426   0.96791   0.00000  Uiso   1.00
H1495  H     0.59321   0.65328   0.93712   0.00000  Uiso   1.00
H1496  H     0.56762   0.35011   0.97838   0.00000  Uiso   1.00
H1497  H     0.55478   0.36320   0.92110   0.00000  Uiso   1.00
H1498  H     0.54650   0.38425   0.66574   0.00000  Uiso   1.00
H1499  H     0.56578   0.43480   0.64113   0.00000  Uiso   1.00
H1500  H     0.55053   0.33811   0.59822   0.00000  Uiso   1.00
H1501  H     0.56767   0.38837   0.56983   0.00000  Uiso   1.00
H1502  H     0.62961   0.39277   0.62476   0.00000  Uiso   1.00
H1503  H     0.62572   0.33763   0.59644   0.00000  Uiso   1.00
H1504  H     0.49436   0.41877   0.53390   0.00000  Uiso   1.00
H1505  H     0.61211   0.34163   0.65205   0.00000  Uiso   1.00
H1506  H     0.36604   0.39378   0.72400   0.00000  Uiso   1.00
H1507  H     0.37022   0.39493   0.78006   0.00000  Uiso   1.00
H1508  H     0.63179   0.59845   0.70895   0.00000  Uiso   1.00
H1509  H     0.63353   0.60883   0.76370   0.00000  Uiso   1.00
H1510  H     0.63396   0.39378   0.77599   0.00000  Uiso   1.00
H1511  H     0.62978   0.39493   0.71993   0.00000  Uiso   1.00
H1512  H     0.36821   0.59844   0.79106   0.00000  Uiso   1.00
H1513  H     0.36647   0.60883   0.73631   0.00000  Uiso   1.00
H1514  H     0.44528   0.41539   0.69125   0.00000  Uiso   1.00
H1515  H     0.44842   0.36880   0.66072   0.00000  Uiso   1.00
H1516  H     0.55363   0.59462   0.81921   0.00000  Uiso   1.00
H1517  H     0.58625   0.63778   0.81173   0.00000  Uiso   1.00
H1518  H     0.55472   0.41539   0.80875   0.00000  Uiso   1.00
N1519  N     0.50000   0.61736   0.75000   0.00000  Uiso   1.00
N1520  N     0.37583   0.58511   0.76111   0.00000  Uiso   1.00
N1521  N     0.50000   0.38264   0.75000   0.00000  Uiso   1.00
N1522  N     0.44240   0.37986   0.69197   0.00000  Uiso   1.00
N1523  N     0.56397   0.61639   0.79571   0.00000  Uiso   1.00
N1524  N     0.55760   0.37986   0.80803   0.00000  Uiso   1.00
N1525  N     0.43603   0.61639   0.70429   0.00000  Uiso   1.00
N1526  N     0.37602   0.41327   0.75184   0.00000  Uiso   1.00
N1527  N     0.62417   0.58511   0.73889   0.00000  Uiso   1.00
N1528  N     0.62398   0.41327   0.74815   0.00000  Uiso   1.00
O1529  O     0.43988   0.53958   0.74999   0.00000  Uiso   1.00
O1530  O     0.49391   0.41213   0.88250   0.00000  Uiso   1.00
O1531  O     0.48801   0.58240   0.88925   0.00000  Uiso   1.00
O1532  O     0.50609   0.41213   0.61750   0.00000  Uiso   1.00
O1533  O     0.56012   0.46042   0.75001   0.00000  Uiso   1.00
O1534  O     0.56012   0.53958   0.75001   0.00000  Uiso   1.00
O1535  O     0.43988   0.46042   0.74999   0.00000  Uiso   1.00
O1536  O     0.50000   0.53959   0.68573   0.00000  Uiso   1.00
O1537  O     0.50000   0.46041   0.81427   0.00000  Uiso   1.00
O1538  O     0.50000   0.53959   0.81427   0.00000  Uiso   1.00
O1539  O     0.50000   0.46041   0.68573   0.00000  Uiso   1.00
O1540  O     0.51199   0.58240   0.61075   0.00000  Uiso   1.00
C1541  C     0.75416   0.49992   0.75096   0.00000  Uiso   1.00
C1542  C     0.97871   0.54190   0.74726   0.00000  Uiso   1.00
C1543  C     0.97870   0.45689   0.74933   0.00000  Uiso   1.00
C1544  C     0.68796   0.54190   0.75274   0.00000  Uiso   1.00
C1545  C     0.84510   0.53463   0.54702   0.00000  Uiso   1.00
C1546  C     0.83387   0.45235   0.95076   0.00000  Uiso   1.00
C1547  C     0.82157   0.53463   0.95298   0.00000  Uiso   1.00
C1548  C     0.83280   0.45235   0.54924   0.00000  Uiso   1.00
C1549  C     0.84129   0.53871   0.59178   0.00000  Uiso   1.00
C1550  C     0.82937   0.45405   0.90496   0.00000  Uiso   1.00
C1551  C     0.82538   0.53871   0.90822   0.00000  Uiso   1.00
C1552  C     0.91251   0.49992   0.74904   0.00000  Uiso   1.00
C1553  C     0.83729   0.45405   0.59504   0.00000  Uiso   1.00
C1554  C     0.83754   0.49789   0.61695   0.00000  Uiso   1.00
C1555  C     0.82912   0.49789   0.88305   0.00000  Uiso   1.00
C1556  C     0.83603   0.49291   0.52445   0.00000  Uiso   1.00
C1557  C     0.83063   0.49291   0.97555   0.00000  Uiso   1.00
C1558  C     0.95715   0.49955   0.74817   0.00000  Uiso   1.00
C1559  C     0.70951   0.49955   0.75183   0.00000  Uiso   1.00
C1560  C     0.80817   0.60746   0.60284   0.00000  Uiso   1.00
C1561  C     0.80241   0.63062   0.55723   0.00000  Uiso   1.00
C1562  C     0.76966   0.33496   0.55520   0.00000  Uiso   1.00
C1563  C     0.83460   0.49976   0.66506   0.00000  Uiso   1.00
C1564  C     0.78626   0.40281   0.86609   0.00000  Uiso   1.00
C1565  C     0.76566   0.37122   0.89760   0.00000  Uiso   1.00
C1566  C     0.72182   0.36023   0.87985   0.00000  Uiso   1.00
C1567  C     0.85849   0.60746   0.89716   0.00000  Uiso   1.00
C1568  C     0.86426   0.63062   0.94277   0.00000  Uiso   1.00
C1569  C     0.89701   0.33497   0.94480   0.00000  Uiso   1.00
C1570  C     0.88041   0.40281   0.63391   0.00000  Uiso   1.00
C1571  C     0.90101   0.37123   0.60240   0.00000  Uiso   1.00
C1572  C     0.94485   0.36024   0.62014   0.00000  Uiso   1.00
C1573  C     0.83207   0.49976   0.83494   0.00000  Uiso   1.00
C1574  C     0.80476   0.35763   0.72335   0.00000  Uiso   1.00
C1575  C     0.86345   0.64153   0.77406   0.00000  Uiso   1.00
C1576  C     0.86191   0.35763   0.77665   0.00000  Uiso   1.00
C1577  C     0.80322   0.64153   0.72594   0.00000  Uiso   1.00
C1578  C     0.68797   0.45689   0.75066   0.00000  Uiso   1.00
Cu1579 Cu    0.83333   0.54689   0.75000   0.00000  Uiso   1.00
Cu1580 Cu    0.83333   0.45311   0.75000   0.00000  Uiso   1.00
H1581  H     0.85394   0.56520   0.52988   0.00000  Uiso   1.00
H1582  H     0.88491   0.36880   0.83928   0.00000  Uiso   1.00
H1583  H     0.77970   0.59462   0.68079   0.00000  Uiso   1.00
H1584  H     0.74708   0.63778   0.68827   0.00000  Uiso   1.00
H1585  H     0.80931   0.63551   0.62778   0.00000  Uiso   1.00
H1586  H     0.78112   0.58535   0.60746   0.00000  Uiso   1.00
H1587  H     0.83143   0.64615   0.54872   0.00000  Uiso   1.00
H1588  H     0.79221   0.60426   0.53209   0.00000  Uiso   1.00
H1589  H     0.74012   0.65328   0.56288   0.00000  Uiso   1.00
H1590  H     0.76570   0.35011   0.52163   0.00000  Uiso   1.00
H1591  H     0.77855   0.36320   0.57890   0.00000  Uiso   1.00
H1592  H     0.83897   0.41877   0.96610   0.00000  Uiso   1.00
H1593  H     0.78683   0.38426   0.83426   0.00000  Uiso   1.00
H1594  H     0.76755   0.43480   0.85888   0.00000  Uiso   1.00
H1595  H     0.78281   0.33811   0.90177   0.00000  Uiso   1.00
H1596  H     0.76566   0.38836   0.93017   0.00000  Uiso   1.00
H1597  H     0.70372   0.39276   0.87525   0.00000  Uiso   1.00
H1598  H     0.70762   0.33762   0.90355   0.00000  Uiso   1.00
H1599  H     0.72122   0.34163   0.84794   0.00000  Uiso   1.00
H1600  H     0.85736   0.63551   0.87222   0.00000  Uiso   1.00
H1601  H     0.88555   0.58535   0.89254   0.00000  Uiso   1.00
H1602  H     0.83524   0.64615   0.95128   0.00000  Uiso   1.00
H1603  H     0.81273   0.56520   0.97012   0.00000  Uiso   1.00
H1604  H     0.87445   0.60426   0.96791   0.00000  Uiso   1.00
H1605  H     0.92654   0.65328   0.93712   0.00000  Uiso   1.00
H1606  H     0.90096   0.35011   0.97838   0.00000  Uiso   1.00
H1607  H     0.88811   0.36320   0.92110   0.00000  Uiso   1.00
H1608  H     0.87983   0.38425   0.66574   0.00000  Uiso   1.00
H1609  H     0.89912   0.43480   0.64113   0.00000  Uiso   1.00
H1610  H     0.88386   0.33811   0.59822   0.00000  Uiso   1.00
H1611  H     0.90101   0.38837   0.56983   0.00000  Uiso   1.00
H1612  H     0.96295   0.39277   0.62476   0.00000  Uiso   1.00
H1613  H     0.95905   0.33763   0.59644   0.00000  Uiso   1.00
H1614  H     0.82769   0.41877   0.53390   0.00000  Uiso   1.00
H1615  H     0.94545   0.34163   0.65205   0.00000  Uiso   1.00
H1616  H     0.69938   0.39378   0.72400   0.00000  Uiso   1.00
H1617  H     0.70355   0.39493   0.78006   0.00000  Uiso   1.00
H1618  H     0.96512   0.59845   0.70895   0.00000  Uiso   1.00
H1619  H     0.96687   0.60883   0.76370   0.00000  Uiso   1.00
H1620  H     0.96729   0.39378   0.77599   0.00000  Uiso   1.00
H1621  H     0.96311   0.39493   0.71993   0.00000  Uiso   1.00
H1622  H     0.70154   0.59844   0.79106   0.00000  Uiso   1.00
H1623  H     0.69980   0.60883   0.73631   0.00000  Uiso   1.00
H1624  H     0.77861   0.41539   0.69125   0.00000  Uiso   1.00
H1625  H     0.78176   0.36880   0.66072   0.00000  Uiso   1.00
H1626  H     0.88697   0.59462   0.81921   0.00000  Uiso   1.00
H1627  H     0.91958   0.63778   0.81173   0.00000  Uiso   1.00
H1628  H     0.88805   0.41539   0.80875   0.00000  Uiso   1.00
N1629  N     0.83333   0.61736   0.75000   0.00000  Uiso   1.00
N1630  N     0.70916   0.58511   0.76111   0.00000  Uiso   1.00
N1631  N     0.83333   0.38264   0.75000   0.00000  Uiso   1.00
N1632  N     0.77573   0.37986   0.69197   0.00000  Uiso   1.00
N1633  N     0.89730   0.61639   0.79571   0.00000  Uiso   1.00
N1634  N     0.89094   0.37986   0.80803   0.00000  Uiso   1.00
N1635  N     0.76936   0.61639   0.70429   0.00000  Uiso   1.00
N1636  N     0.70936   0.41327   0.75184   0.00000  Uiso   1.00
N1637  N     0.95751   0.58511   0.73889   0.00000  Uiso   1.00
N1638  N     0.95731   0.41327   0.74815   0.00000  Uiso   1.00
O1639  O     0.77321   0.53958   0.74999   0.00000  Uiso   1.00
O1640  O     0.82724   0.41213   0.88250   0.00000  Uiso   1.00
O1641  O     0.82134   0.58240   0.88925   0.00000  Uiso   1.00
O1642  O     0.83943   0.41213   0.61750   0.00000  Uiso   1.00
O1643  O     0.89345   0.46042   0.75001   0.00000  Uiso   1.00
O1644  O     0.89345   0.53958   0.75001   0.00000  Uiso   1.00
O1645  O     0.77321   0.46042   0.74999   0.00000  Uiso   1.00
O1646  O     0.83333   0.53959   0.68573   0.00000  Uiso   1.00
O1647  O     0.83334   0.46041   0.81427   0.00000  Uiso   1.00
O1648  O     0.83334   0.53959   0.81427   0.00000  Uiso   1.00
O1649  O     0.83333   0.46041   0.68573   0.00000  Uiso   1.00
O1650  O     0.84532   0.58240   0.61075   0.00000  Uiso   1.00
C1651  C     0.08749   0.83325   0.75096   0.00000  Uiso   1.00
C1652  C     0.31204   0.87524   0.74726   0.00000  Uiso   1.00
C1653  C     0.31203   0.79022   0.74933   0.00000  Uiso   1.00
C1654  C     0.02129   0.87524   0.75274   0.00000  Uiso   1.00
C1655  C     0.17843   0.86796   0.54702   0.00000  Uiso   1.00
C1656  C     0.16720   0.78568   0.95076   0.00000  Uiso   1.00
C1657  C     0.15491   0.86796   0.95298   0.00000  Uiso   1.00
C1658  C     0.16613   0.78568   0.54924   0.00000  Uiso   1.00
C1659  C     0.17462   0.87204   0.59178   0.00000  Uiso   1.00
C1660  C     0.16271   0.78738   0.90496   0.00000  Uiso   1.00
C1661  C     0.15871   0.87204   0.90822   0.00000  Uiso   1.00
C1662  C     0.24584   0.83325   0.74904   0.00000  Uiso   1.00
C1663  C     0.17063   0.78738   0.59504   0.00000  Uiso   1.00
C1664  C     0.17088   0.83122   0.61695   0.00000  Uiso   1.00
C1665  C     0.16246   0.83122   0.88305   0.00000  Uiso   1.00
C1666  C     0.16936   0.82624   0.52445   0.00000  Uiso   1.00
C1667  C     0.16397   0.82624   0.97555   0.00000  Uiso   1.00
C1668  C     0.29049   0.83288   0.74817   0.00000  Uiso   1.00
C1669  C     0.04285   0.83288   0.75183   0.00000  Uiso   1.00
C1670  C     0.14151   0.94079   0.60284   0.00000  Uiso   1.00
C1671  C     0.13574   0.96395   0.55723   0.00000  Uiso   1.00
C1672  C     0.10299   0.66830   0.55520   0.00000  Uiso   1.00
C1673  C     0.16793   0.83310   0.66506   0.00000  Uiso   1.00
C1674  C     0.11959   0.73614   0.86609   0.00000  Uiso   1.00
C1675  C     0.09899   0.70456   0.89760   0.00000  Uiso   1.00
C1676  C     0.05515   0.69357   0.87985   0.00000  Uiso   1.00
C1677  C     0.19183   0.94079   0.89716   0.00000  Uiso   1.00
C1678  C     0.19759   0.96396   0.94277   0.00000  Uiso   1.00
C1679  C     0.23034   0.66830   0.94480   0.00000  Uiso   1.00
C1680  C     0.21374   0.73614   0.63391   0.00000  Uiso   1.00
C1681  C     0.23434   0.70456   0.60240   0.00000  Uiso   1.00
C1682  C     0.27818   0.69357   0.62014   0.00000  Uiso   1.00
C1683  C     0.16540   0.83310   0.83494   0.00000  Uiso   1.00
C1684  C     0.13809   0.69096   0.72335   0.00000  Uiso   1.00
C1685  C     0.19678   0.97486   0.77406   0.00000  Uiso   1.00
C1686  C     0.19524   0.69096   0.77665   0.00000  Uiso   1.00
C1687  C     0.13655   0.97486   0.72594   0.00000  Uiso   1.00
C1688  C     0.02130   0.79023   0.75066   0.00000  Uiso   1.00
Cu1689 Cu    0.16667   0.88022   0.75000   0.00000  Uiso   1.00
Cu1690 Cu    0.16667   0.78645   0.75000   0.00000  Uiso   1.00
H1691  H     0.18728   0.89853   0.52988   0.00000  Uiso   1.00
H1692  H     0.21824   0.70213   0.83928   0.00000  Uiso   1.00
H1693  H     0.11303   0.92796   0.68079   0.00000  Uiso   1.00
H1694  H     0.08042   0.97111   0.68827   0.00000  Uiso   1.00
H1695  H     0.14264   0.96884   0.62778   0.00000  Uiso   1.00
H1696  H     0.11445   0.91868   0.60746   0.00000  Uiso   1.00
H1697  H     0.16476   0.97948   0.54872   0.00000  Uiso   1.00
H1698  H     0.12554   0.93759   0.53209   0.00000  Uiso   1.00
H1699  H     0.07346   0.98661   0.56288   0.00000  Uiso   1.00
H1700  H     0.09904   0.68344   0.52163   0.00000  Uiso   1.00
H1701  H     0.11189   0.69653   0.57890   0.00000  Uiso   1.00
H1702  H     0.17231   0.75210   0.96610   0.00000  Uiso   1.00
H1703  H     0.12016   0.71759   0.83426   0.00000  Uiso   1.00
H1704  H     0.10088   0.76814   0.85888   0.00000  Uiso   1.00
H1705  H     0.11614   0.67144   0.90177   0.00000  Uiso   1.00
H1706  H     0.09899   0.72169   0.93017   0.00000  Uiso   1.00
H1707  H     0.03705   0.72610   0.87525   0.00000  Uiso   1.00
H1708  H     0.04095   0.67096   0.90355   0.00000  Uiso   1.00
H1709  H     0.05455   0.67497   0.84794   0.00000  Uiso   1.00
H1710  H     0.19069   0.96884   0.87222   0.00000  Uiso   1.00
H1711  H     0.21888   0.91869   0.89254   0.00000  Uiso   1.00
H1712  H     0.16857   0.97948   0.95128   0.00000  Uiso   1.00
H1713  H     0.14606   0.89853   0.97012   0.00000  Uiso   1.00
H1714  H     0.20779   0.93760   0.96791   0.00000  Uiso   1.00
H1715  H     0.25987   0.98661   0.93712   0.00000  Uiso   1.00
H1716  H     0.23429   0.68344   0.97838   0.00000  Uiso   1.00
H1717  H     0.22145   0.69654   0.92110   0.00000  Uiso   1.00
H1718  H     0.21316   0.71758   0.66574   0.00000  Uiso   1.00
H1719  H     0.23245   0.76814   0.64113   0.00000  Uiso   1.00
H1720  H     0.21719   0.67145   0.59822   0.00000  Uiso   1.00
H1721  H     0.23434   0.72170   0.56983   0.00000  Uiso   1.00
H1722  H     0.29628   0.72610   0.62476   0.00000  Uiso   1.00
H1723  H     0.29238   0.67096   0.59644   0.00000  Uiso   1.00
H1724  H     0.16102   0.75210   0.53390   0.00000  Uiso   1.00
H1725  H     0.27878   0.67496   0.65205   0.00000  Uiso   1.00
H1726  H     0.03271   0.72711   0.72400   0.00000  Uiso   1.00
H1727  H     0.03688   0.72826   0.78006   0.00000  Uiso   1.00
H1728  H     0.29846   0.93178   0.70895   0.00000  Uiso   1.00
H1729  H     0.30020   0.94216   0.76370   0.00000  Uiso   1.00
H1730  H     0.30062   0.72711   0.77599   0.00000  Uiso   1.00
H1731  H     0.29645   0.72826   0.71993   0.00000  Uiso   1.00
H1732  H     0.03488   0.93178   0.79106   0.00000  Uiso   1.00
H1733  H     0.03313   0.94216   0.73631   0.00000  Uiso   1.00
H1734  H     0.11195   0.74872   0.69125   0.00000  Uiso   1.00
H1735  H     0.11509   0.70213   0.66072   0.00000  Uiso   1.00
H1736  H     0.22030   0.92796   0.81921   0.00000  Uiso   1.00
H1737  H     0.25292   0.97112   0.81173   0.00000  Uiso   1.00
H1738  H     0.22139   0.74872   0.80875   0.00000  Uiso   1.00
N1739  N     0.16667   0.95069   0.75000   0.00000  Uiso   1.00
N1740  N     0.04249   0.91844   0.76111   0.00000  Uiso   1.00
N1741  N     0.16667   0.71598   0.75000   0.00000  Uiso   1.00
N1742  N     0.10906   0.71319   0.69197   0.00000  Uiso   1.00
N1743  N     0.23064   0.94972   0.79571   0.00000  Uiso   1.00
N1744  N     0.22427   0.71319   0.80803   0.00000  Uiso   1.00
N1745  N     0.10270   0.94972   0.70429   0.00000  Uiso   1.00
N1746  N     0.04269   0.74660   0.75184   0.00000  Uiso   1.00
N1747  N     0.29084   0.91844   0.73889   0.00000  Uiso   1.00
N1748  N     0.29064   0.74660   0.74815   0.00000  Uiso   1.00
O1749  O     0.10655   0.87291   0.74999   0.00000  Uiso   1.00
O1750  O     0.16057   0.74547   0.88250   0.00000  Uiso   1.00
O1751  O     0.15468   0.91574   0.88925   0.00000  Uiso   1.00
O1752  O     0.17276   0.74547   0.61750   0.00000  Uiso   1.00
O1753  O     0.22679   0.79375   0.75001   0.00000  Uiso   1.00
O1754  O     0.22679   0.87291   0.75001   0.00000  Uiso   1.00
O1755  O     0.10655   0.79375   0.74999   0.00000  Uiso   1.00
O1756  O     0.16666   0.87293   0.68573   0.00000  Uiso   1.00
O1757  O     0.16667   0.79374   0.81427   0.00000  Uiso   1.00
O1758  O     0.16667   0.87293   0.81427   0.00000  Uiso   1.00
O1759  O     0.16666   0.79374   0.68573   0.00000  Uiso   1.00
O1760  O     0.17866   0.91574   0.61075   0.00000  Uiso   1.00
C1761  C     0.42082   0.83325   0.75096   0.00000  Uiso   1.00
C1762  C     0.64538   0.87524   0.74726   0.00000  Uiso   1.00
C1763  C     0.64536   0.79022   0.74933   0.00000  Uiso   1.00
C1764  C     0.35462   0.87524   0.75274   0.00000  Uiso   1.00
C1765  C     0.51176   0.86796   0.54702   0.00000  Uiso   1.00
C1766  C     0.50053   0.78568   0.95076   0.00000  Uiso   1.00
C1767  C     0.48824   0.86796   0.95298   0.00000  Uiso   1.00
C1768  C     0.49947   0.78568   0.54924   0.00000  Uiso   1.00
C1769  C     0.50795   0.87204   0.59178   0.00000  Uiso   1.00
C1770  C     0.49604   0.78738   0.90496   0.00000  Uiso   1.00
C1771  C     0.49205   0.87204   0.90822   0.00000  Uiso   1.00
C1772  C     0.57918   0.83325   0.74904   0.00000  Uiso   1.00
C1773  C     0.50396   0.78738   0.59504   0.00000  Uiso   1.00
C1774  C     0.50421   0.83122   0.61695   0.00000  Uiso   1.00
C1775  C     0.49579   0.83122   0.88305   0.00000  Uiso   1.00
C1776  C     0.50270   0.82624   0.52445   0.00000  Uiso   1.00
C1777  C     0.49730   0.82624   0.97555   0.00000  Uiso   1.00
C1778  C     0.62382   0.83288   0.74817   0.00000  Uiso   1.00
C1779  C     0.37618   0.83288   0.75183   0.00000  Uiso   1.00
C1780  C     0.47484   0.94079   0.60284   0.00000  Uiso   1.00
C1781  C     0.46907   0.96395   0.55723   0.00000  Uiso   1.00
C1782  C     0.43632   0.66830   0.55520   0.00000  Uiso   1.00
C1783  C     0.50126   0.83310   0.66506   0.00000  Uiso   1.00
C1784  C     0.45292   0.73614   0.86609   0.00000  Uiso   1.00
C1785  C     0.43233   0.70456   0.89760   0.00000  Uiso   1.00
C1786  C     0.38849   0.69357   0.87985   0.00000  Uiso   1.00
C1787  C     0.52516   0.94079   0.89716   0.00000  Uiso   1.00
C1788  C     0.53092   0.96396   0.94277   0.00000  Uiso   1.00
C1789  C     0.56368   0.66830   0.94480   0.00000  Uiso   1.00
C1790  C     0.54708   0.73614   0.63391   0.00000  Uiso   1.00
C1791  C     0.56767   0.70456   0.60240   0.00000  Uiso   1.00
C1792  C     0.61151   0.69357   0.62014   0.00000  Uiso   1.00
C1793  C     0.49874   0.83310   0.83494   0.00000  Uiso   1.00
C1794  C     0.47142   0.69096   0.72335   0.00000  Uiso   1.00
C1795  C     0.53012   0.97486   0.77406   0.00000  Uiso   1.00
C1796  C     0.52857   0.69096   0.77665   0.00000  Uiso   1.00
C1797  C     0.46988   0.97486   0.72594   0.00000  Uiso   1.00
C1798  C     0.35463   0.79023   0.75066   0.00000  Uiso   1.00
Cu1799 Cu    0.50000   0.88022   0.75000   0.00000  Uiso   1.00
Cu1800 Cu    0.50000   0.78645   0.75000   0.00000  Uiso   1.00
H1801  H     0.52061   0.89853   0.52988   0.00000  Uiso   1.00
H1802  H     0.55158   0.70213   0.83928   0.00000  Uiso   1.00
H1803  H     0.44637   0.92796   0.68079   0.00000  Uiso   1.00
H1804  H     0.41375   0.97111   0.68827   0.00000  Uiso   1.00
H1805  H     0.47597   0.96884   0.62778   0.00000  Uiso   1.00
H1806  H     0.44779   0.91868   0.60746   0.00000  Uiso   1.00
H1807  H     0.49809   0.97948   0.54872   0.00000  Uiso   1.00
H1808  H     0.45888   0.93759   0.53209   0.00000  Uiso   1.00
H1809  H     0.40679   0.98661   0.56288   0.00000  Uiso   1.00
H1810  H     0.43237   0.68344   0.52163   0.00000  Uiso   1.00
H1811  H     0.44522   0.69653   0.57890   0.00000  Uiso   1.00
H1812  H     0.50564   0.75210   0.96610   0.00000  Uiso   1.00
H1813  H     0.45350   0.71759   0.83426   0.00000  Uiso   1.00
H1814  H     0.43421   0.76814   0.85888   0.00000  Uiso   1.00
H1815  H     0.44947   0.67144   0.90177   0.00000  Uiso   1.00
H1816  H     0.43233   0.72169   0.93017   0.00000  Uiso   1.00
H1817  H     0.37039   0.72610   0.87525   0.00000  Uiso   1.00
H1818  H     0.37428   0.67096   0.90355   0.00000  Uiso   1.00
H1819  H     0.38788   0.67497   0.84794   0.00000  Uiso   1.00
H1820  H     0.52403   0.96884   0.87222   0.00000  Uiso   1.00
H1821  H     0.55221   0.91869   0.89254   0.00000  Uiso   1.00
H1822  H     0.50190   0.97948   0.95128   0.00000  Uiso   1.00
H1823  H     0.47939   0.89853   0.97012   0.00000  Uiso   1.00
H1824  H     0.54112   0.93760   0.96791   0.00000  Uiso   1.00
H1825  H     0.59321   0.98661   0.93712   0.00000  Uiso   1.00
H1826  H     0.56762   0.68344   0.97838   0.00000  Uiso   1.00
H1827  H     0.55478   0.69654   0.92110   0.00000  Uiso   1.00
H1828  H     0.54650   0.71758   0.66574   0.00000  Uiso   1.00
H1829  H     0.56578   0.76814   0.64113   0.00000  Uiso   1.00
H1830  H     0.55053   0.67145   0.59822   0.00000  Uiso   1.00
H1831  H     0.56767   0.72170   0.56983   0.00000  Uiso   1.00
H1832  H     0.62961   0.72610   0.62476   0.00000  Uiso   1.00
H1833  H     0.62572   0.67096   0.59644   0.00000  Uiso   1.00
H1834  H     0.49436   0.75210   0.53390   0.00000  Uiso   1.00
H1835  H     0.61211   0.67496   0.65205   0.00000  Uiso   1.00
H1836  H     0.36604   0.72711   0.72400   0.00000  Uiso   1.00
H1837  H     0.37022   0.72826   0.78006   0.00000  Uiso   1.00
H1838  H     0.63179   0.93178   0.70895   0.00000  Uiso   1.00
H1839  H     0.63353   0.94216   0.76370   0.00000  Uiso   1.00
H1840  H     0.63396   0.72711   0.77599   0.00000  Uiso   1.00
H1841  H     0.62978   0.72826   0.71993   0.00000  Uiso   1.00
H1842  H     0.36821   0.93178   0.79106   0.00000  Uiso   1.00
H1843  H     0.36647   0.94216   0.73631   0.00000  Uiso   1.00
H1844  H     0.44528   0.74872   0.69125   0.00000  Uiso   1.00
H1845  H     0.44842   0.70213   0.66072   0.00000  Uiso   1.00
H1846  H     0.55363   0.92796   0.81921   0.00000  Uiso   1.00
H1847  H     0.58625   0.97112   0.81173   0.00000  Uiso   1.00
H1848  H     0.55472   0.74872   0.80875   0.00000  Uiso   1.00
N1849  N     0.50000   0.95069   0.75000   0.00000  Uiso   1.00
N1850  N     0.37583   0.91844   0.76111   0.00000  Uiso   1.00
N1851  N     0.50000   0.71598   0.75000   0.00000  Uiso   1.00
N1852  N     0.44240   0.71319   0.69197   0.00000  Uiso   1.00
N1853  N     0.56397   0.94972   0.79571   0.00000  Uiso   1.00
N1854  N     0.55760   0.71319   0.80803   0.00000  Uiso   1.00
N1855  N     0.43603   0.94972   0.70429   0.00000  Uiso   1.00
N1856  N     0.37602   0.74660   0.75184   0.00000  Uiso   1.00
N1857  N     0.62417   0.91844   0.73889   0.00000  Uiso   1.00
N1858  N     0.62398   0.74660   0.74815   0.00000  Uiso   1.00
O1859  O     0.43988   0.87291   0.74999   0.00000  Uiso   1.00
O1860  O     0.49391   0.74547   0.88250   0.00000  Uiso   1.00
O1861  O     0.48801   0.91574   0.88925   0.00000  Uiso   1.00
O1862  O     0.50609   0.74547   0.61750   0.00000  Uiso   1.00
O1863  O     0.56012   0.79375   0.75001   0.00000  Uiso   1.00
O1864  O     0.56012   0.87291   0.75001   0.00000  Uiso   1.00
O1865  O     0.43988   0.79375   0.74999   0.00000  Uiso   1.00
O1866  O     0.50000   0.87293   0.68573   0.00000  Uiso   1.00
O1867  O     0.50000   0.79374   0.81427   0.00000  Uiso   1.00
O1868  O     0.50000   0.87293   0.81427   0.00000  Uiso   1.00
O1869  O     0.50000   0.79374   0.68573   0.00000  Uiso   1.00
O1870  O     0.51199   0.91574   0.61075   0.00000  Uiso   1.00
C1871  C     0.75416   0.83325   0.75096   0.00000  Uiso   1.00
C1872  C     0.97871   0.87524   0.74726   0.00000  Uiso   1.00
C1873  C     0.97870   0.79022   0.74933   0.00000  Uiso   1.00
C1874  C     0.68796   0.87524   0.75274   0.00000  Uiso   1.00
C1875  C     0.84510   0.86796   0.54702   0.00000  Uiso   1.00
C1876  C     0.83387   0.78568   0.95076   0.00000  Uiso   1.00
C1877  C     0.82157   0.86796   0.95298   0.00000  Uiso   1.00
C1878  C     0.83280   0.78568   0.54924   0.00000  Uiso   1.00
C1879  C     0.84129   0.87204   0.59178   0.00000  Uiso   1.00
C1880  C     0.82937   0.78738   0.90496   0.00000  Uiso   1.00
C1881  C     0.82538   0.87204   0.90822   0.00000  Uiso   1.00
C1882  C     0.91251   0.83325   0.74904   0.00000  Uiso   1.00
C1883  C     0.83729   0.78738   0.59504   0.00000  Uiso   1.00
C1884  C     0.83754   0.83122   0.61695   0.00000  Uiso   1.00
C1885  C     0.82912   0.83122   0.88305   0.00000  Uiso   1.00
C1886  C     0.83603   0.82624   0.52445   0.00000  Uiso   1.00
C1887  C     0.83063   0.82624   0.97555   0.00000  Uiso   1.00
C1888  C     0.95715   0.83288   0.74817   0.00000  Uiso   1.00
C1889  C     0.70951   0.83288   0.75183   0.00000  Uiso   1.00
C1890  C     0.80817   0.94079   0.60284   0.00000  Uiso   1.00
C1891  C     0.80241   0.96395   0.55723   0.00000  Uiso   1.00
C1892  C     0.76966   0.66830   0.55520   0.00000  Uiso   1.00
C1893  C     0.83460   0.83310   0.66506   0.00000  Uiso   1.00
C1894  C     0.78626   0.73614   0.86609   0.00000  Uiso   1.00
C1895  C     0.76566   0.70456   0.89760   0.00000  Uiso   1.00
C1896  C     0.72182   0.69357   0.87985   0.00000  Uiso   1.00
C1897  C     0.85849   0.94079   0.89716   0.00000  Uiso   1.00
C1898  C     0.86426   0.96396   0.94277   0.00000  Uiso   1.00
C1899  C     0.89701   0.66830   0.94480   0.00000  Uiso   1.00
C1900  C     0.88041   0.73614   0.63391   0.00000  Uiso   1.00
C1901  C     0.90101   0.70456   0.60240   0.00000  Uiso   1.00
C1902  C     0.94485   0.69357   0.62014   0.00000  Uiso   1.00
C1903  C     0.83207   0.83310   0.83494   0.00000  Uiso   1.00
C1904  C     0.80476   0.69096   0.72335   0.00000  Uiso   1.00
C1905  C     0.86345   0.97486   0.77406   0.00000  Uiso   1.00
C1906  C     0.86191   0.69096   0.77665   0.00000  Uiso   1.00
C1907  C     0.80322   0.97486   0.72594   0.00000  Uiso   1.00
C1908  C     0.68797   0.79023   0.75066   0.00000  Uiso   1.00
Cu1909 Cu    0.83333   0.88022   0.75000   0.00000  Uiso   1.00
Cu1910 Cu    0.83333   0.78645   0.75000   0.00000  Uiso   1.00
H1911  H     0.85394   0.89853   0.52988   0.00000  Uiso   1.00
H1912  H     0.88491   0.70213   0.83928   0.00000  Uiso   1.00
H1913  H     0.77970   0.92796   0.68079   0.00000  Uiso   1.00
H1914  H     0.74708   0.97111   0.68827   0.00000  Uiso   1.00
H1915  H     0.80931   0.96884   0.62778   0.00000  Uiso   1.00
H1916  H     0.78112   0.91868   0.60746   0.00000  Uiso   1.00
H1917  H     0.83143   0.97948   0.54872   0.00000  Uiso   1.00
H1918  H     0.79221   0.93759   0.53209   0.00000  Uiso   1.00
H1919  H     0.74012   0.98661   0.56288   0.00000  Uiso   1.00
H1920  H     0.76570   0.68344   0.52163   0.00000  Uiso   1.00
H1921  H     0.77855   0.69653   0.57890   0.00000  Uiso   1.00
H1922  H     0.83897   0.75210   0.96610   0.00000  Uiso   1.00
H1923  H     0.78683   0.71759   0.83426   0.00000  Uiso   1.00
H1924  H     0.76755   0.76814   0.85888   0.00000  Uiso   1.00
H1925  H     0.78281   0.67144   0.90177   0.00000  Uiso   1.00
H1926  H     0.76566   0.72169   0.93017   0.00000  Uiso   1.00
H1927  H     0.70372   0.72610   0.87525   0.00000  Uiso   1.00
H1928  H     0.70762   0.67096   0.90355   0.00000  Uiso   1.00
H1929  H     0.72122   0.67497   0.84794   0.00000  Uiso   1.00
H1930  H     0.85736   0.96884   0.87222   0.00000  Uiso   1.00
H1931  H     0.88555   0.91869   0.89254   0.00000  Uiso   1.00
H1932  H     0.83524   0.97948   0.95128   0.00000  Uiso   1.00
H1933  H     0.81273   0.89853   0.97012   0.00000  Uiso   1.00
H1934  H     0.87445   0.93760   0.96791   0.00000  Uiso   1.00
H1935  H     0.92654   0.98661   0.93712   0.00000  Uiso   1.00
H1936  H     0.90096   0.68344   0.97838   0.00000  Uiso   1.00
H1937  H     0.88811   0.69654   0.92110   0.00000  Uiso   1.00
H1938  H     0.87983   0.71758   0.66574   0.00000  Uiso   1.00
H1939  H     0.89912   0.76814   0.64113   0.00000  Uiso   1.00
H1940  H     0.88386   0.67145   0.59822   0.00000  Uiso   1.00
H1941  H     0.90101   0.72170   0.56983   0.00000  Uiso   1.00
H1942  H     0.96295   0.72610   0.62476   0.00000  Uiso   1.00
H1943  H     0.95905   0.67096   0.59644   0.00000  Uiso   1.00
H1944  H     0.82769   0.75210   0.53390   0.00000  Uiso   1.00
H1945  H     0.94545   0.67496   0.65205   0.00000  Uiso   1.00
H1946  H     0.69938   0.72711   0.72400   0.00000  Uiso   1.00
H1947  H     0.70355   0.72826   0.78006   0.00000  Uiso   1.00
H1948  H     0.96512   0.93178   0.70895   0.00000  Uiso   1.00
H1949  H     0.96687   0.94216   0.76370   0.00000  Uiso   1.00
H1950  H     0.96729   0.72711   0.77599   0.00000  Uiso   1.00
H1951  H     0.96311   0.72826   0.71993   0.00000  Uiso   1.00
H1952  H     0.70154   0.93178   0.79106   0.00000  Uiso   1.00
H1953  H     0.69980   0.94216   0.73631   0.00000  Uiso   1.00
H1954  H     0.77861   0.74872   0.69125   0.00000  Uiso   1.00
H1955  H     0.78176   0.70213   0.66072   0.00000  Uiso   1.00
H1956  H     0.88697   0.92796   0.81921   0.00000  Uiso   1.00
H1957  H     0.91958   0.97112   0.81173   0.00000  Uiso   1.00
H1958  H     0.88805   0.74872   0.80875   0.00000  Uiso   1.00
N1959  N     0.83333   0.95069   0.75000   0.00000  Uiso   1.00
N1960  N     0.70916   0.91844   0.76111   0.00000  Uiso   1.00
N1961  N     0.83333   0.71598   0.75000   0.00000  Uiso   1.00
N1962  N     0.77573   0.71319   0.69197   0.00000  Uiso   1.00
N1963  N     0.89730   0.94972   0.79571   0.00000  Uiso   1.00
N1964  N     0.89094   0.71319   0.80803   0.00000  Uiso   1.00
N1965  N     0.76936   0.94972   0.70429   0.00000  Uiso   1.00
N1966  N     0.70936   0.74660   0.75184   0.00000  Uiso   1.00
N1967  N     0.95751   0.91844   0.73889   0.00000  Uiso   1.00
N1968  N     0.95731   0.74660   0.74815   0.00000  Uiso   1.00
O1969  O     0.77321   0.87291   0.74999   0.00000  Uiso   1.00
O1970  O     0.82724   0.74547   0.88250   0.00000  Uiso   1.00
O1971  O     0.82134   0.91574   0.88925   0.00000  Uiso   1.00
O1972  O     0.83943   0.74547   0.61750   0.00000  Uiso   1.00
O1973  O     0.89345   0.79375   0.75001   0.00000  Uiso   1.00
O1974  O     0.89345   0.87291   0.75001   0.00000  Uiso   1.00
O1975  O     0.77321   0.79375   0.74999   0.00000  Uiso   1.00
O1976  O     0.83333   0.87293   0.68573   0.00000  Uiso   1.00
O1977  O     0.83334   0.79374   0.81427   0.00000  Uiso   1.00
O1978  O     0.83334   0.87293   0.81427   0.00000  Uiso   1.00
O1979  O     0.83333   0.79374   0.68573   0.00000  Uiso   1.00
O1980  O     0.84532   0.91574   0.61075   0.00000  Uiso   1.00
loop_
_geom_bond_atom_site_label_1
_geom_bond_atom_site_label_2
_geom_bond_distance
_geom_bond_site_symmetry_2
_ccdc_geom_bond_type
C1     O99     1.304   .     A
C1     C19     1.475   .     S
C1     O105    1.300   .     A
C2     C18     1.412   .     A
C2     N97     1.436   .     S
C2     C114    1.397   .     S
C3     C18     1.416   .     A
C3     N98     1.438   .     S
C3     C148    1.401   .     S
C4     C19     1.412   .     A
C4     N90     1.436   .     S
C4     C222    1.397   1_455 S
C5     C16     1.401   .     A
C5     C9      1.391   .     A
C5     H41     1.078   .     S
C6     C17     1.401   .     A
C6     C10     1.394   .     A
C6     H52     1.079   .     S
C7     C11     1.391   .     A
C7     C17     1.401   .     A
C7     H63     1.078   .     S
C8     C13     1.394   .     A
C8     C16     1.401   .     A
C8     H74     1.079   .     S
C9     C14     1.415   .     A
C9     O110    1.385   .     S
C10    C15     1.427   .     A
C10    O100    1.385   .     S
C11    C15     1.415   .     A
C11    O101    1.385   .     S
C12    O104    1.304   .     A
C12    O103    1.300   .     A
C12    C18     1.475   .     S
C13    C14     1.427   .     A
C13    O102    1.385   .     S
C14    C23     1.484   .     S
C15    C33     1.484   .     S
C16    C1007   1.488   1_554 S
C17    C1006   1.488   .     S
C19    C38     1.416   .     A
C20    H45     1.108   .     S
C20    O110    1.421   .     S
C20    C21     1.540   .     S
C20    H46     1.115   .     S
C21    H48     1.108   .     S
C21    H47     1.109   .     S
C21    C352    1.527   .     S
C22    H50     1.111   .     S
C22    H51     1.108   .     S
C22    C681    1.527   1_545 S
C22    H709    1.111   1_545 S
C23    O109    1.299   .     A
C23    O106    1.311   .     A
C24    H54     1.118   .     S
C24    O100    1.420   .     S
C24    C25     1.530   .     S
C24    H53     1.112   .     S
C25    H56     1.111   .     S
C25    C26     1.526   .     S
C25    H55     1.108   .     S
C26    H59     1.111   .     S
C26    H58     1.110   .     S
C26    H57     1.111   .     S
C27    H61     1.115   .     S
C27    O101    1.421   .     S
C27    H60     1.108   .     S
C27    C28     1.540   .     S
C28    H64     1.108   .     S
C28    H62     1.109   .     S
C28    C359    1.527   .     S
C29    H67     1.108   .     S
C29    H66     1.111   .     S
C29    C688    1.527   1_545 S
C29    H725    1.111   1_545 S
C30    C31     1.530   .     S
C30    O102    1.420   .     S
C30    H69     1.118   .     S
C30    H68     1.112   .     S
C31    H70     1.108   .     S
C31    H71     1.111   .     S
C31    C32     1.526   .     S
C32    H75     1.111   .     S
C32    H72     1.111   .     S
C32    H73     1.110   .     S
C33    O107    1.299   .     A
C33    O108    1.311   .     A
C34    N91     1.385   .     A
C34    N92     1.437   .     S
C34    C697    1.425   1_545 S
C35    N93     1.436   .     S
C35    N89     1.366   .     A
C35    C366    1.425   .     S
C36    N91     1.385   .     A
C36    N94     1.437   .     S
C36    C695    1.425   1_545 S
C37    N95     1.436   .     S
C37    N89     1.366   .     A
C37    C364    1.425   .     S
C38    N96     1.438   .     S
C38    C223    1.401   1_455 S
Cu39   O106    1.976   .     S
Cu39   O104    1.993   .     S
Cu39   O108    1.976   .     S
Cu39   O99     1.993   .     S
Cu39   Cu40    2.696   .     S
Cu39   N89     2.026   .     S
Cu40   O107    1.976   .     S
Cu40   O109    1.976   .     S
Cu40   O103    1.993   .     S
Cu40   N91     2.026   .     S
Cu40   O105    1.993   .     S
H42    N94     1.044   .     S
H43    N95     1.035   .     S
H44    N95     1.043   .     S
H49    C352    1.111   .     S
H65    C359    1.111   .     S
H76    N96     1.045   .     S
H77    N96     1.045   .     S
H78    N97     1.045   .     S
H79    N97     1.044   .     S
H80    N98     1.045   .     S
H81    N98     1.045   .     S
H82    N90     1.046   .     S
H83    N90     1.044   .     S
H84    N92     1.026   .     S
H85    N92     1.044   .     S
H86    N93     1.035   .     S
H87    N93     1.043   .     S
H88    N94     1.026   .     S
C111   O209    1.304   .     A
C111   C129    1.475   .     S
C111   O215    1.300   .     A
C112   C128    1.412   .     A
C112   N207    1.436   .     S
C112   C224    1.397   .     S
C113   C128    1.416   .     A
C113   N208    1.438   .     S
C113   C258    1.401   .     S
C114   C129    1.412   .     A
C114   N200    1.436   .     S
C115   C126    1.401   .     A
C115   C119    1.391   .     A
C115   H151    1.078   .     S
C116   C127    1.401   .     A
C116   C120    1.394   .     A
C116   H162    1.079   .     S
C117   C121    1.391   .     A
C117   C127    1.401   .     A
C117   H173    1.078   .     S
C118   C123    1.394   .     A
C118   C126    1.401   .     A
C118   H184    1.079   .     S
C119   C124    1.415   .     A
C119   O220    1.385   .     S
C120   C125    1.427   .     A
C120   O210    1.385   .     S
C121   C125    1.415   .     A
C121   O211    1.385   .     S
C122   O214    1.304   .     A
C122   O213    1.300   .     A
C122   C128    1.475   .     S
C123   C124    1.427   .     A
C123   O212    1.385   .     S
C124   C133    1.484   .     S
C125   C143    1.484   .     S
C126   C1117   1.488   1_554 S
C127   C1116   1.488   .     S
C129   C148    1.416   .     A
C130   H155    1.108   .     S
C130   O220    1.421   .     S
C130   C131    1.540   .     S
C130   H156    1.115   .     S
C131   H158    1.108   .     S
C131   H157    1.109   .     S
C131   C462    1.527   .     S
C132   H160    1.111   .     S
C132   H161    1.108   .     S
C132   C791    1.527   1_545 S
C132   H819    1.111   1_545 S
C133   O219    1.299   .     A
C133   O216    1.311   .     A
C134   H164    1.118   .     S
C134   O210    1.420   .     S
C134   C135    1.530   .     S
C134   H163    1.112   .     S
C135   H166    1.111   .     S
C135   C136    1.526   .     S
C135   H165    1.108   .     S
C136   H169    1.111   .     S
C136   H168    1.110   .     S
C136   H167    1.111   .     S
C137   H171    1.115   .     S
C137   O211    1.421   .     S
C137   H170    1.108   .     S
C137   C138    1.540   .     S
C138   H174    1.108   .     S
C138   H172    1.109   .     S
C138   C469    1.527   .     S
C139   H177    1.108   .     S
C139   H176    1.111   .     S
C139   C798    1.527   1_545 S
C139   H835    1.111   1_545 S
C140   C141    1.530   .     S
C140   O212    1.420   .     S
C140   H179    1.118   .     S
C140   H178    1.112   .     S
C141   H180    1.108   .     S
C141   H181    1.111   .     S
C141   C142    1.526   .     S
C142   H185    1.111   .     S
C142   H182    1.111   .     S
C142   H183    1.110   .     S
C143   O217    1.299   .     A
C143   O218    1.311   .     A
C144   N201    1.385   .     A
C144   N202    1.437   .     S
C144   C807    1.425   1_545 S
C145   N203    1.436   .     S
C145   N199    1.366   .     A
C145   C476    1.425   .     S
C146   N201    1.385   .     A
C146   N204    1.437   .     S
C146   C805    1.425   1_545 S
C147   N205    1.436   .     S
C147   N199    1.366   .     A
C147   C474    1.425   .     S
C148   N206    1.438   .     S
Cu149  O216    1.976   .     S
Cu149  O214    1.993   .     S
Cu149  O218    1.976   .     S
Cu149  O209    1.993   .     S
Cu149  Cu150   2.696   .     S
Cu149  N199    2.026   .     S
Cu150  O217    1.976   .     S
Cu150  O219    1.976   .     S
Cu150  O213    1.993   .     S
Cu150  N201    2.026   .     S
Cu150  O215    1.993   .     S
H152   N204    1.044   .     S
H153   N205    1.035   .     S
H154   N205    1.043   .     S
H159   C462    1.111   .     S
H175   C469    1.111   .     S
H186   N206    1.045   .     S
H187   N206    1.045   .     S
H188   N207    1.045   .     S
H189   N207    1.044   .     S
H190   N208    1.045   .     S
H191   N208    1.045   .     S
H192   N200    1.046   .     S
H193   N200    1.044   .     S
H194   N202    1.026   .     S
H195   N202    1.044   .     S
H196   N203    1.035   .     S
H197   N203    1.043   .     S
H198   N204    1.026   .     S
C221   O319    1.304   .     A
C221   C239    1.475   .     S
C221   O325    1.300   .     A
C222   C238    1.412   .     A
C222   N317    1.436   .     S
C222   C4      1.397   1_655 S
C223   C238    1.416   .     A
C223   N318    1.438   .     S
C223   C38     1.401   1_655 S
C224   C239    1.412   .     A
C224   N310    1.436   .     S
C225   C236    1.401   .     A
C225   C229    1.391   .     A
C225   H261    1.078   .     S
C226   C237    1.401   .     A
C226   C230    1.394   .     A
C226   H272    1.079   .     S
C227   C231    1.391   .     A
C227   C237    1.401   .     A
C227   H283    1.078   .     S
C228   C233    1.394   .     A
C228   C236    1.401   .     A
C228   H294    1.079   .     S
C229   C234    1.415   .     A
C229   O330    1.385   .     S
C230   C235    1.427   .     A
C230   O320    1.385   .     S
C231   C235    1.415   .     A
C231   O321    1.385   .     S
C232   O324    1.304   .     A
C232   O323    1.300   .     A
C232   C238    1.475   .     S
C233   C234    1.427   .     A
C233   O322    1.385   .     S
C234   C243    1.484   .     S
C235   C253    1.484   .     S
C236   C1227   1.488   1_554 S
C237   C1226   1.488   .     S
C239   C258    1.416   .     A
C240   H265    1.108   .     S
C240   O330    1.421   .     S
C240   C241    1.540   .     S
C240   H266    1.115   .     S
C241   H268    1.108   .     S
C241   H267    1.109   .     S
C241   C572    1.527   .     S
C242   H270    1.111   .     S
C242   H271    1.108   .     S
C242   C901    1.527   1_545 S
C242   H929    1.111   1_545 S
C243   O329    1.299   .     A
C243   O326    1.311   .     A
C244   H274    1.118   .     S
C244   O320    1.420   .     S
C244   C245    1.530   .     S
C244   H273    1.112   .     S
C245   H276    1.111   .     S
C245   C246    1.526   .     S
C245   H275    1.108   .     S
C246   H279    1.111   .     S
C246   H278    1.110   .     S
C246   H277    1.111   .     S
C247   H281    1.115   .     S
C247   O321    1.421   .     S
C247   H280    1.108   .     S
C247   C248    1.540   .     S
C248   H284    1.108   .     S
C248   H282    1.109   .     S
C248   C579    1.527   .     S
C249   H287    1.108   .     S
C249   H286    1.111   .     S
C249   C908    1.527   1_545 S
C249   H945    1.111   1_545 S
C250   C251    1.530   .     S
C250   O322    1.420   .     S
C250   H289    1.118   .     S
C250   H288    1.112   .     S
C251   H290    1.108   .     S
C251   H291    1.111   .     S
C251   C252    1.526   .     S
C252   H295    1.111   .     S
C252   H292    1.111   .     S
C252   H293    1.110   .     S
C253   O327    1.299   .     A
C253   O328    1.311   .     A
C254   N311    1.385   .     A
C254   N312    1.437   .     S
C254   C917    1.425   1_545 S
C255   N313    1.436   .     S
C255   N309    1.366   .     A
C255   C586    1.425   .     S
C256   N311    1.385   .     A
C256   N314    1.437   .     S
C256   C915    1.425   1_545 S
C257   N315    1.436   .     S
C257   N309    1.366   .     A
C257   C584    1.425   .     S
C258   N316    1.438   .     S
Cu259  O326    1.976   .     S
Cu259  O324    1.993   .     S
Cu259  O328    1.976   .     S
Cu259  O319    1.993   .     S
Cu259  Cu260   2.696   .     S
Cu259  N309    2.026   .     S
Cu260  O327    1.976   .     S
Cu260  O329    1.976   .     S
Cu260  O323    1.993   .     S
Cu260  N311    2.026   .     S
Cu260  O325    1.993   .     S
H262   N314    1.044   .     S
H263   N315    1.035   .     S
H264   N315    1.043   .     S
H269   C572    1.111   .     S
H285   C579    1.111   .     S
H296   N316    1.045   .     S
H297   N316    1.045   .     S
H298   N317    1.045   .     S
H299   N317    1.044   .     S
H300   N318    1.045   .     S
H301   N318    1.045   .     S
H302   N310    1.046   .     S
H303   N310    1.044   .     S
H304   N312    1.026   .     S
H305   N312    1.044   .     S
H306   N313    1.035   .     S
H307   N313    1.043   .     S
H308   N314    1.026   .     S
C331   O429    1.304   .     A
C331   C349    1.475   .     S
C331   O435    1.300   .     A
C332   C348    1.412   .     A
C332   N427    1.436   .     S
C332   C444    1.397   .     S
C333   C348    1.416   .     A
C333   N428    1.438   .     S
C333   C478    1.401   .     S
C334   C349    1.412   .     A
C334   N420    1.436   .     S
C334   C552    1.397   1_455 S
C335   C346    1.401   .     A
C335   C339    1.391   .     A
C335   H371    1.078   .     S
C336   C347    1.401   .     A
C336   C340    1.394   .     A
C336   H382    1.079   .     S
C337   C341    1.391   .     A
C337   C347    1.401   .     A
C337   H393    1.078   .     S
C338   C343    1.394   .     A
C338   C346    1.401   .     A
C338   H404    1.079   .     S
C339   C344    1.415   .     A
C339   O440    1.385   .     S
C340   C345    1.427   .     A
C340   O430    1.385   .     S
C341   C345    1.415   .     A
C341   O431    1.385   .     S
C342   O434    1.304   .     A
C342   O433    1.300   .     A
C342   C348    1.475   .     S
C343   C344    1.427   .     A
C343   O432    1.385   .     S
C344   C353    1.484   .     S
C345   C363    1.484   .     S
C346   C1337   1.488   1_554 S
C347   C1336   1.488   .     S
C349   C368    1.416   .     A
C350   H375    1.108   .     S
C350   O440    1.421   .     S
C350   C351    1.540   .     S
C350   H376    1.115   .     S
C351   H378    1.108   .     S
C351   H377    1.109   .     S
C351   C682    1.527   .     S
C352   H380    1.111   .     S
C352   H381    1.108   .     S
C353   O439    1.299   .     A
C353   O436    1.311   .     A
C354   H384    1.118   .     S
C354   O430    1.420   .     S
C354   C355    1.530   .     S
C354   H383    1.112   .     S
C355   H386    1.111   .     S
C355   C356    1.526   .     S
C355   H385    1.108   .     S
C356   H389    1.111   .     S
C356   H388    1.110   .     S
C356   H387    1.111   .     S
C357   H391    1.115   .     S
C357   O431    1.421   .     S
C357   H390    1.108   .     S
C357   C358    1.540   .     S
C358   H394    1.108   .     S
C358   H392    1.109   .     S
C358   C689    1.527   .     S
C359   H397    1.108   .     S
C359   H396    1.111   .     S
C360   C361    1.530   .     S
C360   O432    1.420   .     S
C360   H399    1.118   .     S
C360   H398    1.112   .     S
C361   H400    1.108   .     S
C361   H401    1.111   .     S
C361   C362    1.526   .     S
C362   H405    1.111   .     S
C362   H402    1.111   .     S
C362   H403    1.110   .     S
C363   O437    1.299   .     A
C363   O438    1.311   .     A
C364   N421    1.385   .     A
C364   N422    1.437   .     S
C365   N423    1.436   .     S
C365   N419    1.366   .     A
C365   C696    1.425   .     S
C366   N421    1.385   .     A
C366   N424    1.437   .     S
C367   N425    1.436   .     S
C367   N419    1.366   .     A
C367   C694    1.425   .     S
C368   N426    1.438   .     S
C368   C553    1.401   1_455 S
Cu369  O436    1.976   .     S
Cu369  O434    1.993   .     S
Cu369  O438    1.976   .     S
Cu369  O429    1.993   .     S
Cu369  Cu370   2.696   .     S
Cu369  N419    2.026   .     S
Cu370  O437    1.976   .     S
Cu370  O439    1.976   .     S
Cu370  O433    1.993   .     S
Cu370  N421    2.026   .     S
Cu370  O435    1.993   .     S
H372   N424    1.044   .     S
H373   N425    1.035   .     S
H374   N425    1.043   .     S
H379   C682    1.111   .     S
H395   C689    1.111   .     S
H406   N426    1.045   .     S
H407   N426    1.045   .     S
H408   N427    1.045   .     S
H409   N427    1.044   .     S
H410   N428    1.045   .     S
H411   N428    1.045   .     S
H412   N420    1.046   .     S
H413   N420    1.044   .     S
H414   N422    1.026   .     S
H415   N422    1.044   .     S
H416   N423    1.035   .     S
H417   N423    1.043   .     S
H418   N424    1.026   .     S
C441   O539    1.304   .     A
C441   C459    1.475   .     S
C441   O545    1.300   .     A
C442   C458    1.412   .     A
C442   N537    1.436   .     S
C442   C554    1.397   .     S
C443   C458    1.416   .     A
C443   N538    1.438   .     S
C443   C588    1.401   .     S
C444   C459    1.412   .     A
C444   N530    1.436   .     S
C445   C456    1.401   .     A
C445   C449    1.391   .     A
C445   H481    1.078   .     S
C446   C457    1.401   .     A
C446   C450    1.394   .     A
C446   H492    1.079   .     S
C447   C451    1.391   .     A
C447   C457    1.401   .     A
C447   H503    1.078   .     S
C448   C453    1.394   .     A
C448   C456    1.401   .     A
C448   H514    1.079   .     S
C449   C454    1.415   .     A
C449   O550    1.385   .     S
C450   C455    1.427   .     A
C450   O540    1.385   .     S
C451   C455    1.415   .     A
C451   O541    1.385   .     S
C452   O544    1.304   .     A
C452   O543    1.300   .     A
C452   C458    1.475   .     S
C453   C454    1.427   .     A
C453   O542    1.385   .     S
C454   C463    1.484   .     S
C455   C473    1.484   .     S
C456   C1447   1.488   1_554 S
C457   C1446   1.488   .     S
C459   C478    1.416   .     A
C460   H485    1.108   .     S
C460   O550    1.421   .     S
C460   C461    1.540   .     S
C460   H486    1.115   .     S
C461   H488    1.108   .     S
C461   H487    1.109   .     S
C461   C792    1.527   .     S
C462   H490    1.111   .     S
C462   H491    1.108   .     S
C463   O549    1.299   .     A
C463   O546    1.311   .     A
C464   H494    1.118   .     S
C464   O540    1.420   .     S
C464   C465    1.530   .     S
C464   H493    1.112   .     S
C465   H496    1.111   .     S
C465   C466    1.526   .     S
C465   H495    1.108   .     S
C466   H499    1.111   .     S
C466   H498    1.110   .     S
C466   H497    1.111   .     S
C467   H501    1.115   .     S
C467   O541    1.421   .     S
C467   H500    1.108   .     S
C467   C468    1.540   .     S
C468   H504    1.108   .     S
C468   H502    1.109   .     S
C468   C799    1.527   .     S
C469   H507    1.108   .     S
C469   H506    1.111   .     S
C470   C471    1.530   .     S
C470   O542    1.420   .     S
C470   H509    1.118   .     S
C470   H508    1.112   .     S
C471   H510    1.108   .     S
C471   H511    1.111   .     S
C471   C472    1.526   .     S
C472   H515    1.111   .     S
C472   H512    1.111   .     S
C472   H513    1.110   .     S
C473   O547    1.299   .     A
C473   O548    1.311   .     A
C474   N531    1.385   .     A
C474   N532    1.437   .     S
C475   N533    1.436   .     S
C475   N529    1.366   .     A
C475   C806    1.425   .     S
C476   N531    1.385   .     A
C476   N534    1.437   .     S
C477   N535    1.436   .     S
C477   N529    1.366   .     A
C477   C804    1.425   .     S
C478   N536    1.438   .     S
Cu479  O546    1.976   .     S
Cu479  O544    1.993   .     S
Cu479  O548    1.976   .     S
Cu479  O539    1.993   .     S
Cu479  Cu480   2.696   .     S
Cu479  N529    2.026   .     S
Cu480  O547    1.976   .     S
Cu480  O549    1.976   .     S
Cu480  O543    1.993   .     S
Cu480  N531    2.026   .     S
Cu480  O545    1.993   .     S
H482   N534    1.044   .     S
H483   N535    1.035   .     S
H484   N535    1.043   .     S
H489   C792    1.111   .     S
H505   C799    1.111   .     S
H516   N536    1.045   .     S
H517   N536    1.045   .     S
H518   N537    1.045   .     S
H519   N537    1.044   .     S
H520   N538    1.045   .     S
H521   N538    1.045   .     S
H522   N530    1.046   .     S
H523   N530    1.044   .     S
H524   N532    1.026   .     S
H525   N532    1.044   .     S
H526   N533    1.035   .     S
H527   N533    1.043   .     S
H528   N534    1.026   .     S
C551   O649    1.304   .     A
C551   C569    1.475   .     S
C551   O655    1.300   .     A
C552   C568    1.412   .     A
C552   N647    1.436   .     S
C552   C334    1.397   1_655 S
C553   C568    1.416   .     A
C553   N648    1.438   .     S
C553   C368    1.401   1_655 S
C554   C569    1.412   .     A
C554   N640    1.436   .     S
C555   C566    1.401   .     A
C555   C559    1.391   .     A
C555   H591    1.078   .     S
C556   C567    1.401   .     A
C556   C560    1.394   .     A
C556   H602    1.079   .     S
C557   C561    1.391   .     A
C557   C567    1.401   .     A
C557   H613    1.078   .     S
C558   C563    1.394   .     A
C558   C566    1.401   .     A
C558   H624    1.079   .     S
C559   C564    1.415   .     A
C559   O660    1.385   .     S
C560   C565    1.427   .     A
C560   O650    1.385   .     S
C561   C565    1.415   .     A
C561   O651    1.385   .     S
C562   O654    1.304   .     A
C562   O653    1.300   .     A
C562   C568    1.475   .     S
C563   C564    1.427   .     A
C563   O652    1.385   .     S
C564   C573    1.484   .     S
C565   C583    1.484   .     S
C566   C1557   1.488   1_554 S
C567   C1556   1.488   .     S
C569   C588    1.416   .     A
C570   H595    1.108   .     S
C570   O660    1.421   .     S
C570   C571    1.540   .     S
C570   H596    1.115   .     S
C571   H598    1.108   .     S
C571   H597    1.109   .     S
C571   C902    1.527   .     S
C572   H600    1.111   .     S
C572   H601    1.108   .     S
C573   O659    1.299   .     A
C573   O656    1.311   .     A
C574   H604    1.118   .     S
C574   O650    1.420   .     S
C574   C575    1.530   .     S
C574   H603    1.112   .     S
C575   H606    1.111   .     S
C575   C576    1.526   .     S
C575   H605    1.108   .     S
C576   H609    1.111   .     S
C576   H608    1.110   .     S
C576   H607    1.111   .     S
C577   H611    1.115   .     S
C577   O651    1.421   .     S
C577   H610    1.108   .     S
C577   C578    1.540   .     S
C578   H614    1.108   .     S
C578   H612    1.109   .     S
C578   C909    1.527   .     S
C579   H617    1.108   .     S
C579   H616    1.111   .     S
C580   C581    1.530   .     S
C580   O652    1.420   .     S
C580   H619    1.118   .     S
C580   H618    1.112   .     S
C581   H620    1.108   .     S
C581   H621    1.111   .     S
C581   C582    1.526   .     S
C582   H625    1.111   .     S
C582   H622    1.111   .     S
C582   H623    1.110   .     S
C583   O657    1.299   .     A
C583   O658    1.311   .     A
C584   N641    1.385   .     A
C584   N642    1.437   .     S
C585   N643    1.436   .     S
C585   N639    1.366   .     A
C585   C916    1.425   .     S
C586   N641    1.385   .     A
C586   N644    1.437   .     S
C587   N645    1.436   .     S
C587   N639    1.366   .     A
C587   C914    1.425   .     S
C588   N646    1.438   .     S
Cu589  O656    1.976   .     S
Cu589  O654    1.993   .     S
Cu589  O658    1.976   .     S
Cu589  O649    1.993   .     S
Cu589  Cu590   2.696   .     S
Cu589  N639    2.026   .     S
Cu590  O657    1.976   .     S
Cu590  O659    1.976   .     S
Cu590  O653    1.993   .     S
Cu590  N641    2.026   .     S
Cu590  O655    1.993   .     S
H592   N644    1.044   .     S
H593   N645    1.035   .     S
H594   N645    1.043   .     S
H599   C902    1.111   .     S
H615   C909    1.111   .     S
H626   N646    1.045   .     S
H627   N646    1.045   .     S
H628   N647    1.045   .     S
H629   N647    1.044   .     S
H630   N648    1.045   .     S
H631   N648    1.045   .     S
H632   N640    1.046   .     S
H633   N640    1.044   .     S
H634   N642    1.026   .     S
H635   N642    1.044   .     S
H636   N643    1.035   .     S
H637   N643    1.043   .     S
H638   N644    1.026   .     S
C661   O759    1.304   .     A
C661   C679    1.475   .     S
C661   O765    1.300   .     A
C662   C678    1.412   .     A
C662   N757    1.436   .     S
C662   C774    1.397   .     S
C663   C678    1.416   .     A
C663   N758    1.438   .     S
C663   C808    1.401   .     S
C664   C679    1.412   .     A
C664   N750    1.436   .     S
C664   C882    1.397   1_455 S
C665   C676    1.401   .     A
C665   C669    1.391   .     A
C665   H701    1.078   .     S
C666   C677    1.401   .     A
C666   C670    1.394   .     A
C666   H712    1.079   .     S
C667   C671    1.391   .     A
C667   C677    1.401   .     A
C667   H723    1.078   .     S
C668   C673    1.394   .     A
C668   C676    1.401   .     A
C668   H734    1.079   .     S
C669   C674    1.415   .     A
C669   O770    1.385   .     S
C670   C675    1.427   .     A
C670   O760    1.385   .     S
C671   C675    1.415   .     A
C671   O761    1.385   .     S
C672   O764    1.304   .     A
C672   O763    1.300   .     A
C672   C678    1.475   .     S
C673   C674    1.427   .     A
C673   O762    1.385   .     S
C674   C683    1.484   .     S
C675   C693    1.484   .     S
C676   C1667   1.488   1_554 S
C677   C1666   1.488   .     S
C679   C698    1.416   .     A
C680   H705    1.108   .     S
C680   O770    1.421   .     S
C680   C681    1.540   .     S
C680   H706    1.115   .     S
C681   H708    1.108   .     S
C681   H707    1.109   .     S
C681   C22     1.527   1_565 S
C682   H710    1.111   .     S
C682   H711    1.108   .     S
C683   O769    1.299   .     A
C683   O766    1.311   .     A
C684   H714    1.118   .     S
C684   O760    1.420   .     S
C684   C685    1.530   .     S
C684   H713    1.112   .     S
C685   H716    1.111   .     S
C685   C686    1.526   .     S
C685   H715    1.108   .     S
C686   H719    1.111   .     S
C686   H718    1.110   .     S
C686   H717    1.111   .     S
C687   H721    1.115   .     S
C687   O761    1.421   .     S
C687   H720    1.108   .     S
C687   C688    1.540   .     S
C688   H724    1.108   .     S
C688   H722    1.109   .     S
C688   C29     1.527   1_565 S
C689   H727    1.108   .     S
C689   H726    1.111   .     S
C690   C691    1.530   .     S
C690   O762    1.420   .     S
C690   H729    1.118   .     S
C690   H728    1.112   .     S
C691   H730    1.108   .     S
C691   H731    1.111   .     S
C691   C692    1.526   .     S
C692   H735    1.111   .     S
C692   H732    1.111   .     S
C692   H733    1.110   .     S
C693   O767    1.299   .     A
C693   O768    1.311   .     A
C694   N751    1.385   .     A
C694   N752    1.437   .     S
C695   N753    1.436   .     S
C695   N749    1.366   .     A
C695   C36     1.425   1_565 S
C696   N751    1.385   .     A
C696   N754    1.437   .     S
C697   N755    1.436   .     S
C697   N749    1.366   .     A
C697   C34     1.425   1_565 S
C698   N756    1.438   .     S
C698   C883    1.401   1_455 S
Cu699  O766    1.976   .     S
Cu699  O764    1.993   .     S
Cu699  O768    1.976   .     S
Cu699  O759    1.993   .     S
Cu699  Cu700   2.696   .     S
Cu699  N749    2.026   .     S
Cu700  O767    1.976   .     S
Cu700  O769    1.976   .     S
Cu700  O763    1.993   .     S
Cu700  N751    2.026   .     S
Cu700  O765    1.993   .     S
H702   N754    1.044   .     S
H703   N755    1.035   .     S
H704   N755    1.043   .     S
H709   C22     1.111   1_565 S
H725   C29     1.111   1_565 S
H736   N756    1.045   .     S
H737   N756    1.045   .     S
H738   N757    1.045   .     S
H739   N757    1.044   .     S
H740   N758    1.045   .     S
H741   N758    1.045   .     S
H742   N750    1.046   .     S
H743   N750    1.044   .     S
H744   N752    1.026   .     S
H745   N752    1.044   .     S
H746   N753    1.035   .     S
H747   N753    1.043   .     S
H748   N754    1.026   .     S
C771   O869    1.304   .     A
C771   C789    1.475   .     S
C771   O875    1.300   .     A
C772   C788    1.412   .     A
C772   N867    1.436   .     S
C772   C884    1.397   .     S
C773   C788    1.416   .     A
C773   N868    1.438   .     S
C773   C918    1.401   .     S
C774   C789    1.412   .     A
C774   N860    1.436   .     S
C775   C786    1.401   .     A
C775   C779    1.391   .     A
C775   H811    1.078   .     S
C776   C787    1.401   .     A
C776   C780    1.394   .     A
C776   H822    1.079   .     S
C777   C781    1.391   .     A
C777   C787    1.401   .     A
C777   H833    1.078   .     S
C778   C783    1.394   .     A
C778   C786    1.401   .     A
C778   H844    1.079   .     S
C779   C784    1.415   .     A
C779   O880    1.385   .     S
C780   C785    1.427   .     A
C780   O870    1.385   .     S
C781   C785    1.415   .     A
C781   O871    1.385   .     S
C782   O874    1.304   .     A
C782   O873    1.300   .     A
C782   C788    1.475   .     S
C783   C784    1.427   .     A
C783   O872    1.385   .     S
C784   C793    1.484   .     S
C785   C803    1.484   .     S
C786   C1777   1.488   1_554 S
C787   C1776   1.488   .     S
C789   C808    1.416   .     A
C790   H815    1.108   .     S
C790   O880    1.421   .     S
C790   C791    1.540   .     S
C790   H816    1.115   .     S
C791   H818    1.108   .     S
C791   H817    1.109   .     S
C791   C132    1.527   1_565 S
C792   H820    1.111   .     S
C792   H821    1.108   .     S
C793   O879    1.299   .     A
C793   O876    1.311   .     A
C794   H824    1.118   .     S
C794   O870    1.420   .     S
C794   C795    1.530   .     S
C794   H823    1.112   .     S
C795   H826    1.111   .     S
C795   C796    1.526   .     S
C795   H825    1.108   .     S
C796   H829    1.111   .     S
C796   H828    1.110   .     S
C796   H827    1.111   .     S
C797   H831    1.115   .     S
C797   O871    1.421   .     S
C797   H830    1.108   .     S
C797   C798    1.540   .     S
C798   H834    1.108   .     S
C798   H832    1.109   .     S
C798   C139    1.527   1_565 S
C799   H837    1.108   .     S
C799   H836    1.111   .     S
C800   C801    1.530   .     S
C800   O872    1.420   .     S
C800   H839    1.118   .     S
C800   H838    1.112   .     S
C801   H840    1.108   .     S
C801   H841    1.111   .     S
C801   C802    1.526   .     S
C802   H845    1.111   .     S
C802   H842    1.111   .     S
C802   H843    1.110   .     S
C803   O877    1.299   .     A
C803   O878    1.311   .     A
C804   N861    1.385   .     A
C804   N862    1.437   .     S
C805   N863    1.436   .     S
C805   N859    1.366   .     A
C805   C146    1.425   1_565 S
C806   N861    1.385   .     A
C806   N864    1.437   .     S
C807   N865    1.436   .     S
C807   N859    1.366   .     A
C807   C144    1.425   1_565 S
C808   N866    1.438   .     S
Cu809  O876    1.976   .     S
Cu809  O874    1.993   .     S
Cu809  O878    1.976   .     S
Cu809  O869    1.993   .     S
Cu809  Cu810   2.696   .     S
Cu809  N859    2.026   .     S
Cu810  O877    1.976   .     S
Cu810  O879    1.976   .     S
Cu810  O873    1.993   .     S
Cu810  N861    2.026   .     S
Cu810  O875    1.993   .     S
H812   N864    1.044   .     S
H813   N865    1.035   .     S
H814   N865    1.043   .     S
H819   C132    1.111   1_565 S
H835   C139    1.111   1_565 S
H846   N866    1.045   .     S
H847   N866    1.045   .     S
H848   N867    1.045   .     S
H849   N867    1.044   .     S
H850   N868    1.045   .     S
H851   N868    1.045   .     S
H852   N860    1.046   .     S
H853   N860    1.044   .     S
H854   N862    1.026   .     S
H855   N862    1.044   .     S
H856   N863    1.035   .     S
H857   N863    1.043   .     S
H858   N864    1.026   .     S
C881   O979    1.304   .     A
C881   C899    1.475   .     S
C881   O985    1.300   .     A
C882   C898    1.412   .     A
C882   N977    1.436   .     S
C882   C664    1.397   1_655 S
C883   C898    1.416   .     A
C883   N978    1.438   .     S
C883   C698    1.401   1_655 S
C884   C899    1.412   .     A
C884   N970    1.436   .     S
C885   C896    1.401   .     A
C885   C889    1.391   .     A
C885   H921    1.078   .     S
C886   C897    1.401   .     A
C886   C890    1.394   .     A
C886   H932    1.079   .     S
C887   C891    1.391   .     A
C887   C897    1.401   .     A
C887   H943    1.078   .     S
C888   C893    1.394   .     A
C888   C896    1.401   .     A
C888   H954    1.079   .     S
C889   C894    1.415   .     A
C889   O990    1.385   .     S
C890   C895    1.427   .     A
C890   O980    1.385   .     S
C891   C895    1.415   .     A
C891   O981    1.385   .     S
C892   O984    1.304   .     A
C892   O983    1.300   .     A
C892   C898    1.475   .     S
C893   C894    1.427   .     A
C893   O982    1.385   .     S
C894   C903    1.484   .     S
C895   C913    1.484   .     S
C896   C1887   1.488   1_554 S
C897   C1886   1.488   .     S
C899   C918    1.416   .     A
C900   H925    1.108   .     S
C900   O990    1.421   .     S
C900   C901    1.540   .     S
C900   H926    1.115   .     S
C901   H928    1.108   .     S
C901   H927    1.109   .     S
C901   C242    1.527   1_565 S
C902   H930    1.111   .     S
C902   H931    1.108   .     S
C903   O989    1.299   .     A
C903   O986    1.311   .     A
C904   H934    1.118   .     S
C904   O980    1.420   .     S
C904   C905    1.530   .     S
C904   H933    1.112   .     S
C905   H936    1.111   .     S
C905   C906    1.526   .     S
C905   H935    1.108   .     S
C906   H939    1.111   .     S
C906   H938    1.110   .     S
C906   H937    1.111   .     S
C907   H941    1.115   .     S
C907   O981    1.421   .     S
C907   H940    1.108   .     S
C907   C908    1.540   .     S
C908   H944    1.108   .     S
C908   H942    1.109   .     S
C908   C249    1.527   1_565 S
C909   H947    1.108   .     S
C909   H946    1.111   .     S
C910   C911    1.530   .     S
C910   O982    1.420   .     S
C910   H949    1.118   .     S
C910   H948    1.112   .     S
C911   H950    1.108   .     S
C911   H951    1.111   .     S
C911   C912    1.526   .     S
C912   H955    1.111   .     S
C912   H952    1.111   .     S
C912   H953    1.110   .     S
C913   O987    1.299   .     A
C913   O988    1.311   .     A
C914   N971    1.385   .     A
C914   N972    1.437   .     S
C915   N973    1.436   .     S
C915   N969    1.366   .     A
C915   C256    1.425   1_565 S
C916   N971    1.385   .     A
C916   N974    1.437   .     S
C917   N975    1.436   .     S
C917   N969    1.366   .     A
C917   C254    1.425   1_565 S
C918   N976    1.438   .     S
Cu919  O986    1.976   .     S
Cu919  O984    1.993   .     S
Cu919  O988    1.976   .     S
Cu919  O979    1.993   .     S
Cu919  Cu920   2.696   .     S
Cu919  N969    2.026   .     S
Cu920  O987    1.976   .     S
Cu920  O989    1.976   .     S
Cu920  O983    1.993   .     S
Cu920  N971    2.026   .     S
Cu920  O985    1.993   .     S
H922   N974    1.044   .     S
H923   N975    1.035   .     S
H924   N975    1.043   .     S
H929   C242    1.111   1_565 S
H945   C249    1.111   1_565 S
H956   N976    1.045   .     S
H957   N976    1.045   .     S
H958   N977    1.045   .     S
H959   N977    1.044   .     S
H960   N978    1.045   .     S
H961   N978    1.045   .     S
H962   N970    1.046   .     S
H963   N970    1.044   .     S
H964   N972    1.026   .     S
H965   N972    1.044   .     S
H966   N973    1.035   .     S
H967   N973    1.043   .     S
H968   N974    1.026   .     S
C991   O1089   1.304   .     A
C991   C1009   1.475   .     S
C991   O1095   1.300   .     A
C992   C1008   1.412   .     A
C992   N1087   1.436   .     S
C992   C1104   1.397   .     S
C993   C1008   1.416   .     A
C993   N1088   1.438   .     S
C993   C1138   1.401   .     S
C994   C1009   1.412   .     A
C994   N1080   1.436   .     S
C994   C1212   1.397   1_455 S
C995   C1006   1.401   .     A
C995   C999    1.391   .     A
C995   H1031   1.078   .     S
C996   C1007   1.401   .     A
C996   C1000   1.394   .     A
C996   H1042   1.079   .     S
C997   C1001   1.391   .     A
C997   C1007   1.401   .     A
C997   H1053   1.078   .     S
C998   C1003   1.394   .     A
C998   C1006   1.401   .     A
C998   H1064   1.079   .     S
C999   C1004   1.415   .     A
C999   O1100   1.385   .     S
C1000  C1005   1.427   .     A
C1000  O1090   1.385   .     S
C1001  C1005   1.415   .     A
C1001  O1091   1.385   .     S
C1002  O1094   1.304   .     A
C1002  O1093   1.300   .     A
C1002  C1008   1.475   .     S
C1003  C1004   1.427   .     A
C1003  O1092   1.385   .     S
C1004  C1013   1.484   .     S
C1005  C1023   1.484   .     S
C1007  C16     1.488   1_556 S
C1009  C1028   1.416   .     A
C1010  H1035   1.108   .     S
C1010  O1100   1.421   .     S
C1010  C1011   1.540   .     S
C1010  H1036   1.115   .     S
C1011  H1038   1.108   .     S
C1011  H1037   1.109   .     S
C1011  C1342   1.527   .     S
C1012  H1040   1.111   .     S
C1012  H1041   1.108   .     S
C1012  C1671   1.527   1_545 S
C1012  H1699   1.111   1_545 S
C1013  O1099   1.299   .     A
C1013  O1096   1.311   .     A
C1014  H1044   1.118   .     S
C1014  O1090   1.420   .     S
C1014  C1015   1.530   .     S
C1014  H1043   1.112   .     S
C1015  H1046   1.111   .     S
C1015  C1016   1.526   .     S
C1015  H1045   1.108   .     S
C1016  H1049   1.111   .     S
C1016  H1048   1.110   .     S
C1016  H1047   1.111   .     S
C1017  H1051   1.115   .     S
C1017  O1091   1.421   .     S
C1017  H1050   1.108   .     S
C1017  C1018   1.540   .     S
C1018  H1054   1.108   .     S
C1018  H1052   1.109   .     S
C1018  C1349   1.527   .     S
C1019  H1057   1.108   .     S
C1019  H1056   1.111   .     S
C1019  C1678   1.527   1_545 S
C1019  H1715   1.111   1_545 S
C1020  C1021   1.530   .     S
C1020  O1092   1.420   .     S
C1020  H1059   1.118   .     S
C1020  H1058   1.112   .     S
C1021  H1060   1.108   .     S
C1021  H1061   1.111   .     S
C1021  C1022   1.526   .     S
C1022  H1065   1.111   .     S
C1022  H1062   1.111   .     S
C1022  H1063   1.110   .     S
C1023  O1097   1.299   .     A
C1023  O1098   1.311   .     A
C1024  N1081   1.385   .     A
C1024  N1082   1.437   .     S
C1024  C1687   1.425   1_545 S
C1025  N1083   1.436   .     S
C1025  N1079   1.366   .     A
C1025  C1356   1.425   .     S
C1026  N1081   1.385   .     A
C1026  N1084   1.437   .     S
C1026  C1685   1.425   1_545 S
C1027  N1085   1.436   .     S
C1027  N1079   1.366   .     A
C1027  C1354   1.425   .     S
C1028  N1086   1.438   .     S
C1028  C1213   1.401   1_455 S
Cu1029 O1096   1.976   .     S
Cu1029 O1094   1.993   .     S
Cu1029 O1098   1.976   .     S
Cu1029 O1089   1.993   .     S
Cu1029 Cu1030  2.696   .     S
Cu1029 N1079   2.026   .     S
Cu1030 O1097   1.976   .     S
Cu1030 O1099   1.976   .     S
Cu1030 O1093   1.993   .     S
Cu1030 N1081   2.026   .     S
Cu1030 O1095   1.993   .     S
H1032  N1084   1.044   .     S
H1033  N1085   1.035   .     S
H1034  N1085   1.043   .     S
H1039  C1342   1.111   .     S
H1055  C1349   1.111   .     S
H1066  N1086   1.045   .     S
H1067  N1086   1.045   .     S
H1068  N1087   1.045   .     S
H1069  N1087   1.044   .     S
H1070  N1088   1.045   .     S
H1071  N1088   1.045   .     S
H1072  N1080   1.046   .     S
H1073  N1080   1.044   .     S
H1074  N1082   1.026   .     S
H1075  N1082   1.044   .     S
H1076  N1083   1.035   .     S
H1077  N1083   1.043   .     S
H1078  N1084   1.026   .     S
C1101  O1199   1.304   .     A
C1101  C1119   1.475   .     S
C1101  O1205   1.300   .     A
C1102  C1118   1.412   .     A
C1102  N1197   1.436   .     S
C1102  C1214   1.397   .     S
C1103  C1118   1.416   .     A
C1103  N1198   1.438   .     S
C1103  C1248   1.401   .     S
C1104  C1119   1.412   .     A
C1104  N1190   1.436   .     S
C1105  C1116   1.401   .     A
C1105  C1109   1.391   .     A
C1105  H1141   1.078   .     S
C1106  C1117   1.401   .     A
C1106  C1110   1.394   .     A
C1106  H1152   1.079   .     S
C1107  C1111   1.391   .     A
C1107  C1117   1.401   .     A
C1107  H1163   1.078   .     S
C1108  C1113   1.394   .     A
C1108  C1116   1.401   .     A
C1108  H1174   1.079   .     S
C1109  C1114   1.415   .     A
C1109  O1210   1.385   .     S
C1110  C1115   1.427   .     A
C1110  O1200   1.385   .     S
C1111  C1115   1.415   .     A
C1111  O1201   1.385   .     S
C1112  O1204   1.304   .     A
C1112  O1203   1.300   .     A
C1112  C1118   1.475   .     S
C1113  C1114   1.427   .     A
C1113  O1202   1.385   .     S
C1114  C1123   1.484   .     S
C1115  C1133   1.484   .     S
C1117  C126    1.488   1_556 S
C1119  C1138   1.416   .     A
C1120  H1145   1.108   .     S
C1120  O1210   1.421   .     S
C1120  C1121   1.540   .     S
C1120  H1146   1.115   .     S
C1121  H1148   1.108   .     S
C1121  H1147   1.109   .     S
C1121  C1452   1.527   .     S
C1122  H1150   1.111   .     S
C1122  H1151   1.108   .     S
C1122  C1781   1.527   1_545 S
C1122  H1809   1.111   1_545 S
C1123  O1209   1.299   .     A
C1123  O1206   1.311   .     A
C1124  H1154   1.118   .     S
C1124  O1200   1.420   .     S
C1124  C1125   1.530   .     S
C1124  H1153   1.112   .     S
C1125  H1156   1.111   .     S
C1125  C1126   1.526   .     S
C1125  H1155   1.108   .     S
C1126  H1159   1.111   .     S
C1126  H1158   1.110   .     S
C1126  H1157   1.111   .     S
C1127  H1161   1.115   .     S
C1127  O1201   1.421   .     S
C1127  H1160   1.108   .     S
C1127  C1128   1.540   .     S
C1128  H1164   1.108   .     S
C1128  H1162   1.109   .     S
C1128  C1459   1.527   .     S
C1129  H1167   1.108   .     S
C1129  H1166   1.111   .     S
C1129  C1788   1.527   1_545 S
C1129  H1825   1.111   1_545 S
C1130  C1131   1.530   .     S
C1130  O1202   1.420   .     S
C1130  H1169   1.118   .     S
C1130  H1168   1.112   .     S
C1131  H1170   1.108   .     S
C1131  H1171   1.111   .     S
C1131  C1132   1.526   .     S
C1132  H1175   1.111   .     S
C1132  H1172   1.111   .     S
C1132  H1173   1.110   .     S
C1133  O1207   1.299   .     A
C1133  O1208   1.311   .     A
C1134  N1191   1.385   .     A
C1134  N1192   1.437   .     S
C1134  C1797   1.425   1_545 S
C1135  N1193   1.436   .     S
C1135  N1189   1.366   .     A
C1135  C1466   1.425   .     S
C1136  N1191   1.385   .     A
C1136  N1194   1.437   .     S
C1136  C1795   1.425   1_545 S
C1137  N1195   1.436   .     S
C1137  N1189   1.366   .     A
C1137  C1464   1.425   .     S
C1138  N1196   1.438   .     S
Cu1139 O1206   1.976   .     S
Cu1139 O1204   1.993   .     S
Cu1139 O1208   1.976   .     S
Cu1139 O1199   1.993   .     S
Cu1139 Cu1140  2.696   .     S
Cu1139 N1189   2.026   .     S
Cu1140 O1207   1.976   .     S
Cu1140 O1209   1.976   .     S
Cu1140 O1203   1.993   .     S
Cu1140 N1191   2.026   .     S
Cu1140 O1205   1.993   .     S
H1142  N1194   1.044   .     S
H1143  N1195   1.035   .     S
H1144  N1195   1.043   .     S
H1149  C1452   1.111   .     S
H1165  C1459   1.111   .     S
H1176  N1196   1.045   .     S
H1177  N1196   1.045   .     S
H1178  N1197   1.045   .     S
H1179  N1197   1.044   .     S
H1180  N1198   1.045   .     S
H1181  N1198   1.045   .     S
H1182  N1190   1.046   .     S
H1183  N1190   1.044   .     S
H1184  N1192   1.026   .     S
H1185  N1192   1.044   .     S
H1186  N1193   1.035   .     S
H1187  N1193   1.043   .     S
H1188  N1194   1.026   .     S
C1211  O1309   1.304   .     A
C1211  C1229   1.475   .     S
C1211  O1315   1.300   .     A
C1212  C1228   1.412   .     A
C1212  N1307   1.436   .     S
C1212  C994    1.397   1_655 S
C1213  C1228   1.416   .     A
C1213  N1308   1.438   .     S
C1213  C1028   1.401   1_655 S
C1214  C1229   1.412   .     A
C1214  N1300   1.436   .     S
C1215  C1226   1.401   .     A
C1215  C1219   1.391   .     A
C1215  H1251   1.078   .     S
C1216  C1227   1.401   .     A
C1216  C1220   1.394   .     A
C1216  H1262   1.079   .     S
C1217  C1221   1.391   .     A
C1217  C1227   1.401   .     A
C1217  H1273   1.078   .     S
C1218  C1223   1.394   .     A
C1218  C1226   1.401   .     A
C1218  H1284   1.079   .     S
C1219  C1224   1.415   .     A
C1219  O1320   1.385   .     S
C1220  C1225   1.427   .     A
C1220  O1310   1.385   .     S
C1221  C1225   1.415   .     A
C1221  O1311   1.385   .     S
C1222  O1314   1.304   .     A
C1222  O1313   1.300   .     A
C1222  C1228   1.475   .     S
C1223  C1224   1.427   .     A
C1223  O1312   1.385   .     S
C1224  C1233   1.484   .     S
C1225  C1243   1.484   .     S
C1227  C236    1.488   1_556 S
C1229  C1248   1.416   .     A
C1230  H1255   1.108   .     S
C1230  O1320   1.421   .     S
C1230  C1231   1.540   .     S
C1230  H1256   1.115   .     S
C1231  H1258   1.108   .     S
C1231  H1257   1.109   .     S
C1231  C1562   1.527   .     S
C1232  H1260   1.111   .     S
C1232  H1261   1.108   .     S
C1232  C1891   1.527   1_545 S
C1232  H1919   1.111   1_545 S
C1233  O1319   1.299   .     A
C1233  O1316   1.311   .     A
C1234  H1264   1.118   .     S
C1234  O1310   1.420   .     S
C1234  C1235   1.530   .     S
C1234  H1263   1.112   .     S
C1235  H1266   1.111   .     S
C1235  C1236   1.526   .     S
C1235  H1265   1.108   .     S
C1236  H1269   1.111   .     S
C1236  H1268   1.110   .     S
C1236  H1267   1.111   .     S
C1237  H1271   1.115   .     S
C1237  O1311   1.421   .     S
C1237  H1270   1.108   .     S
C1237  C1238   1.540   .     S
C1238  H1274   1.108   .     S
C1238  H1272   1.109   .     S
C1238  C1569   1.527   .     S
C1239  H1277   1.108   .     S
C1239  H1276   1.111   .     S
C1239  C1898   1.527   1_545 S
C1239  H1935   1.111   1_545 S
C1240  C1241   1.530   .     S
C1240  O1312   1.420   .     S
C1240  H1279   1.118   .     S
C1240  H1278   1.112   .     S
C1241  H1280   1.108   .     S
C1241  H1281   1.111   .     S
C1241  C1242   1.526   .     S
C1242  H1285   1.111   .     S
C1242  H1282   1.111   .     S
C1242  H1283   1.110   .     S
C1243  O1317   1.299   .     A
C1243  O1318   1.311   .     A
C1244  N1301   1.385   .     A
C1244  N1302   1.437   .     S
C1244  C1907   1.425   1_545 S
C1245  N1303   1.436   .     S
C1245  N1299   1.366   .     A
C1245  C1576   1.425   .     S
C1246  N1301   1.385   .     A
C1246  N1304   1.437   .     S
C1246  C1905   1.425   1_545 S
C1247  N1305   1.436   .     S
C1247  N1299   1.366   .     A
C1247  C1574   1.425   .     S
C1248  N1306   1.438   .     S
Cu1249 O1316   1.976   .     S
Cu1249 O1314   1.993   .     S
Cu1249 O1318   1.976   .     S
Cu1249 O1309   1.993   .     S
Cu1249 Cu1250  2.696   .     S
Cu1249 N1299   2.026   .     S
Cu1250 O1317   1.976   .     S
Cu1250 O1319   1.976   .     S
Cu1250 O1313   1.993   .     S
Cu1250 N1301   2.026   .     S
Cu1250 O1315   1.993   .     S
H1252  N1304   1.044   .     S
H1253  N1305   1.035   .     S
H1254  N1305   1.043   .     S
H1259  C1562   1.111   .     S
H1275  C1569   1.111   .     S
H1286  N1306   1.045   .     S
H1287  N1306   1.045   .     S
H1288  N1307   1.045   .     S
H1289  N1307   1.044   .     S
H1290  N1308   1.045   .     S
H1291  N1308   1.045   .     S
H1292  N1300   1.046   .     S
H1293  N1300   1.044   .     S
H1294  N1302   1.026   .     S
H1295  N1302   1.044   .     S
H1296  N1303   1.035   .     S
H1297  N1303   1.043   .     S
H1298  N1304   1.026   .     S
C1321  O1419   1.304   .     A
C1321  C1339   1.475   .     S
C1321  O1425   1.300   .     A
C1322  C1338   1.412   .     A
C1322  N1417   1.436   .     S
C1322  C1434   1.397   .     S
C1323  C1338   1.416   .     A
C1323  N1418   1.438   .     S
C1323  C1468   1.401   .     S
C1324  C1339   1.412   .     A
C1324  N1410   1.436   .     S
C1324  C1542   1.397   1_455 S
C1325  C1336   1.401   .     A
C1325  C1329   1.391   .     A
C1325  H1361   1.078   .     S
C1326  C1337   1.401   .     A
C1326  C1330   1.394   .     A
C1326  H1372   1.079   .     S
C1327  C1331   1.391   .     A
C1327  C1337   1.401   .     A
C1327  H1383   1.078   .     S
C1328  C1333   1.394   .     A
C1328  C1336   1.401   .     A
C1328  H1394   1.079   .     S
C1329  C1334   1.415   .     A
C1329  O1430   1.385   .     S
C1330  C1335   1.427   .     A
C1330  O1420   1.385   .     S
C1331  C1335   1.415   .     A
C1331  O1421   1.385   .     S
C1332  O1424   1.304   .     A
C1332  O1423   1.300   .     A
C1332  C1338   1.475   .     S
C1333  C1334   1.427   .     A
C1333  O1422   1.385   .     S
C1334  C1343   1.484   .     S
C1335  C1353   1.484   .     S
C1337  C346    1.488   1_556 S
C1339  C1358   1.416   .     A
C1340  H1365   1.108   .     S
C1340  O1430   1.421   .     S
C1340  C1341   1.540   .     S
C1340  H1366   1.115   .     S
C1341  H1368   1.108   .     S
C1341  H1367   1.109   .     S
C1341  C1672   1.527   .     S
C1342  H1370   1.111   .     S
C1342  H1371   1.108   .     S
C1343  O1429   1.299   .     A
C1343  O1426   1.311   .     A
C1344  H1374   1.118   .     S
C1344  O1420   1.420   .     S
C1344  C1345   1.530   .     S
C1344  H1373   1.112   .     S
C1345  H1376   1.111   .     S
C1345  C1346   1.526   .     S
C1345  H1375   1.108   .     S
C1346  H1379   1.111   .     S
C1346  H1378   1.110   .     S
C1346  H1377   1.111   .     S
C1347  H1381   1.115   .     S
C1347  O1421   1.421   .     S
C1347  H1380   1.108   .     S
C1347  C1348   1.540   .     S
C1348  H1384   1.108   .     S
C1348  H1382   1.109   .     S
C1348  C1679   1.527   .     S
C1349  H1387   1.108   .     S
C1349  H1386   1.111   .     S
C1350  C1351   1.530   .     S
C1350  O1422   1.420   .     S
C1350  H1389   1.118   .     S
C1350  H1388   1.112   .     S
C1351  H1390   1.108   .     S
C1351  H1391   1.111   .     S
C1351  C1352   1.526   .     S
C1352  H1395   1.111   .     S
C1352  H1392   1.111   .     S
C1352  H1393   1.110   .     S
C1353  O1427   1.299   .     A
C1353  O1428   1.311   .     A
C1354  N1411   1.385   .     A
C1354  N1412   1.437   .     S
C1355  N1413   1.436   .     S
C1355  N1409   1.366   .     A
C1355  C1686   1.425   .     S
C1356  N1411   1.385   .     A
C1356  N1414   1.437   .     S
C1357  N1415   1.436   .     S
C1357  N1409   1.366   .     A
C1357  C1684   1.425   .     S
C1358  N1416   1.438   .     S
C1358  C1543   1.401   1_455 S
Cu1359 O1426   1.976   .     S
Cu1359 O1424   1.993   .     S
Cu1359 O1428   1.976   .     S
Cu1359 O1419   1.993   .     S
Cu1359 Cu1360  2.696   .     S
Cu1359 N1409   2.026   .     S
Cu1360 O1427   1.976   .     S
Cu1360 O1429   1.976   .     S
Cu1360 O1423   1.993   .     S
Cu1360 N1411   2.026   .     S
Cu1360 O1425   1.993   .     S
H1362  N1414   1.044   .     S
H1363  N1415   1.035   .     S
H1364  N1415   1.043   .     S
H1369  C1672   1.111   .     S
H1385  C1679   1.111   .     S
H1396  N1416   1.045   .     S
H1397  N1416   1.045   .     S
H1398  N1417   1.045   .     S
H1399  N1417   1.044   .     S
H1400  N1418   1.045   .     S
H1401  N1418   1.045   .     S
H1402  N1410   1.046   .     S
H1403  N1410   1.044   .     S
H1404  N1412   1.026   .     S
H1405  N1412   1.044   .     S
H1406  N1413   1.035   .     S
H1407  N1413   1.043   .     S
H1408  N1414   1.026   .     S
C1431  O1529   1.304   .     A
C1431  C1449   1.475   .     S
C1431  O1535   1.300   .     A
C1432  C1448   1.412   .     A
C1432  N1527   1.436   .     S
C1432  C1544   1.397   .     S
C1433  C1448   1.416   .     A
C1433  N1528   1.438   .     S
C1433  C1578   1.401   .     S
C1434  C1449   1.412   .     A
C1434  N1520   1.436   .     S
C1435  C1446   1.401   .     A
C1435  C1439   1.391   .     A
C1435  H1471   1.078   .     S
C1436  C1447   1.401   .     A
C1436  C1440   1.394   .     A
C1436  H1482   1.079   .     S
C1437  C1441   1.391   .     A
C1437  C1447   1.401   .     A
C1437  H1493   1.078   .     S
C1438  C1443   1.394   .     A
C1438  C1446   1.401   .     A
C1438  H1504   1.079   .     S
C1439  C1444   1.415   .     A
C1439  O1540   1.385   .     S
C1440  C1445   1.427   .     A
C1440  O1530   1.385   .     S
C1441  C1445   1.415   .     A
C1441  O1531   1.385   .     S
C1442  O1534   1.304   .     A
C1442  O1533   1.300   .     A
C1442  C1448   1.475   .     S
C1443  C1444   1.427   .     A
C1443  O1532   1.385   .     S
C1444  C1453   1.484   .     S
C1445  C1463   1.484   .     S
C1447  C456    1.488   1_556 S
C1449  C1468   1.416   .     A
C1450  H1475   1.108   .     S
C1450  O1540   1.421   .     S
C1450  C1451   1.540   .     S
C1450  H1476   1.115   .     S
C1451  H1478   1.108   .     S
C1451  H1477   1.109   .     S
C1451  C1782   1.527   .     S
C1452  H1480   1.111   .     S
C1452  H1481   1.108   .     S
C1453  O1539   1.299   .     A
C1453  O1536   1.311   .     A
C1454  H1484   1.118   .     S
C1454  O1530   1.420   .     S
C1454  C1455   1.530   .     S
C1454  H1483   1.112   .     S
C1455  H1486   1.111   .     S
C1455  C1456   1.526   .     S
C1455  H1485   1.108   .     S
C1456  H1489   1.111   .     S
C1456  H1488   1.110   .     S
C1456  H1487   1.111   .     S
C1457  H1491   1.115   .     S
C1457  O1531   1.421   .     S
C1457  H1490   1.108   .     S
C1457  C1458   1.540   .     S
C1458  H1494   1.108   .     S
C1458  H1492   1.109   .     S
C1458  C1789   1.527   .     S
C1459  H1497   1.108   .     S
C1459  H1496   1.111   .     S
C1460  C1461   1.530   .     S
C1460  O1532   1.420   .     S
C1460  H1499   1.118   .     S
C1460  H1498   1.112   .     S
C1461  H1500   1.108   .     S
C1461  H1501   1.111   .     S
C1461  C1462   1.526   .     S
C1462  H1505   1.111   .     S
C1462  H1502   1.111   .     S
C1462  H1503   1.110   .     S
C1463  O1537   1.299   .     A
C1463  O1538   1.311   .     A
C1464  N1521   1.385   .     A
C1464  N1522   1.437   .     S
C1465  N1523   1.436   .     S
C1465  N1519   1.366   .     A
C1465  C1796   1.425   .     S
C1466  N1521   1.385   .     A
C1466  N1524   1.437   .     S
C1467  N1525   1.436   .     S
C1467  N1519   1.366   .     A
C1467  C1794   1.425   .     S
C1468  N1526   1.438   .     S
Cu1469 O1536   1.976   .     S
Cu1469 O1534   1.993   .     S
Cu1469 O1538   1.976   .     S
Cu1469 O1529   1.993   .     S
Cu1469 Cu1470  2.696   .     S
Cu1469 N1519   2.026   .     S
Cu1470 O1537   1.976   .     S
Cu1470 O1539   1.976   .     S
Cu1470 O1533   1.993   .     S
Cu1470 N1521   2.026   .     S
Cu1470 O1535   1.993   .     S
H1472  N1524   1.044   .     S
H1473  N1525   1.035   .     S
H1474  N1525   1.043   .     S
H1479  C1782   1.111   .     S
H1495  C1789   1.111   .     S
H1506  N1526   1.045   .     S
H1507  N1526   1.045   .     S
H1508  N1527   1.045   .     S
H1509  N1527   1.044   .     S
H1510  N1528   1.045   .     S
H1511  N1528   1.045   .     S
H1512  N1520   1.046   .     S
H1513  N1520   1.044   .     S
H1514  N1522   1.026   .     S
H1515  N1522   1.044   .     S
H1516  N1523   1.035   .     S
H1517  N1523   1.043   .     S
H1518  N1524   1.026   .     S
C1541  O1639   1.304   .     A
C1541  C1559   1.475   .     S
C1541  O1645   1.300   .     A
C1542  C1558   1.412   .     A
C1542  N1637   1.436   .     S
C1542  C1324   1.397   1_655 S
C1543  C1558   1.416   .     A
C1543  N1638   1.438   .     S
C1543  C1358   1.401   1_655 S
C1544  C1559   1.412   .     A
C1544  N1630   1.436   .     S
C1545  C1556   1.401   .     A
C1545  C1549   1.391   .     A
C1545  H1581   1.078   .     S
C1546  C1557   1.401   .     A
C1546  C1550   1.394   .     A
C1546  H1592   1.079   .     S
C1547  C1551   1.391   .     A
C1547  C1557   1.401   .     A
C1547  H1603   1.078   .     S
C1548  C1553   1.394   .     A
C1548  C1556   1.401   .     A
C1548  H1614   1.079   .     S
C1549  C1554   1.415   .     A
C1549  O1650   1.385   .     S
C1550  C1555   1.427   .     A
C1550  O1640   1.385   .     S
C1551  C1555   1.415   .     A
C1551  O1641   1.385   .     S
C1552  O1644   1.304   .     A
C1552  O1643   1.300   .     A
C1552  C1558   1.475   .     S
C1553  C1554   1.427   .     A
C1553  O1642   1.385   .     S
C1554  C1563   1.484   .     S
C1555  C1573   1.484   .     S
C1557  C566    1.488   1_556 S
C1559  C1578   1.416   .     A
C1560  H1585   1.108   .     S
C1560  O1650   1.421   .     S
C1560  C1561   1.540   .     S
C1560  H1586   1.115   .     S
C1561  H1588   1.108   .     S
C1561  H1587   1.109   .     S
C1561  C1892   1.527   .     S
C1562  H1590   1.111   .     S
C1562  H1591   1.108   .     S
C1563  O1649   1.299   .     A
C1563  O1646   1.311   .     A
C1564  H1594   1.118   .     S
C1564  O1640   1.420   .     S
C1564  C1565   1.530   .     S
C1564  H1593   1.112   .     S
C1565  H1596   1.111   .     S
C1565  C1566   1.526   .     S
C1565  H1595   1.108   .     S
C1566  H1599   1.111   .     S
C1566  H1598   1.110   .     S
C1566  H1597   1.111   .     S
C1567  H1601   1.115   .     S
C1567  O1641   1.421   .     S
C1567  H1600   1.108   .     S
C1567  C1568   1.540   .     S
C1568  H1604   1.108   .     S
C1568  H1602   1.109   .     S
C1568  C1899   1.527   .     S
C1569  H1607   1.108   .     S
C1569  H1606   1.111   .     S
C1570  C1571   1.530   .     S
C1570  O1642   1.420   .     S
C1570  H1609   1.118   .     S
C1570  H1608   1.112   .     S
C1571  H1610   1.108   .     S
C1571  H1611   1.111   .     S
C1571  C1572   1.526   .     S
C1572  H1615   1.111   .     S
C1572  H1612   1.111   .     S
C1572  H1613   1.110   .     S
C1573  O1647   1.299   .     A
C1573  O1648   1.311   .     A
C1574  N1631   1.385   .     A
C1574  N1632   1.437   .     S
C1575  N1633   1.436   .     S
C1575  N1629   1.366   .     A
C1575  C1906   1.425   .     S
C1576  N1631   1.385   .     A
C1576  N1634   1.437   .     S
C1577  N1635   1.436   .     S
C1577  N1629   1.366   .     A
C1577  C1904   1.425   .     S
C1578  N1636   1.438   .     S
Cu1579 O1646   1.976   .     S
Cu1579 O1644   1.993   .     S
Cu1579 O1648   1.976   .     S
Cu1579 O1639   1.993   .     S
Cu1579 Cu1580  2.696   .     S
Cu1579 N1629   2.026   .     S
Cu1580 O1647   1.976   .     S
Cu1580 O1649   1.976   .     S
Cu1580 O1643   1.993   .     S
Cu1580 N1631   2.026   .     S
Cu1580 O1645   1.993   .     S
H1582  N1634   1.044   .     S
H1583  N1635   1.035   .     S
H1584  N1635   1.043   .     S
H1589  C1892   1.111   .     S
H1605  C1899   1.111   .     S
H1616  N1636   1.045   .     S
H1617  N1636   1.045   .     S
H1618  N1637   1.045   .     S
H1619  N1637   1.044   .     S
H1620  N1638   1.045   .     S
H1621  N1638   1.045   .     S
H1622  N1630   1.046   .     S
H1623  N1630   1.044   .     S
H1624  N1632   1.026   .     S
H1625  N1632   1.044   .     S
H1626  N1633   1.035   .     S
H1627  N1633   1.043   .     S
H1628  N1634   1.026   .     S
C1651  O1749   1.304   .     A
C1651  C1669   1.475   .     S
C1651  O1755   1.300   .     A
C1652  C1668   1.412   .     A
C1652  N1747   1.436   .     S
C1652  C1764   1.397   .     S
C1653  C1668   1.416   .     A
C1653  N1748   1.438   .     S
C1653  C1798   1.401   .     S
C1654  C1669   1.412   .     A
C1654  N1740   1.436   .     S
C1654  C1872   1.397   1_455 S
C1655  C1666   1.401   .     A
C1655  C1659   1.391   .     A
C1655  H1691   1.078   .     S
C1656  C1667   1.401   .     A
C1656  C1660   1.394   .     A
C1656  H1702   1.079   .     S
C1657  C1661   1.391   .     A
C1657  C1667   1.401   .     A
C1657  H1713   1.078   .     S
C1658  C1663   1.394   .     A
C1658  C1666   1.401   .     A
C1658  H1724   1.079   .     S
C1659  C1664   1.415   .     A
C1659  O1760   1.385   .     S
C1660  C1665   1.427   .     A
C1660  O1750   1.385   .     S
C1661  C1665   1.415   .     A
C1661  O1751   1.385   .     S
C1662  O1754   1.304   .     A
C1662  O1753   1.300   .     A
C1662  C1668   1.475   .     S
C1663  C1664   1.427   .     A
C1663  O1752   1.385   .     S
C1664  C1673   1.484   .     S
C1665  C1683   1.484   .     S
C1667  C676    1.488   1_556 S
C1669  C1688   1.416   .     A
C1670  H1695   1.108   .     S
C1670  O1760   1.421   .     S
C1670  C1671   1.540   .     S
C1670  H1696   1.115   .     S
C1671  H1698   1.108   .     S
C1671  H1697   1.109   .     S
C1671  C1012   1.527   1_565 S
C1672  H1700   1.111   .     S
C1672  H1701   1.108   .     S
C1673  O1759   1.299   .     A
C1673  O1756   1.311   .     A
C1674  H1704   1.118   .     S
C1674  O1750   1.420   .     S
C1674  C1675   1.530   .     S
C1674  H1703   1.112   .     S
C1675  H1706   1.111   .     S
C1675  C1676   1.526   .     S
C1675  H1705   1.108   .     S
C1676  H1709   1.111   .     S
C1676  H1708   1.110   .     S
C1676  H1707   1.111   .     S
C1677  H1711   1.115   .     S
C1677  O1751   1.421   .     S
C1677  H1710   1.108   .     S
C1677  C1678   1.540   .     S
C1678  H1714   1.108   .     S
C1678  H1712   1.109   .     S
C1678  C1019   1.527   1_565 S
C1679  H1717   1.108   .     S
C1679  H1716   1.111   .     S
C1680  C1681   1.530   .     S
C1680  O1752   1.420   .     S
C1680  H1719   1.118   .     S
C1680  H1718   1.112   .     S
C1681  H1720   1.108   .     S
C1681  H1721   1.111   .     S
C1681  C1682   1.526   .     S
C1682  H1725   1.111   .     S
C1682  H1722   1.111   .     S
C1682  H1723   1.110   .     S
C1683  O1757   1.299   .     A
C1683  O1758   1.311   .     A
C1684  N1741   1.385   .     A
C1684  N1742   1.437   .     S
C1685  N1743   1.436   .     S
C1685  N1739   1.366   .     A
C1685  C1026   1.425   1_565 S
C1686  N1741   1.385   .     A
C1686  N1744   1.437   .     S
C1687  N1745   1.436   .     S
C1687  N1739   1.366   .     A
C1687  C1024   1.425   1_565 S
C1688  N1746   1.438   .     S
C1688  C1873   1.401   1_455 S
Cu1689 O1756   1.976   .     S
Cu1689 O1754   1.993   .     S
Cu1689 O1758   1.976   .     S
Cu1689 O1749   1.993   .     S
Cu1689 Cu1690  2.696   .     S
Cu1689 N1739   2.026   .     S
Cu1690 O1757   1.976   .     S
Cu1690 O1759   1.976   .     S
Cu1690 O1753   1.993   .     S
Cu1690 N1741   2.026   .     S
Cu1690 O1755   1.993   .     S
H1692  N1744   1.044   .     S
H1693  N1745   1.035   .     S
H1694  N1745   1.043   .     S
H1699  C1012   1.111   1_565 S
H1715  C1019   1.111   1_565 S
H1726  N1746   1.045   .     S
H1727  N1746   1.045   .     S
H1728  N1747   1.045   .     S
H1729  N1747   1.044   .     S
H1730  N1748   1.045   .     S
H1731  N1748   1.045   .     S
H1732  N1740   1.046   .     S
H1733  N1740   1.044   .     S
H1734  N1742   1.026   .     S
H1735  N1742   1.044   .     S
H1736  N1743   1.035   .     S
H1737  N1743   1.043   .     S
H1738  N1744   1.026   .     S
C1761  O1859   1.304   .     A
C1761  C1779   1.475   .     S
C1761  O1865   1.300   .     A
C1762  C1778   1.412   .     A
C1762  N1857   1.436   .     S
C1762  C1874   1.397   .     S
C1763  C1778   1.416   .     A
C1763  N1858   1.438   .     S
C1763  C1908   1.401   .     S
C1764  C1779   1.412   .     A
C1764  N1850   1.436   .     S
C1765  C1776   1.401   .     A
C1765  C1769   1.391   .     A
C1765  H1801   1.078   .     S
C1766  C1777   1.401   .     A
C1766  C1770   1.394   .     A
C1766  H1812   1.079   .     S
C1767  C1771   1.391   .     A
C1767  C1777   1.401   .     A
C1767  H1823   1.078   .     S
C1768  C1773   1.394   .     A
C1768  C1776   1.401   .     A
C1768  H1834   1.079   .     S
C1769  C1774   1.415   .     A
C1769  O1870   1.385   .     S
C1770  C1775   1.427   .     A
C1770  O1860   1.385   .     S
C1771  C1775   1.415   .     A
C1771  O1861   1.385   .     S
C1772  O1864   1.304   .     A
C1772  O1863   1.300   .     A
C1772  C1778   1.475   .     S
C1773  C1774   1.427   .     A
C1773  O1862   1.385   .     S
C1774  C1783   1.484   .     S
C1775  C1793   1.484   .     S
C1777  C786    1.488   1_556 S
C1779  C1798   1.416   .     A
C1780  H1805   1.108   .     S
C1780  O1870   1.421   .     S
C1780  C1781   1.540   .     S
C1780  H1806   1.115   .     S
C1781  H1808   1.108   .     S
C1781  H1807   1.109   .     S
C1781  C1122   1.527   1_565 S
C1782  H1810   1.111   .     S
C1782  H1811   1.108   .     S
C1783  O1869   1.299   .     A
C1783  O1866   1.311   .     A
C1784  H1814   1.118   .     S
C1784  O1860   1.420   .     S
C1784  C1785   1.530   .     S
C1784  H1813   1.112   .     S
C1785  H1816   1.111   .     S
C1785  C1786   1.526   .     S
C1785  H1815   1.108   .     S
C1786  H1819   1.111   .     S
C1786  H1818   1.110   .     S
C1786  H1817   1.111   .     S
C1787  H1821   1.115   .     S
C1787  O1861   1.421   .     S
C1787  H1820   1.108   .     S
C1787  C1788   1.540   .     S
C1788  H1824   1.108   .     S
C1788  H1822   1.109   .     S
C1788  C1129   1.527   1_565 S
C1789  H1827   1.108   .     S
C1789  H1826   1.111   .     S
C1790  C1791   1.530   .     S
C1790  O1862   1.420   .     S
C1790  H1829   1.118   .     S
C1790  H1828   1.112   .     S
C1791  H1830   1.108   .     S
C1791  H1831   1.111   .     S
C1791  C1792   1.526   .     S
C1792  H1835   1.111   .     S
C1792  H1832   1.111   .     S
C1792  H1833   1.110   .     S
C1793  O1867   1.299   .     A
C1793  O1868   1.311   .     A
C1794  N1851   1.385   .     A
C1794  N1852   1.437   .     S
C1795  N1853   1.436   .     S
C1795  N1849   1.366   .     A
C1795  C1136   1.425   1_565 S
C1796  N1851   1.385   .     A
C1796  N1854   1.437   .     S
C1797  N1855   1.436   .     S
C1797  N1849   1.366   .     A
C1797  C1134   1.425   1_565 S
C1798  N1856   1.438   .     S
Cu1799 O1866   1.976   .     S
Cu1799 O1864   1.993   .     S
Cu1799 O1868   1.976   .     S
Cu1799 O1859   1.993   .     S
Cu1799 Cu1800  2.696   .     S
Cu1799 N1849   2.026   .     S
Cu1800 O1867   1.976   .     S
Cu1800 O1869   1.976   .     S
Cu1800 O1863   1.993   .     S
Cu1800 N1851   2.026   .     S
Cu1800 O1865   1.993   .     S
H1802  N1854   1.044   .     S
H1803  N1855   1.035   .     S
H1804  N1855   1.043   .     S
H1809  C1122   1.111   1_565 S
H1825  C1129   1.111   1_565 S
H1836  N1856   1.045   .     S
H1837  N1856   1.045   .     S
H1838  N1857   1.045   .     S
H1839  N1857   1.044   .     S
H1840  N1858   1.045   .     S
H1841  N1858   1.045   .     S
H1842  N1850   1.046   .     S
H1843  N1850   1.044   .     S
H1844  N1852   1.026   .     S
H1845  N1852   1.044   .     S
H1846  N1853   1.035   .     S
H1847  N1853   1.043   .     S
H1848  N1854   1.026   .     S
C1871  O1969   1.304   .     A
C1871  C1889   1.475   .     S
C1871  O1975   1.300   .     A
C1872  C1888   1.412   .     A
C1872  N1967   1.436   .     S
C1872  C1654   1.397   1_655 S
C1873  C1888   1.416   .     A
C1873  N1968   1.438   .     S
C1873  C1688   1.401   1_655 S
C1874  C1889   1.412   .     A
C1874  N1960   1.436   .     S
C1875  C1886   1.401   .     A
C1875  C1879   1.391   .     A
C1875  H1911   1.078   .     S
C1876  C1887   1.401   .     A
C1876  C1880   1.394   .     A
C1876  H1922   1.079   .     S
C1877  C1881   1.391   .     A
C1877  C1887   1.401   .     A
C1877  H1933   1.078   .     S
C1878  C1883   1.394   .     A
C1878  C1886   1.401   .     A
C1878  H1944   1.079   .     S
C1879  C1884   1.415   .     A
C1879  O1980   1.385   .     S
C1880  C1885   1.427   .     A
C1880  O1970   1.385   .     S
C1881  C1885   1.415   .     A
C1881  O1971   1.385   .     S
C1882  O1974   1.304   .     A
C1882  O1973   1.300   .     A
C1882  C1888   1.475   .     S
C1883  C1884   1.427   .     A
C1883  O1972   1.385   .     S
C1884  C1893   1.484   .     S
C1885  C1903   1.484   .     S
C1887  C896    1.488   1_556 S
C1889  C1908   1.416   .     A
C1890  H1915   1.108   .     S
C1890  O1980   1.421   .     S
C1890  C1891   1.540   .     S
C1890  H1916   1.115   .     S
C1891  H1918   1.108   .     S
C1891  H1917   1.109   .     S
C1891  C1232   1.527   1_565 S
C1892  H1920   1.111   .     S
C1892  H1921   1.108   .     S
C1893  O1979   1.299   .     A
C1893  O1976   1.311   .     A
C1894  H1924   1.118   .     S
C1894  O1970   1.420   .     S
C1894  C1895   1.530   .     S
C1894  H1923   1.112   .     S
C1895  H1926   1.111   .     S
C1895  C1896   1.526   .     S
C1895  H1925   1.108   .     S
C1896  H1929   1.111   .     S
C1896  H1928   1.110   .     S
C1896  H1927   1.111   .     S
C1897  H1931   1.115   .     S
C1897  O1971   1.421   .     S
C1897  H1930   1.108   .     S
C1897  C1898   1.540   .     S
C1898  H1934   1.108   .     S
C1898  H1932   1.109   .     S
C1898  C1239   1.527   1_565 S
C1899  H1937   1.108   .     S
C1899  H1936   1.111   .     S
C1900  C1901   1.530   .     S
C1900  O1972   1.420   .     S
C1900  H1939   1.118   .     S
C1900  H1938   1.112   .     S
C1901  H1940   1.108   .     S
C1901  H1941   1.111   .     S
C1901  C1902   1.526   .     S
C1902  H1945   1.111   .     S
C1902  H1942   1.111   .     S
C1902  H1943   1.110   .     S
C1903  O1977   1.299   .     A
C1903  O1978   1.311   .     A
C1904  N1961   1.385   .     A
C1904  N1962   1.437   .     S
C1905  N1963   1.436   .     S
C1905  N1959   1.366   .     A
C1905  C1246   1.425   1_565 S
C1906  N1961   1.385   .     A
C1906  N1964   1.437   .     S
C1907  N1965   1.436   .     S
C1907  N1959   1.366   .     A
C1907  C1244   1.425   1_565 S
C1908  N1966   1.438   .     S
Cu1909 O1976   1.976   .     S
Cu1909 O1974   1.993   .     S
Cu1909 O1978   1.976   .     S
Cu1909 O1969   1.993   .     S
Cu1909 Cu1910  2.696   .     S
Cu1909 N1959   2.026   .     S
Cu1910 O1977   1.976   .     S
Cu1910 O1979   1.976   .     S
Cu1910 O1973   1.993   .     S
Cu1910 N1961   2.026   .     S
Cu1910 O1975   1.993   .     S
H1912  N1964   1.044   .     S
H1913  N1965   1.035   .     S
H1914  N1965   1.043   .     S
H1919  C1232   1.111   1_565 S
H1935  C1239   1.111   1_565 S
H1946  N1966   1.045   .     S
H1947  N1966   1.045   .     S
H1948  N1967   1.045   .     S
H1949  N1967   1.044   .     S
H1950  N1968   1.045   .     S
H1951  N1968   1.045   .     S
H1952  N1960   1.046   .     S
H1953  N1960   1.044   .     S
H1954  N1962   1.026   .     S
H1955  N1962   1.044   .     S
H1956  N1963   1.035   .     S
H1957  N1963   1.043   .     S
H1958  N1964   1.026   .     S
