data_str_m2_o1_o18_pcu_sym.115
_audit_creation_date              2020-01-03
_audit_creation_method            'Materials Studio'
_symmetry_space_group_name_H-M    'P1'
_symmetry_Int_Tables_number       1
_symmetry_cell_setting            triclinic
loop_
_symmetry_equiv_pos_as_xyz
  x,y,z
_cell_length_a                    28.5831
_cell_length_b                    32.4841
_cell_length_c                    30.7352
_cell_angle_alpha                 89.6681
_cell_angle_beta                  74.1968
_cell_angle_gamma                 89.9361
loop_
_atom_site_label
_atom_site_type_symbol
_atom_site_fract_x
_atom_site_fract_y
_atom_site_fract_z
_atom_site_U_iso_or_equiv
_atom_site_adp_type
_atom_site_occupancy
C1     C     0.33333   0.08740   0.25004   0.00000  Uiso   1.00
C2     C     0.00001   0.24593   0.24992   0.00000  Uiso   1.00
C3     C     0.19750   0.16995   0.05259   0.00000  Uiso   1.00
C4     C     0.15346   0.21815   0.46194   0.00000  Uiso   1.00
C5     C     0.24712   0.16342   0.02930   0.00000  Uiso   1.00
C6     C     0.10409   0.22591   0.48446   0.00000  Uiso   1.00
C7     C     0.29014   0.02123   0.26960   0.00000  Uiso   1.00
C8     C     0.04319   0.31209   0.23030   0.00000  Uiso   1.00
C9     C     0.29013   0.31194   0.26952   0.00000  Uiso   1.00
C10    C     0.04321   0.02138   0.23040   0.00000  Uiso   1.00
C11    C     0.33332   0.29054   0.24988   0.00000  Uiso   1.00
C12    C     0.00002   0.04279   0.25004   0.00000  Uiso   1.00
C13    C     0.18346   0.14050   0.27754   0.00000  Uiso   1.00
C14    C     0.14984   0.19285   0.22250   0.00000  Uiso   1.00
C15    C     0.13388   0.14051   0.27759   0.00000  Uiso   1.00
C16    C     0.19935   0.19296   0.22260   0.00000  Uiso   1.00
C17    C     0.30594   0.16628   0.33649   0.00000  Uiso   1.00
C18    C     0.02738   0.16821   0.16377   0.00000  Uiso   1.00
C19    C     0.29121   0.16654   0.38655   0.00000  Uiso   1.00
C20    C     0.04298   0.17781   0.11519   0.00000  Uiso   1.00
C21    C     0.31058   0.15809   0.45817   0.00000  Uiso   1.00
C22    C     0.03585   0.21936   0.05178   0.00000  Uiso   1.00
C23    C     0.32538   0.15945   0.41113   0.00000  Uiso   1.00
C24    C     0.01642   0.20523   0.09584   0.00000  Uiso   1.00
C25    C     0.24246   0.17405   0.41024   0.00000  Uiso   1.00
C26    C     0.08933   0.16548   0.09017   0.00000  Uiso   1.00
C27    C     0.22855   0.17802   0.45774   0.00000  Uiso   1.00
C28    C     0.11290   0.18557   0.04922   0.00000  Uiso   1.00
C29    C     0.26202   0.16619   0.48192   0.00000  Uiso   1.00
C30    C     0.08418   0.21014   0.02816   0.00000  Uiso   1.00
C31    C     0.18133   0.19136   0.48173   0.00000  Uiso   1.00
C32    C     0.16353   0.18101   0.02811   0.00000  Uiso   1.00
Cu33   Cu    0.04689   0.16667   0.25000   0.00000  Uiso   1.00
Cu34   Cu    0.28645   0.16666   0.25000   0.00000  Uiso   1.00
H35    H     0.00423   0.15069   0.47584   0.00000  Uiso   1.00
H36    H     0.01365   0.23930   0.03721   0.00000  Uiso   1.00
H37    H     0.19573   0.11955   0.29962   0.00000  Uiso   1.00
H38    H     0.13756   0.21383   0.20046   0.00000  Uiso   1.00
N39    N     0.11736   0.16668   0.24999   0.00000  Uiso   1.00
N40    N     0.21597   0.16666   0.25001   0.00000  Uiso   1.00
O41    O     0.03958   0.10655   0.25000   0.00000  Uiso   1.00
O42    O     0.29375   0.22678   0.25000   0.00000  Uiso   1.00
O43    O     0.29372   0.10654   0.25001   0.00000  Uiso   1.00
O44    O     0.03961   0.22679   0.25000   0.00000  Uiso   1.00
O45    O     0.01852   0.16668   0.31492   0.00000  Uiso   1.00
O46    O     0.31481   0.16666   0.18509   0.00000  Uiso   1.00
O47    O     0.27267   0.16667   0.31492   0.00000  Uiso   1.00
O48    O     0.06067   0.16667   0.18508   0.00000  Uiso   1.00
O49    O     0.28187   0.15385   0.05152   0.00000  Uiso   1.00
H50    H     0.26978   0.16032   0.08396   0.00000  Uiso   1.00
O51    O     0.07445   0.24819   0.46416   0.00000  Uiso   1.00
H52    H     0.08664   0.24506   0.43093   0.00000  Uiso   1.00
F53    F     0.10934   0.13188   0.10466   0.00000  Uiso   1.00
F54    F     0.20776   0.17387   0.38750   0.00000  Uiso   1.00
F55    F     0.30565   0.21935   0.11976   0.00000  Uiso   1.00
F56    F     0.03947   0.15187   0.38996   0.00000  Uiso   1.00
O57    O     0.18346   0.17165   0.09916   0.00000  Uiso   1.00
H58    H     0.19583   0.14651   0.11074   0.00000  Uiso   1.00
O59    O     0.17700   0.24057   0.42386   0.00000  Uiso   1.00
H60    H     0.15978   0.26699   0.42343   0.00000  Uiso   1.00
F61    F     0.24821   0.04130   0.28986   0.00000  Uiso   1.00
F62    F     0.08511   0.29202   0.21002   0.00000  Uiso   1.00
F63    F     0.24819   0.29170   0.28971   0.00000  Uiso   1.00
F64    F     0.08515   0.04163   0.21024   0.00000  Uiso   1.00
F65    F     0.10264   0.11417   0.30534   0.00000  Uiso   1.00
F66    F     0.23032   0.21980   0.19544   0.00000  Uiso   1.00
C67    C     0.66666   0.08740   0.25004   0.00000  Uiso   1.00
C68    C     0.33335   0.24593   0.24992   0.00000  Uiso   1.00
C69    C     0.53084   0.16995   0.05259   0.00000  Uiso   1.00
C70    C     0.48679   0.21815   0.46194   0.00000  Uiso   1.00
C71    C     0.58046   0.16342   0.02930   0.00000  Uiso   1.00
C72    C     0.43742   0.22591   0.48446   0.00000  Uiso   1.00
C73    C     0.62347   0.02123   0.26960   0.00000  Uiso   1.00
C74    C     0.37652   0.31209   0.23030   0.00000  Uiso   1.00
C75    C     0.62346   0.31194   0.26952   0.00000  Uiso   1.00
C76    C     0.37654   0.02138   0.23040   0.00000  Uiso   1.00
C77    C     0.66666   0.29054   0.24988   0.00000  Uiso   1.00
C78    C     0.33335   0.04279   0.25004   0.00000  Uiso   1.00
C79    C     0.51680   0.14050   0.27754   0.00000  Uiso   1.00
C80    C     0.48318   0.19285   0.22250   0.00000  Uiso   1.00
C81    C     0.46721   0.14051   0.27759   0.00000  Uiso   1.00
C82    C     0.53269   0.19296   0.22260   0.00000  Uiso   1.00
C83    C     0.63927   0.16628   0.33649   0.00000  Uiso   1.00
C84    C     0.36071   0.16821   0.16377   0.00000  Uiso   1.00
C85    C     0.62454   0.16654   0.38655   0.00000  Uiso   1.00
C86    C     0.37632   0.17781   0.11519   0.00000  Uiso   1.00
C87    C     0.64391   0.15809   0.45817   0.00000  Uiso   1.00
C88    C     0.36918   0.21936   0.05178   0.00000  Uiso   1.00
C89    C     0.65871   0.15945   0.41113   0.00000  Uiso   1.00
C90    C     0.34976   0.20523   0.09584   0.00000  Uiso   1.00
C91    C     0.57580   0.17405   0.41024   0.00000  Uiso   1.00
C92    C     0.42267   0.16548   0.09017   0.00000  Uiso   1.00
C93    C     0.56189   0.17802   0.45774   0.00000  Uiso   1.00
C94    C     0.44624   0.18557   0.04922   0.00000  Uiso   1.00
C95    C     0.59535   0.16619   0.48192   0.00000  Uiso   1.00
C96    C     0.41751   0.21014   0.02816   0.00000  Uiso   1.00
C97    C     0.51466   0.19136   0.48173   0.00000  Uiso   1.00
C98    C     0.49687   0.18101   0.02811   0.00000  Uiso   1.00
Cu99   Cu    0.38022   0.16667   0.25000   0.00000  Uiso   1.00
Cu100  Cu    0.61978   0.16666   0.25000   0.00000  Uiso   1.00
H101   H     0.33756   0.15069   0.47584   0.00000  Uiso   1.00
H102   H     0.34699   0.23930   0.03721   0.00000  Uiso   1.00
H103   H     0.52906   0.11955   0.29962   0.00000  Uiso   1.00
H104   H     0.47090   0.21383   0.20046   0.00000  Uiso   1.00
N105   N     0.45069   0.16668   0.24999   0.00000  Uiso   1.00
N106   N     0.54931   0.16666   0.25001   0.00000  Uiso   1.00
O107   O     0.37291   0.10655   0.25000   0.00000  Uiso   1.00
O108   O     0.62709   0.22678   0.25000   0.00000  Uiso   1.00
O109   O     0.62706   0.10654   0.25001   0.00000  Uiso   1.00
O110   O     0.37294   0.22679   0.25000   0.00000  Uiso   1.00
O111   O     0.35186   0.16668   0.31492   0.00000  Uiso   1.00
O112   O     0.64814   0.16666   0.18509   0.00000  Uiso   1.00
O113   O     0.60600   0.16667   0.31492   0.00000  Uiso   1.00
O114   O     0.39400   0.16667   0.18508   0.00000  Uiso   1.00
O115   O     0.61520   0.15385   0.05152   0.00000  Uiso   1.00
H116   H     0.60311   0.16032   0.08396   0.00000  Uiso   1.00
O117   O     0.40778   0.24819   0.46416   0.00000  Uiso   1.00
H118   H     0.41997   0.24506   0.43093   0.00000  Uiso   1.00
F119   F     0.44267   0.13188   0.10466   0.00000  Uiso   1.00
F120   F     0.54110   0.17387   0.38750   0.00000  Uiso   1.00
F121   F     0.63899   0.21935   0.11976   0.00000  Uiso   1.00
F122   F     0.37280   0.15187   0.38996   0.00000  Uiso   1.00
O123   O     0.51680   0.17165   0.09916   0.00000  Uiso   1.00
H124   H     0.52917   0.14651   0.11074   0.00000  Uiso   1.00
O125   O     0.51033   0.24057   0.42386   0.00000  Uiso   1.00
H126   H     0.49312   0.26699   0.42343   0.00000  Uiso   1.00
F127   F     0.58154   0.04130   0.28986   0.00000  Uiso   1.00
F128   F     0.41844   0.29202   0.21002   0.00000  Uiso   1.00
F129   F     0.58152   0.29170   0.28971   0.00000  Uiso   1.00
F130   F     0.41848   0.04163   0.21024   0.00000  Uiso   1.00
F131   F     0.43597   0.11417   0.30534   0.00000  Uiso   1.00
F132   F     0.56365   0.21980   0.19544   0.00000  Uiso   1.00
C133   C     0.99999   0.08740   0.25004   0.00000  Uiso   1.00
C134   C     0.66668   0.24593   0.24992   0.00000  Uiso   1.00
C135   C     0.86417   0.16995   0.05259   0.00000  Uiso   1.00
C136   C     0.82013   0.21815   0.46194   0.00000  Uiso   1.00
C137   C     0.91379   0.16342   0.02930   0.00000  Uiso   1.00
C138   C     0.77075   0.22591   0.48446   0.00000  Uiso   1.00
C139   C     0.95681   0.02123   0.26960   0.00000  Uiso   1.00
C140   C     0.70986   0.31209   0.23030   0.00000  Uiso   1.00
C141   C     0.95679   0.31194   0.26952   0.00000  Uiso   1.00
C142   C     0.70988   0.02138   0.23040   0.00000  Uiso   1.00
C143   C     0.99999   0.29054   0.24988   0.00000  Uiso   1.00
C144   C     0.66668   0.04279   0.25004   0.00000  Uiso   1.00
C145   C     0.85013   0.14050   0.27754   0.00000  Uiso   1.00
C146   C     0.81651   0.19285   0.22250   0.00000  Uiso   1.00
C147   C     0.80055   0.14051   0.27759   0.00000  Uiso   1.00
C148   C     0.86602   0.19296   0.22260   0.00000  Uiso   1.00
C149   C     0.97260   0.16628   0.33649   0.00000  Uiso   1.00
C150   C     0.69405   0.16821   0.16377   0.00000  Uiso   1.00
C151   C     0.95787   0.16654   0.38655   0.00000  Uiso   1.00
C152   C     0.70965   0.17781   0.11519   0.00000  Uiso   1.00
C153   C     0.97725   0.15809   0.45817   0.00000  Uiso   1.00
C154   C     0.70252   0.21936   0.05178   0.00000  Uiso   1.00
C155   C     0.99204   0.15945   0.41113   0.00000  Uiso   1.00
C156   C     0.68309   0.20523   0.09584   0.00000  Uiso   1.00
C157   C     0.90913   0.17405   0.41024   0.00000  Uiso   1.00
C158   C     0.75600   0.16548   0.09017   0.00000  Uiso   1.00
C159   C     0.89522   0.17802   0.45774   0.00000  Uiso   1.00
C160   C     0.77957   0.18557   0.04922   0.00000  Uiso   1.00
C161   C     0.92869   0.16619   0.48192   0.00000  Uiso   1.00
C162   C     0.75085   0.21014   0.02816   0.00000  Uiso   1.00
C163   C     0.84800   0.19136   0.48173   0.00000  Uiso   1.00
C164   C     0.83020   0.18101   0.02811   0.00000  Uiso   1.00
Cu165  Cu    0.71355   0.16667   0.25000   0.00000  Uiso   1.00
Cu166  Cu    0.95311   0.16666   0.25000   0.00000  Uiso   1.00
H167   H     0.67089   0.15069   0.47584   0.00000  Uiso   1.00
H168   H     0.68032   0.23930   0.03721   0.00000  Uiso   1.00
H169   H     0.86240   0.11955   0.29962   0.00000  Uiso   1.00
H170   H     0.80423   0.21383   0.20046   0.00000  Uiso   1.00
N171   N     0.78403   0.16668   0.24999   0.00000  Uiso   1.00
N172   N     0.88264   0.16666   0.25001   0.00000  Uiso   1.00
O173   O     0.70625   0.10655   0.25000   0.00000  Uiso   1.00
O174   O     0.96042   0.22678   0.25000   0.00000  Uiso   1.00
O175   O     0.96039   0.10654   0.25001   0.00000  Uiso   1.00
O176   O     0.70628   0.22679   0.25000   0.00000  Uiso   1.00
O177   O     0.68519   0.16668   0.31492   0.00000  Uiso   1.00
O178   O     0.98148   0.16666   0.18509   0.00000  Uiso   1.00
O179   O     0.93933   0.16667   0.31492   0.00000  Uiso   1.00
O180   O     0.72733   0.16667   0.18508   0.00000  Uiso   1.00
O181   O     0.94854   0.15385   0.05152   0.00000  Uiso   1.00
H182   H     0.93645   0.16032   0.08396   0.00000  Uiso   1.00
O183   O     0.74112   0.24819   0.46416   0.00000  Uiso   1.00
H184   H     0.75330   0.24506   0.43093   0.00000  Uiso   1.00
F185   F     0.77600   0.13188   0.10466   0.00000  Uiso   1.00
F186   F     0.87443   0.17387   0.38750   0.00000  Uiso   1.00
F187   F     0.97232   0.21935   0.11976   0.00000  Uiso   1.00
F188   F     0.70614   0.15187   0.38996   0.00000  Uiso   1.00
O189   O     0.85013   0.17165   0.09916   0.00000  Uiso   1.00
H190   H     0.86250   0.14651   0.11074   0.00000  Uiso   1.00
O191   O     0.84366   0.24057   0.42386   0.00000  Uiso   1.00
H192   H     0.82645   0.26699   0.42343   0.00000  Uiso   1.00
F193   F     0.91488   0.04130   0.28986   0.00000  Uiso   1.00
F194   F     0.75178   0.29202   0.21002   0.00000  Uiso   1.00
F195   F     0.91486   0.29170   0.28971   0.00000  Uiso   1.00
F196   F     0.75182   0.04163   0.21024   0.00000  Uiso   1.00
F197   F     0.76930   0.11417   0.30534   0.00000  Uiso   1.00
F198   F     0.89699   0.21980   0.19544   0.00000  Uiso   1.00
C199   C     0.33333   0.42073   0.25004   0.00000  Uiso   1.00
C200   C     0.00001   0.57927   0.24992   0.00000  Uiso   1.00
C201   C     0.19750   0.50328   0.05259   0.00000  Uiso   1.00
C202   C     0.15346   0.55148   0.46194   0.00000  Uiso   1.00
C203   C     0.24712   0.49675   0.02930   0.00000  Uiso   1.00
C204   C     0.10409   0.55924   0.48446   0.00000  Uiso   1.00
C205   C     0.29014   0.35456   0.26960   0.00000  Uiso   1.00
C206   C     0.04319   0.64543   0.23030   0.00000  Uiso   1.00
C207   C     0.29013   0.64527   0.26952   0.00000  Uiso   1.00
C208   C     0.04321   0.35472   0.23040   0.00000  Uiso   1.00
C209   C     0.33332   0.62387   0.24988   0.00000  Uiso   1.00
C210   C     0.00002   0.37612   0.25004   0.00000  Uiso   1.00
C211   C     0.18346   0.47383   0.27754   0.00000  Uiso   1.00
C212   C     0.14984   0.52618   0.22250   0.00000  Uiso   1.00
C213   C     0.13388   0.47384   0.27759   0.00000  Uiso   1.00
C214   C     0.19935   0.52630   0.22260   0.00000  Uiso   1.00
C215   C     0.30594   0.49961   0.33649   0.00000  Uiso   1.00
C216   C     0.02738   0.50154   0.16377   0.00000  Uiso   1.00
C217   C     0.29121   0.49987   0.38655   0.00000  Uiso   1.00
C218   C     0.04298   0.51115   0.11519   0.00000  Uiso   1.00
C219   C     0.31058   0.49142   0.45817   0.00000  Uiso   1.00
C220   C     0.03585   0.55269   0.05178   0.00000  Uiso   1.00
C221   C     0.32538   0.49278   0.41113   0.00000  Uiso   1.00
C222   C     0.01642   0.53856   0.09584   0.00000  Uiso   1.00
C223   C     0.24246   0.50739   0.41024   0.00000  Uiso   1.00
C224   C     0.08933   0.49881   0.09017   0.00000  Uiso   1.00
C225   C     0.22855   0.51136   0.45774   0.00000  Uiso   1.00
C226   C     0.11290   0.51891   0.04922   0.00000  Uiso   1.00
C227   C     0.26202   0.49952   0.48192   0.00000  Uiso   1.00
C228   C     0.08418   0.54347   0.02816   0.00000  Uiso   1.00
C229   C     0.18133   0.52469   0.48173   0.00000  Uiso   1.00
C230   C     0.16353   0.51434   0.02811   0.00000  Uiso   1.00
Cu231  Cu    0.04689   0.50001   0.25000   0.00000  Uiso   1.00
Cu232  Cu    0.28645   0.49999   0.25000   0.00000  Uiso   1.00
H233   H     0.00423   0.48402   0.47584   0.00000  Uiso   1.00
H234   H     0.01365   0.57264   0.03721   0.00000  Uiso   1.00
H235   H     0.19573   0.45288   0.29962   0.00000  Uiso   1.00
H236   H     0.13756   0.54717   0.20046   0.00000  Uiso   1.00
N237   N     0.11736   0.50001   0.24999   0.00000  Uiso   1.00
N238   N     0.21597   0.49999   0.25001   0.00000  Uiso   1.00
O239   O     0.03958   0.43989   0.25000   0.00000  Uiso   1.00
O240   O     0.29375   0.56011   0.25000   0.00000  Uiso   1.00
O241   O     0.29372   0.43988   0.25001   0.00000  Uiso   1.00
O242   O     0.03961   0.56012   0.25000   0.00000  Uiso   1.00
O243   O     0.01852   0.50001   0.31492   0.00000  Uiso   1.00
O244   O     0.31481   0.49999   0.18509   0.00000  Uiso   1.00
O245   O     0.27267   0.50000   0.31492   0.00000  Uiso   1.00
O246   O     0.06067   0.50000   0.18508   0.00000  Uiso   1.00
O247   O     0.28187   0.48718   0.05152   0.00000  Uiso   1.00
H248   H     0.26978   0.49365   0.08396   0.00000  Uiso   1.00
O249   O     0.07445   0.58153   0.46416   0.00000  Uiso   1.00
H250   H     0.08664   0.57839   0.43093   0.00000  Uiso   1.00
F251   F     0.10934   0.46522   0.10466   0.00000  Uiso   1.00
F252   F     0.20776   0.50720   0.38750   0.00000  Uiso   1.00
F253   F     0.30565   0.55268   0.11976   0.00000  Uiso   1.00
F254   F     0.03947   0.48520   0.38996   0.00000  Uiso   1.00
O255   O     0.18346   0.50498   0.09916   0.00000  Uiso   1.00
H256   H     0.19583   0.47985   0.11074   0.00000  Uiso   1.00
O257   O     0.17700   0.57391   0.42386   0.00000  Uiso   1.00
H258   H     0.15978   0.60032   0.42343   0.00000  Uiso   1.00
F259   F     0.24821   0.37463   0.28986   0.00000  Uiso   1.00
F260   F     0.08511   0.62535   0.21002   0.00000  Uiso   1.00
F261   F     0.24819   0.62503   0.28971   0.00000  Uiso   1.00
F262   F     0.08515   0.37496   0.21024   0.00000  Uiso   1.00
F263   F     0.10264   0.44750   0.30534   0.00000  Uiso   1.00
F264   F     0.23032   0.55313   0.19544   0.00000  Uiso   1.00
C265   C     0.66666   0.42073   0.25004   0.00000  Uiso   1.00
C266   C     0.33335   0.57927   0.24992   0.00000  Uiso   1.00
C267   C     0.53084   0.50328   0.05259   0.00000  Uiso   1.00
C268   C     0.48679   0.55148   0.46194   0.00000  Uiso   1.00
C269   C     0.58046   0.49675   0.02930   0.00000  Uiso   1.00
C270   C     0.43742   0.55924   0.48446   0.00000  Uiso   1.00
C271   C     0.62347   0.35456   0.26960   0.00000  Uiso   1.00
C272   C     0.37652   0.64543   0.23030   0.00000  Uiso   1.00
C273   C     0.62346   0.64527   0.26952   0.00000  Uiso   1.00
C274   C     0.37654   0.35472   0.23040   0.00000  Uiso   1.00
C275   C     0.66666   0.62387   0.24988   0.00000  Uiso   1.00
C276   C     0.33335   0.37612   0.25004   0.00000  Uiso   1.00
C277   C     0.51680   0.47383   0.27754   0.00000  Uiso   1.00
C278   C     0.48318   0.52618   0.22250   0.00000  Uiso   1.00
C279   C     0.46721   0.47384   0.27759   0.00000  Uiso   1.00
C280   C     0.53269   0.52630   0.22260   0.00000  Uiso   1.00
C281   C     0.63927   0.49961   0.33649   0.00000  Uiso   1.00
C282   C     0.36071   0.50154   0.16377   0.00000  Uiso   1.00
C283   C     0.62454   0.49987   0.38655   0.00000  Uiso   1.00
C284   C     0.37632   0.51115   0.11519   0.00000  Uiso   1.00
C285   C     0.64391   0.49142   0.45817   0.00000  Uiso   1.00
C286   C     0.36918   0.55269   0.05178   0.00000  Uiso   1.00
C287   C     0.65871   0.49278   0.41113   0.00000  Uiso   1.00
C288   C     0.34976   0.53856   0.09584   0.00000  Uiso   1.00
C289   C     0.57580   0.50739   0.41024   0.00000  Uiso   1.00
C290   C     0.42267   0.49881   0.09017   0.00000  Uiso   1.00
C291   C     0.56189   0.51136   0.45774   0.00000  Uiso   1.00
C292   C     0.44624   0.51891   0.04922   0.00000  Uiso   1.00
C293   C     0.59535   0.49952   0.48192   0.00000  Uiso   1.00
C294   C     0.41751   0.54347   0.02816   0.00000  Uiso   1.00
C295   C     0.51466   0.52469   0.48173   0.00000  Uiso   1.00
C296   C     0.49687   0.51434   0.02811   0.00000  Uiso   1.00
Cu297  Cu    0.38022   0.50001   0.25000   0.00000  Uiso   1.00
Cu298  Cu    0.61978   0.49999   0.25000   0.00000  Uiso   1.00
H299   H     0.33756   0.48402   0.47584   0.00000  Uiso   1.00
H300   H     0.34699   0.57264   0.03721   0.00000  Uiso   1.00
H301   H     0.52906   0.45288   0.29962   0.00000  Uiso   1.00
H302   H     0.47090   0.54717   0.20046   0.00000  Uiso   1.00
N303   N     0.45069   0.50001   0.24999   0.00000  Uiso   1.00
N304   N     0.54931   0.49999   0.25001   0.00000  Uiso   1.00
O305   O     0.37291   0.43989   0.25000   0.00000  Uiso   1.00
O306   O     0.62709   0.56011   0.25000   0.00000  Uiso   1.00
O307   O     0.62706   0.43988   0.25001   0.00000  Uiso   1.00
O308   O     0.37294   0.56012   0.25000   0.00000  Uiso   1.00
O309   O     0.35186   0.50001   0.31492   0.00000  Uiso   1.00
O310   O     0.64814   0.49999   0.18509   0.00000  Uiso   1.00
O311   O     0.60600   0.50000   0.31492   0.00000  Uiso   1.00
O312   O     0.39400   0.50000   0.18508   0.00000  Uiso   1.00
O313   O     0.61520   0.48718   0.05152   0.00000  Uiso   1.00
H314   H     0.60311   0.49365   0.08396   0.00000  Uiso   1.00
O315   O     0.40778   0.58153   0.46416   0.00000  Uiso   1.00
H316   H     0.41997   0.57839   0.43093   0.00000  Uiso   1.00
F317   F     0.44267   0.46522   0.10466   0.00000  Uiso   1.00
F318   F     0.54110   0.50720   0.38750   0.00000  Uiso   1.00
F319   F     0.63899   0.55268   0.11976   0.00000  Uiso   1.00
F320   F     0.37280   0.48520   0.38996   0.00000  Uiso   1.00
O321   O     0.51680   0.50498   0.09916   0.00000  Uiso   1.00
H322   H     0.52917   0.47985   0.11074   0.00000  Uiso   1.00
O323   O     0.51033   0.57391   0.42386   0.00000  Uiso   1.00
H324   H     0.49312   0.60032   0.42343   0.00000  Uiso   1.00
F325   F     0.58154   0.37463   0.28986   0.00000  Uiso   1.00
F326   F     0.41844   0.62535   0.21002   0.00000  Uiso   1.00
F327   F     0.58152   0.62503   0.28971   0.00000  Uiso   1.00
F328   F     0.41848   0.37496   0.21024   0.00000  Uiso   1.00
F329   F     0.43597   0.44750   0.30534   0.00000  Uiso   1.00
F330   F     0.56365   0.55313   0.19544   0.00000  Uiso   1.00
C331   C     0.99999   0.42073   0.25004   0.00000  Uiso   1.00
C332   C     0.66668   0.57927   0.24992   0.00000  Uiso   1.00
C333   C     0.86417   0.50328   0.05259   0.00000  Uiso   1.00
C334   C     0.82013   0.55148   0.46194   0.00000  Uiso   1.00
C335   C     0.91379   0.49675   0.02930   0.00000  Uiso   1.00
C336   C     0.77075   0.55924   0.48446   0.00000  Uiso   1.00
C337   C     0.95681   0.35456   0.26960   0.00000  Uiso   1.00
C338   C     0.70986   0.64543   0.23030   0.00000  Uiso   1.00
C339   C     0.95679   0.64527   0.26952   0.00000  Uiso   1.00
C340   C     0.70988   0.35472   0.23040   0.00000  Uiso   1.00
C341   C     0.99999   0.62387   0.24988   0.00000  Uiso   1.00
C342   C     0.66668   0.37612   0.25004   0.00000  Uiso   1.00
C343   C     0.85013   0.47383   0.27754   0.00000  Uiso   1.00
C344   C     0.81651   0.52618   0.22250   0.00000  Uiso   1.00
C345   C     0.80055   0.47384   0.27759   0.00000  Uiso   1.00
C346   C     0.86602   0.52630   0.22260   0.00000  Uiso   1.00
C347   C     0.97260   0.49961   0.33649   0.00000  Uiso   1.00
C348   C     0.69405   0.50154   0.16377   0.00000  Uiso   1.00
C349   C     0.95787   0.49987   0.38655   0.00000  Uiso   1.00
C350   C     0.70965   0.51115   0.11519   0.00000  Uiso   1.00
C351   C     0.97725   0.49142   0.45817   0.00000  Uiso   1.00
C352   C     0.70252   0.55269   0.05178   0.00000  Uiso   1.00
C353   C     0.99204   0.49278   0.41113   0.00000  Uiso   1.00
C354   C     0.68309   0.53856   0.09584   0.00000  Uiso   1.00
C355   C     0.90913   0.50739   0.41024   0.00000  Uiso   1.00
C356   C     0.75600   0.49881   0.09017   0.00000  Uiso   1.00
C357   C     0.89522   0.51136   0.45774   0.00000  Uiso   1.00
C358   C     0.77957   0.51891   0.04922   0.00000  Uiso   1.00
C359   C     0.92869   0.49952   0.48192   0.00000  Uiso   1.00
C360   C     0.75085   0.54347   0.02816   0.00000  Uiso   1.00
C361   C     0.84800   0.52469   0.48173   0.00000  Uiso   1.00
C362   C     0.83020   0.51434   0.02811   0.00000  Uiso   1.00
Cu363  Cu    0.71355   0.50001   0.25000   0.00000  Uiso   1.00
Cu364  Cu    0.95311   0.49999   0.25000   0.00000  Uiso   1.00
H365   H     0.67089   0.48402   0.47584   0.00000  Uiso   1.00
H366   H     0.68032   0.57264   0.03721   0.00000  Uiso   1.00
H367   H     0.86240   0.45288   0.29962   0.00000  Uiso   1.00
H368   H     0.80423   0.54717   0.20046   0.00000  Uiso   1.00
N369   N     0.78403   0.50001   0.24999   0.00000  Uiso   1.00
N370   N     0.88264   0.49999   0.25001   0.00000  Uiso   1.00
O371   O     0.70625   0.43989   0.25000   0.00000  Uiso   1.00
O372   O     0.96042   0.56011   0.25000   0.00000  Uiso   1.00
O373   O     0.96039   0.43988   0.25001   0.00000  Uiso   1.00
O374   O     0.70628   0.56012   0.25000   0.00000  Uiso   1.00
O375   O     0.68519   0.50001   0.31492   0.00000  Uiso   1.00
O376   O     0.98148   0.49999   0.18509   0.00000  Uiso   1.00
O377   O     0.93933   0.50000   0.31492   0.00000  Uiso   1.00
O378   O     0.72733   0.50000   0.18508   0.00000  Uiso   1.00
O379   O     0.94854   0.48718   0.05152   0.00000  Uiso   1.00
H380   H     0.93645   0.49365   0.08396   0.00000  Uiso   1.00
O381   O     0.74112   0.58153   0.46416   0.00000  Uiso   1.00
H382   H     0.75330   0.57839   0.43093   0.00000  Uiso   1.00
F383   F     0.77600   0.46522   0.10466   0.00000  Uiso   1.00
F384   F     0.87443   0.50720   0.38750   0.00000  Uiso   1.00
F385   F     0.97232   0.55268   0.11976   0.00000  Uiso   1.00
F386   F     0.70614   0.48520   0.38996   0.00000  Uiso   1.00
O387   O     0.85013   0.50498   0.09916   0.00000  Uiso   1.00
H388   H     0.86250   0.47985   0.11074   0.00000  Uiso   1.00
O389   O     0.84366   0.57391   0.42386   0.00000  Uiso   1.00
H390   H     0.82645   0.60032   0.42343   0.00000  Uiso   1.00
F391   F     0.91488   0.37463   0.28986   0.00000  Uiso   1.00
F392   F     0.75178   0.62535   0.21002   0.00000  Uiso   1.00
F393   F     0.91486   0.62503   0.28971   0.00000  Uiso   1.00
F394   F     0.75182   0.37496   0.21024   0.00000  Uiso   1.00
F395   F     0.76930   0.44750   0.30534   0.00000  Uiso   1.00
F396   F     0.89699   0.55313   0.19544   0.00000  Uiso   1.00
C397   C     0.33333   0.75406   0.25004   0.00000  Uiso   1.00
C398   C     0.00001   0.91260   0.24992   0.00000  Uiso   1.00
C399   C     0.19750   0.83661   0.05259   0.00000  Uiso   1.00
C400   C     0.15346   0.88481   0.46194   0.00000  Uiso   1.00
C401   C     0.24712   0.83008   0.02930   0.00000  Uiso   1.00
C402   C     0.10409   0.89257   0.48446   0.00000  Uiso   1.00
C403   C     0.29014   0.68790   0.26960   0.00000  Uiso   1.00
C404   C     0.04319   0.97876   0.23030   0.00000  Uiso   1.00
C405   C     0.29013   0.97860   0.26952   0.00000  Uiso   1.00
C406   C     0.04321   0.68805   0.23040   0.00000  Uiso   1.00
C407   C     0.33332   0.95720   0.24988   0.00000  Uiso   1.00
C408   C     0.00002   0.70945   0.25004   0.00000  Uiso   1.00
C409   C     0.18346   0.80716   0.27754   0.00000  Uiso   1.00
C410   C     0.14984   0.85952   0.22250   0.00000  Uiso   1.00
C411   C     0.13388   0.80717   0.27759   0.00000  Uiso   1.00
C412   C     0.19935   0.85963   0.22260   0.00000  Uiso   1.00
C413   C     0.30594   0.83294   0.33649   0.00000  Uiso   1.00
C414   C     0.02738   0.83487   0.16377   0.00000  Uiso   1.00
C415   C     0.29121   0.83321   0.38655   0.00000  Uiso   1.00
C416   C     0.04298   0.84448   0.11519   0.00000  Uiso   1.00
C417   C     0.31058   0.82476   0.45817   0.00000  Uiso   1.00
C418   C     0.03585   0.88603   0.05178   0.00000  Uiso   1.00
C419   C     0.32538   0.82611   0.41113   0.00000  Uiso   1.00
C420   C     0.01642   0.87189   0.09584   0.00000  Uiso   1.00
C421   C     0.24246   0.84072   0.41024   0.00000  Uiso   1.00
C422   C     0.08933   0.83215   0.09017   0.00000  Uiso   1.00
C423   C     0.22855   0.84469   0.45774   0.00000  Uiso   1.00
C424   C     0.11290   0.85224   0.04922   0.00000  Uiso   1.00
C425   C     0.26202   0.83285   0.48192   0.00000  Uiso   1.00
C426   C     0.08418   0.87681   0.02816   0.00000  Uiso   1.00
C427   C     0.18133   0.85803   0.48173   0.00000  Uiso   1.00
C428   C     0.16353   0.84767   0.02811   0.00000  Uiso   1.00
Cu429  Cu    0.04689   0.83334   0.25000   0.00000  Uiso   1.00
Cu430  Cu    0.28645   0.83333   0.25000   0.00000  Uiso   1.00
H431   H     0.00423   0.81736   0.47584   0.00000  Uiso   1.00
H432   H     0.01365   0.90597   0.03721   0.00000  Uiso   1.00
H433   H     0.19573   0.78622   0.29962   0.00000  Uiso   1.00
H434   H     0.13756   0.88050   0.20046   0.00000  Uiso   1.00
N435   N     0.11736   0.83334   0.24999   0.00000  Uiso   1.00
N436   N     0.21597   0.83332   0.25001   0.00000  Uiso   1.00
O437   O     0.03958   0.77322   0.25000   0.00000  Uiso   1.00
O438   O     0.29375   0.89345   0.25000   0.00000  Uiso   1.00
O439   O     0.29372   0.77321   0.25001   0.00000  Uiso   1.00
O440   O     0.03961   0.89346   0.25000   0.00000  Uiso   1.00
O441   O     0.01852   0.83334   0.31492   0.00000  Uiso   1.00
O442   O     0.31481   0.83332   0.18509   0.00000  Uiso   1.00
O443   O     0.27267   0.83333   0.31492   0.00000  Uiso   1.00
O444   O     0.06067   0.83333   0.18508   0.00000  Uiso   1.00
O445   O     0.28187   0.82052   0.05152   0.00000  Uiso   1.00
H446   H     0.26978   0.82698   0.08396   0.00000  Uiso   1.00
O447   O     0.07445   0.91486   0.46416   0.00000  Uiso   1.00
H448   H     0.08664   0.91172   0.43093   0.00000  Uiso   1.00
F449   F     0.10934   0.79855   0.10466   0.00000  Uiso   1.00
F450   F     0.20776   0.84054   0.38750   0.00000  Uiso   1.00
F451   F     0.30565   0.88602   0.11976   0.00000  Uiso   1.00
F452   F     0.03947   0.81854   0.38996   0.00000  Uiso   1.00
O453   O     0.18346   0.83832   0.09916   0.00000  Uiso   1.00
H454   H     0.19583   0.81318   0.11074   0.00000  Uiso   1.00
O455   O     0.17700   0.90724   0.42386   0.00000  Uiso   1.00
H456   H     0.15978   0.93365   0.42343   0.00000  Uiso   1.00
F457   F     0.24821   0.70797   0.28986   0.00000  Uiso   1.00
F458   F     0.08511   0.95868   0.21002   0.00000  Uiso   1.00
F459   F     0.24819   0.95836   0.28971   0.00000  Uiso   1.00
F460   F     0.08515   0.70830   0.21024   0.00000  Uiso   1.00
F461   F     0.10264   0.78083   0.30534   0.00000  Uiso   1.00
F462   F     0.23032   0.88647   0.19544   0.00000  Uiso   1.00
C463   C     0.66666   0.75406   0.25004   0.00000  Uiso   1.00
C464   C     0.33335   0.91260   0.24992   0.00000  Uiso   1.00
C465   C     0.53084   0.83661   0.05259   0.00000  Uiso   1.00
C466   C     0.48679   0.88481   0.46194   0.00000  Uiso   1.00
C467   C     0.58046   0.83008   0.02930   0.00000  Uiso   1.00
C468   C     0.43742   0.89257   0.48446   0.00000  Uiso   1.00
C469   C     0.62347   0.68790   0.26960   0.00000  Uiso   1.00
C470   C     0.37652   0.97876   0.23030   0.00000  Uiso   1.00
C471   C     0.62346   0.97860   0.26952   0.00000  Uiso   1.00
C472   C     0.37654   0.68805   0.23040   0.00000  Uiso   1.00
C473   C     0.66666   0.95720   0.24988   0.00000  Uiso   1.00
C474   C     0.33335   0.70945   0.25004   0.00000  Uiso   1.00
C475   C     0.51680   0.80716   0.27754   0.00000  Uiso   1.00
C476   C     0.48318   0.85952   0.22250   0.00000  Uiso   1.00
C477   C     0.46721   0.80717   0.27759   0.00000  Uiso   1.00
C478   C     0.53269   0.85963   0.22260   0.00000  Uiso   1.00
C479   C     0.63927   0.83294   0.33649   0.00000  Uiso   1.00
C480   C     0.36071   0.83487   0.16377   0.00000  Uiso   1.00
C481   C     0.62454   0.83321   0.38655   0.00000  Uiso   1.00
C482   C     0.37632   0.84448   0.11519   0.00000  Uiso   1.00
C483   C     0.64391   0.82476   0.45817   0.00000  Uiso   1.00
C484   C     0.36918   0.88603   0.05178   0.00000  Uiso   1.00
C485   C     0.65871   0.82611   0.41113   0.00000  Uiso   1.00
C486   C     0.34976   0.87189   0.09584   0.00000  Uiso   1.00
C487   C     0.57580   0.84072   0.41024   0.00000  Uiso   1.00
C488   C     0.42267   0.83215   0.09017   0.00000  Uiso   1.00
C489   C     0.56189   0.84469   0.45774   0.00000  Uiso   1.00
C490   C     0.44624   0.85224   0.04922   0.00000  Uiso   1.00
C491   C     0.59535   0.83285   0.48192   0.00000  Uiso   1.00
C492   C     0.41751   0.87681   0.02816   0.00000  Uiso   1.00
C493   C     0.51466   0.85803   0.48173   0.00000  Uiso   1.00
C494   C     0.49687   0.84767   0.02811   0.00000  Uiso   1.00
Cu495  Cu    0.38022   0.83334   0.25000   0.00000  Uiso   1.00
Cu496  Cu    0.61978   0.83333   0.25000   0.00000  Uiso   1.00
H497   H     0.33756   0.81736   0.47584   0.00000  Uiso   1.00
H498   H     0.34699   0.90597   0.03721   0.00000  Uiso   1.00
H499   H     0.52906   0.78622   0.29962   0.00000  Uiso   1.00
H500   H     0.47090   0.88050   0.20046   0.00000  Uiso   1.00
N501   N     0.45069   0.83334   0.24999   0.00000  Uiso   1.00
N502   N     0.54931   0.83332   0.25001   0.00000  Uiso   1.00
O503   O     0.37291   0.77322   0.25000   0.00000  Uiso   1.00
O504   O     0.62709   0.89345   0.25000   0.00000  Uiso   1.00
O505   O     0.62706   0.77321   0.25001   0.00000  Uiso   1.00
O506   O     0.37294   0.89346   0.25000   0.00000  Uiso   1.00
O507   O     0.35186   0.83334   0.31492   0.00000  Uiso   1.00
O508   O     0.64814   0.83332   0.18509   0.00000  Uiso   1.00
O509   O     0.60600   0.83333   0.31492   0.00000  Uiso   1.00
O510   O     0.39400   0.83333   0.18508   0.00000  Uiso   1.00
O511   O     0.61520   0.82052   0.05152   0.00000  Uiso   1.00
H512   H     0.60311   0.82698   0.08396   0.00000  Uiso   1.00
O513   O     0.40778   0.91486   0.46416   0.00000  Uiso   1.00
H514   H     0.41997   0.91172   0.43093   0.00000  Uiso   1.00
F515   F     0.44267   0.79855   0.10466   0.00000  Uiso   1.00
F516   F     0.54110   0.84054   0.38750   0.00000  Uiso   1.00
F517   F     0.63899   0.88602   0.11976   0.00000  Uiso   1.00
F518   F     0.37280   0.81854   0.38996   0.00000  Uiso   1.00
O519   O     0.51680   0.83832   0.09916   0.00000  Uiso   1.00
H520   H     0.52917   0.81318   0.11074   0.00000  Uiso   1.00
O521   O     0.51033   0.90724   0.42386   0.00000  Uiso   1.00
H522   H     0.49312   0.93365   0.42343   0.00000  Uiso   1.00
F523   F     0.58154   0.70797   0.28986   0.00000  Uiso   1.00
F524   F     0.41844   0.95868   0.21002   0.00000  Uiso   1.00
F525   F     0.58152   0.95836   0.28971   0.00000  Uiso   1.00
F526   F     0.41848   0.70830   0.21024   0.00000  Uiso   1.00
F527   F     0.43597   0.78083   0.30534   0.00000  Uiso   1.00
F528   F     0.56365   0.88647   0.19544   0.00000  Uiso   1.00
C529   C     0.99999   0.75406   0.25004   0.00000  Uiso   1.00
C530   C     0.66668   0.91260   0.24992   0.00000  Uiso   1.00
C531   C     0.86417   0.83661   0.05259   0.00000  Uiso   1.00
C532   C     0.82013   0.88481   0.46194   0.00000  Uiso   1.00
C533   C     0.91379   0.83008   0.02930   0.00000  Uiso   1.00
C534   C     0.77075   0.89257   0.48446   0.00000  Uiso   1.00
C535   C     0.95681   0.68790   0.26960   0.00000  Uiso   1.00
C536   C     0.70986   0.97876   0.23030   0.00000  Uiso   1.00
C537   C     0.95679   0.97860   0.26952   0.00000  Uiso   1.00
C538   C     0.70988   0.68805   0.23040   0.00000  Uiso   1.00
C539   C     0.99999   0.95720   0.24988   0.00000  Uiso   1.00
C540   C     0.66668   0.70945   0.25004   0.00000  Uiso   1.00
C541   C     0.85013   0.80716   0.27754   0.00000  Uiso   1.00
C542   C     0.81651   0.85952   0.22250   0.00000  Uiso   1.00
C543   C     0.80055   0.80717   0.27759   0.00000  Uiso   1.00
C544   C     0.86602   0.85963   0.22260   0.00000  Uiso   1.00
C545   C     0.97260   0.83294   0.33649   0.00000  Uiso   1.00
C546   C     0.69405   0.83487   0.16377   0.00000  Uiso   1.00
C547   C     0.95787   0.83321   0.38655   0.00000  Uiso   1.00
C548   C     0.70965   0.84448   0.11519   0.00000  Uiso   1.00
C549   C     0.97725   0.82476   0.45817   0.00000  Uiso   1.00
C550   C     0.70252   0.88603   0.05178   0.00000  Uiso   1.00
C551   C     0.99204   0.82611   0.41113   0.00000  Uiso   1.00
C552   C     0.68309   0.87189   0.09584   0.00000  Uiso   1.00
C553   C     0.90913   0.84072   0.41024   0.00000  Uiso   1.00
C554   C     0.75600   0.83215   0.09017   0.00000  Uiso   1.00
C555   C     0.89522   0.84469   0.45774   0.00000  Uiso   1.00
C556   C     0.77957   0.85224   0.04922   0.00000  Uiso   1.00
C557   C     0.92869   0.83285   0.48192   0.00000  Uiso   1.00
C558   C     0.75085   0.87681   0.02816   0.00000  Uiso   1.00
C559   C     0.84800   0.85803   0.48173   0.00000  Uiso   1.00
C560   C     0.83020   0.84767   0.02811   0.00000  Uiso   1.00
Cu561  Cu    0.71355   0.83334   0.25000   0.00000  Uiso   1.00
Cu562  Cu    0.95311   0.83333   0.25000   0.00000  Uiso   1.00
H563   H     0.67089   0.81736   0.47584   0.00000  Uiso   1.00
H564   H     0.68032   0.90597   0.03721   0.00000  Uiso   1.00
H565   H     0.86240   0.78622   0.29962   0.00000  Uiso   1.00
H566   H     0.80423   0.88050   0.20046   0.00000  Uiso   1.00
N567   N     0.78403   0.83334   0.24999   0.00000  Uiso   1.00
N568   N     0.88264   0.83332   0.25001   0.00000  Uiso   1.00
O569   O     0.70625   0.77322   0.25000   0.00000  Uiso   1.00
O570   O     0.96042   0.89345   0.25000   0.00000  Uiso   1.00
O571   O     0.96039   0.77321   0.25001   0.00000  Uiso   1.00
O572   O     0.70628   0.89346   0.25000   0.00000  Uiso   1.00
O573   O     0.68519   0.83334   0.31492   0.00000  Uiso   1.00
O574   O     0.98148   0.83332   0.18509   0.00000  Uiso   1.00
O575   O     0.93933   0.83333   0.31492   0.00000  Uiso   1.00
O576   O     0.72733   0.83333   0.18508   0.00000  Uiso   1.00
O577   O     0.94854   0.82052   0.05152   0.00000  Uiso   1.00
H578   H     0.93645   0.82698   0.08396   0.00000  Uiso   1.00
O579   O     0.74112   0.91486   0.46416   0.00000  Uiso   1.00
H580   H     0.75330   0.91172   0.43093   0.00000  Uiso   1.00
F581   F     0.77600   0.79855   0.10466   0.00000  Uiso   1.00
F582   F     0.87443   0.84054   0.38750   0.00000  Uiso   1.00
F583   F     0.97232   0.88602   0.11976   0.00000  Uiso   1.00
F584   F     0.70614   0.81854   0.38996   0.00000  Uiso   1.00
O585   O     0.85013   0.83832   0.09916   0.00000  Uiso   1.00
H586   H     0.86250   0.81318   0.11074   0.00000  Uiso   1.00
O587   O     0.84366   0.90724   0.42386   0.00000  Uiso   1.00
H588   H     0.82645   0.93365   0.42343   0.00000  Uiso   1.00
F589   F     0.91488   0.70797   0.28986   0.00000  Uiso   1.00
F590   F     0.75178   0.95868   0.21002   0.00000  Uiso   1.00
F591   F     0.91486   0.95836   0.28971   0.00000  Uiso   1.00
F592   F     0.75182   0.70830   0.21024   0.00000  Uiso   1.00
F593   F     0.76930   0.78083   0.30534   0.00000  Uiso   1.00
F594   F     0.89699   0.88647   0.19544   0.00000  Uiso   1.00
C595   C     0.33333   0.08740   0.75004   0.00000  Uiso   1.00
C596   C     0.00001   0.24593   0.74992   0.00000  Uiso   1.00
C597   C     0.19750   0.16995   0.55259   0.00000  Uiso   1.00
C598   C     0.15346   0.21815   0.96194   0.00000  Uiso   1.00
C599   C     0.24712   0.16342   0.52930   0.00000  Uiso   1.00
C600   C     0.10409   0.22591   0.98446   0.00000  Uiso   1.00
C601   C     0.29014   0.02123   0.76960   0.00000  Uiso   1.00
C602   C     0.04319   0.31209   0.73030   0.00000  Uiso   1.00
C603   C     0.29013   0.31194   0.76952   0.00000  Uiso   1.00
C604   C     0.04321   0.02138   0.73040   0.00000  Uiso   1.00
C605   C     0.33332   0.29054   0.74988   0.00000  Uiso   1.00
C606   C     0.00002   0.04279   0.75004   0.00000  Uiso   1.00
C607   C     0.18346   0.14050   0.77754   0.00000  Uiso   1.00
C608   C     0.14984   0.19285   0.72250   0.00000  Uiso   1.00
C609   C     0.13388   0.14051   0.77759   0.00000  Uiso   1.00
C610   C     0.19935   0.19296   0.72260   0.00000  Uiso   1.00
C611   C     0.30594   0.16628   0.83649   0.00000  Uiso   1.00
C612   C     0.02738   0.16821   0.66377   0.00000  Uiso   1.00
C613   C     0.29121   0.16654   0.88655   0.00000  Uiso   1.00
C614   C     0.04298   0.17781   0.61519   0.00000  Uiso   1.00
C615   C     0.31058   0.15809   0.95817   0.00000  Uiso   1.00
C616   C     0.03585   0.21936   0.55178   0.00000  Uiso   1.00
C617   C     0.32538   0.15945   0.91113   0.00000  Uiso   1.00
C618   C     0.01642   0.20523   0.59584   0.00000  Uiso   1.00
C619   C     0.24246   0.17405   0.91024   0.00000  Uiso   1.00
C620   C     0.08933   0.16548   0.59017   0.00000  Uiso   1.00
C621   C     0.22855   0.17802   0.95774   0.00000  Uiso   1.00
C622   C     0.11290   0.18557   0.54922   0.00000  Uiso   1.00
C623   C     0.26202   0.16619   0.98192   0.00000  Uiso   1.00
C624   C     0.08418   0.21014   0.52816   0.00000  Uiso   1.00
C625   C     0.18133   0.19136   0.98173   0.00000  Uiso   1.00
C626   C     0.16353   0.18101   0.52811   0.00000  Uiso   1.00
Cu627  Cu    0.04689   0.16667   0.75000   0.00000  Uiso   1.00
Cu628  Cu    0.28645   0.16666   0.75000   0.00000  Uiso   1.00
H629   H     0.00423   0.15069   0.97584   0.00000  Uiso   1.00
H630   H     0.01365   0.23930   0.53721   0.00000  Uiso   1.00
H631   H     0.19573   0.11955   0.79962   0.00000  Uiso   1.00
H632   H     0.13756   0.21383   0.70046   0.00000  Uiso   1.00
N633   N     0.11736   0.16668   0.74999   0.00000  Uiso   1.00
N634   N     0.21597   0.16666   0.75001   0.00000  Uiso   1.00
O635   O     0.03958   0.10655   0.75000   0.00000  Uiso   1.00
O636   O     0.29375   0.22678   0.75000   0.00000  Uiso   1.00
O637   O     0.29372   0.10654   0.75001   0.00000  Uiso   1.00
O638   O     0.03961   0.22679   0.75000   0.00000  Uiso   1.00
O639   O     0.01852   0.16668   0.81492   0.00000  Uiso   1.00
O640   O     0.31481   0.16666   0.68509   0.00000  Uiso   1.00
O641   O     0.27267   0.16667   0.81492   0.00000  Uiso   1.00
O642   O     0.06067   0.16667   0.68508   0.00000  Uiso   1.00
O643   O     0.28187   0.15385   0.55152   0.00000  Uiso   1.00
H644   H     0.26978   0.16032   0.58396   0.00000  Uiso   1.00
O645   O     0.07445   0.24819   0.96416   0.00000  Uiso   1.00
H646   H     0.08664   0.24506   0.93093   0.00000  Uiso   1.00
F647   F     0.10934   0.13188   0.60466   0.00000  Uiso   1.00
F648   F     0.20776   0.17387   0.88750   0.00000  Uiso   1.00
F649   F     0.30565   0.21935   0.61976   0.00000  Uiso   1.00
F650   F     0.03947   0.15187   0.88996   0.00000  Uiso   1.00
O651   O     0.18346   0.17165   0.59916   0.00000  Uiso   1.00
H652   H     0.19583   0.14651   0.61074   0.00000  Uiso   1.00
O653   O     0.17700   0.24057   0.92386   0.00000  Uiso   1.00
H654   H     0.15978   0.26699   0.92343   0.00000  Uiso   1.00
F655   F     0.24821   0.04130   0.78986   0.00000  Uiso   1.00
F656   F     0.08511   0.29202   0.71002   0.00000  Uiso   1.00
F657   F     0.24819   0.29170   0.78971   0.00000  Uiso   1.00
F658   F     0.08515   0.04163   0.71024   0.00000  Uiso   1.00
F659   F     0.10264   0.11417   0.80534   0.00000  Uiso   1.00
F660   F     0.23032   0.21980   0.69544   0.00000  Uiso   1.00
C661   C     0.66666   0.08740   0.75004   0.00000  Uiso   1.00
C662   C     0.33335   0.24593   0.74992   0.00000  Uiso   1.00
C663   C     0.53084   0.16995   0.55259   0.00000  Uiso   1.00
C664   C     0.48679   0.21815   0.96194   0.00000  Uiso   1.00
C665   C     0.58046   0.16342   0.52930   0.00000  Uiso   1.00
C666   C     0.43742   0.22591   0.98446   0.00000  Uiso   1.00
C667   C     0.62347   0.02123   0.76960   0.00000  Uiso   1.00
C668   C     0.37652   0.31209   0.73030   0.00000  Uiso   1.00
C669   C     0.62346   0.31194   0.76952   0.00000  Uiso   1.00
C670   C     0.37654   0.02138   0.73040   0.00000  Uiso   1.00
C671   C     0.66666   0.29054   0.74988   0.00000  Uiso   1.00
C672   C     0.33335   0.04279   0.75004   0.00000  Uiso   1.00
C673   C     0.51680   0.14050   0.77754   0.00000  Uiso   1.00
C674   C     0.48318   0.19285   0.72250   0.00000  Uiso   1.00
C675   C     0.46721   0.14051   0.77759   0.00000  Uiso   1.00
C676   C     0.53269   0.19296   0.72260   0.00000  Uiso   1.00
C677   C     0.63927   0.16628   0.83649   0.00000  Uiso   1.00
C678   C     0.36071   0.16821   0.66377   0.00000  Uiso   1.00
C679   C     0.62454   0.16654   0.88655   0.00000  Uiso   1.00
C680   C     0.37632   0.17781   0.61519   0.00000  Uiso   1.00
C681   C     0.64391   0.15809   0.95817   0.00000  Uiso   1.00
C682   C     0.36918   0.21936   0.55178   0.00000  Uiso   1.00
C683   C     0.65871   0.15945   0.91113   0.00000  Uiso   1.00
C684   C     0.34976   0.20523   0.59584   0.00000  Uiso   1.00
C685   C     0.57580   0.17405   0.91024   0.00000  Uiso   1.00
C686   C     0.42267   0.16548   0.59017   0.00000  Uiso   1.00
C687   C     0.56189   0.17802   0.95774   0.00000  Uiso   1.00
C688   C     0.44624   0.18557   0.54922   0.00000  Uiso   1.00
C689   C     0.59535   0.16619   0.98192   0.00000  Uiso   1.00
C690   C     0.41751   0.21014   0.52816   0.00000  Uiso   1.00
C691   C     0.51466   0.19136   0.98173   0.00000  Uiso   1.00
C692   C     0.49687   0.18101   0.52811   0.00000  Uiso   1.00
Cu693  Cu    0.38022   0.16667   0.75000   0.00000  Uiso   1.00
Cu694  Cu    0.61978   0.16666   0.75000   0.00000  Uiso   1.00
H695   H     0.33756   0.15069   0.97584   0.00000  Uiso   1.00
H696   H     0.34699   0.23930   0.53721   0.00000  Uiso   1.00
H697   H     0.52906   0.11955   0.79962   0.00000  Uiso   1.00
H698   H     0.47090   0.21383   0.70046   0.00000  Uiso   1.00
N699   N     0.45069   0.16668   0.74999   0.00000  Uiso   1.00
N700   N     0.54931   0.16666   0.75001   0.00000  Uiso   1.00
O701   O     0.37291   0.10655   0.75000   0.00000  Uiso   1.00
O702   O     0.62709   0.22678   0.75000   0.00000  Uiso   1.00
O703   O     0.62706   0.10654   0.75001   0.00000  Uiso   1.00
O704   O     0.37294   0.22679   0.75000   0.00000  Uiso   1.00
O705   O     0.35186   0.16668   0.81492   0.00000  Uiso   1.00
O706   O     0.64814   0.16666   0.68509   0.00000  Uiso   1.00
O707   O     0.60600   0.16667   0.81492   0.00000  Uiso   1.00
O708   O     0.39400   0.16667   0.68508   0.00000  Uiso   1.00
O709   O     0.61520   0.15385   0.55152   0.00000  Uiso   1.00
H710   H     0.60311   0.16032   0.58396   0.00000  Uiso   1.00
O711   O     0.40778   0.24819   0.96416   0.00000  Uiso   1.00
H712   H     0.41997   0.24506   0.93093   0.00000  Uiso   1.00
F713   F     0.44267   0.13188   0.60466   0.00000  Uiso   1.00
F714   F     0.54110   0.17387   0.88750   0.00000  Uiso   1.00
F715   F     0.63899   0.21935   0.61976   0.00000  Uiso   1.00
F716   F     0.37280   0.15187   0.88996   0.00000  Uiso   1.00
O717   O     0.51680   0.17165   0.59916   0.00000  Uiso   1.00
H718   H     0.52917   0.14651   0.61074   0.00000  Uiso   1.00
O719   O     0.51033   0.24057   0.92386   0.00000  Uiso   1.00
H720   H     0.49312   0.26699   0.92343   0.00000  Uiso   1.00
F721   F     0.58154   0.04130   0.78986   0.00000  Uiso   1.00
F722   F     0.41844   0.29202   0.71002   0.00000  Uiso   1.00
F723   F     0.58152   0.29170   0.78971   0.00000  Uiso   1.00
F724   F     0.41848   0.04163   0.71024   0.00000  Uiso   1.00
F725   F     0.43597   0.11417   0.80534   0.00000  Uiso   1.00
F726   F     0.56365   0.21980   0.69544   0.00000  Uiso   1.00
C727   C     0.99999   0.08740   0.75004   0.00000  Uiso   1.00
C728   C     0.66668   0.24593   0.74992   0.00000  Uiso   1.00
C729   C     0.86417   0.16995   0.55259   0.00000  Uiso   1.00
C730   C     0.82013   0.21815   0.96194   0.00000  Uiso   1.00
C731   C     0.91379   0.16342   0.52930   0.00000  Uiso   1.00
C732   C     0.77075   0.22591   0.98446   0.00000  Uiso   1.00
C733   C     0.95681   0.02123   0.76960   0.00000  Uiso   1.00
C734   C     0.70986   0.31209   0.73030   0.00000  Uiso   1.00
C735   C     0.95679   0.31194   0.76952   0.00000  Uiso   1.00
C736   C     0.70988   0.02138   0.73040   0.00000  Uiso   1.00
C737   C     0.99999   0.29054   0.74988   0.00000  Uiso   1.00
C738   C     0.66668   0.04279   0.75004   0.00000  Uiso   1.00
C739   C     0.85013   0.14050   0.77754   0.00000  Uiso   1.00
C740   C     0.81651   0.19285   0.72250   0.00000  Uiso   1.00
C741   C     0.80055   0.14051   0.77759   0.00000  Uiso   1.00
C742   C     0.86602   0.19296   0.72260   0.00000  Uiso   1.00
C743   C     0.97260   0.16628   0.83649   0.00000  Uiso   1.00
C744   C     0.69405   0.16821   0.66377   0.00000  Uiso   1.00
C745   C     0.95787   0.16654   0.88655   0.00000  Uiso   1.00
C746   C     0.70965   0.17781   0.61519   0.00000  Uiso   1.00
C747   C     0.97725   0.15809   0.95817   0.00000  Uiso   1.00
C748   C     0.70252   0.21936   0.55178   0.00000  Uiso   1.00
C749   C     0.99204   0.15945   0.91113   0.00000  Uiso   1.00
C750   C     0.68309   0.20523   0.59584   0.00000  Uiso   1.00
C751   C     0.90913   0.17405   0.91024   0.00000  Uiso   1.00
C752   C     0.75600   0.16548   0.59017   0.00000  Uiso   1.00
C753   C     0.89522   0.17802   0.95774   0.00000  Uiso   1.00
C754   C     0.77957   0.18557   0.54922   0.00000  Uiso   1.00
C755   C     0.92869   0.16619   0.98192   0.00000  Uiso   1.00
C756   C     0.75085   0.21014   0.52816   0.00000  Uiso   1.00
C757   C     0.84800   0.19136   0.98173   0.00000  Uiso   1.00
C758   C     0.83020   0.18101   0.52811   0.00000  Uiso   1.00
Cu759  Cu    0.71355   0.16667   0.75000   0.00000  Uiso   1.00
Cu760  Cu    0.95311   0.16666   0.75000   0.00000  Uiso   1.00
H761   H     0.67089   0.15069   0.97584   0.00000  Uiso   1.00
H762   H     0.68032   0.23930   0.53721   0.00000  Uiso   1.00
H763   H     0.86240   0.11955   0.79962   0.00000  Uiso   1.00
H764   H     0.80423   0.21383   0.70046   0.00000  Uiso   1.00
N765   N     0.78403   0.16668   0.74999   0.00000  Uiso   1.00
N766   N     0.88264   0.16666   0.75001   0.00000  Uiso   1.00
O767   O     0.70625   0.10655   0.75000   0.00000  Uiso   1.00
O768   O     0.96042   0.22678   0.75000   0.00000  Uiso   1.00
O769   O     0.96039   0.10654   0.75001   0.00000  Uiso   1.00
O770   O     0.70628   0.22679   0.75000   0.00000  Uiso   1.00
O771   O     0.68519   0.16668   0.81492   0.00000  Uiso   1.00
O772   O     0.98148   0.16666   0.68509   0.00000  Uiso   1.00
O773   O     0.93933   0.16667   0.81492   0.00000  Uiso   1.00
O774   O     0.72733   0.16667   0.68508   0.00000  Uiso   1.00
O775   O     0.94854   0.15385   0.55152   0.00000  Uiso   1.00
H776   H     0.93645   0.16032   0.58396   0.00000  Uiso   1.00
O777   O     0.74112   0.24819   0.96416   0.00000  Uiso   1.00
H778   H     0.75330   0.24506   0.93093   0.00000  Uiso   1.00
F779   F     0.77600   0.13188   0.60466   0.00000  Uiso   1.00
F780   F     0.87443   0.17387   0.88750   0.00000  Uiso   1.00
F781   F     0.97232   0.21935   0.61976   0.00000  Uiso   1.00
F782   F     0.70614   0.15187   0.88996   0.00000  Uiso   1.00
O783   O     0.85013   0.17165   0.59916   0.00000  Uiso   1.00
H784   H     0.86250   0.14651   0.61074   0.00000  Uiso   1.00
O785   O     0.84366   0.24057   0.92386   0.00000  Uiso   1.00
H786   H     0.82645   0.26699   0.92343   0.00000  Uiso   1.00
F787   F     0.91488   0.04130   0.78986   0.00000  Uiso   1.00
F788   F     0.75178   0.29202   0.71002   0.00000  Uiso   1.00
F789   F     0.91486   0.29170   0.78971   0.00000  Uiso   1.00
F790   F     0.75182   0.04163   0.71024   0.00000  Uiso   1.00
F791   F     0.76930   0.11417   0.80534   0.00000  Uiso   1.00
F792   F     0.89699   0.21980   0.69544   0.00000  Uiso   1.00
C793   C     0.33333   0.42073   0.75004   0.00000  Uiso   1.00
C794   C     0.00001   0.57927   0.74992   0.00000  Uiso   1.00
C795   C     0.19750   0.50328   0.55259   0.00000  Uiso   1.00
C796   C     0.15346   0.55148   0.96194   0.00000  Uiso   1.00
C797   C     0.24712   0.49675   0.52930   0.00000  Uiso   1.00
C798   C     0.10409   0.55924   0.98446   0.00000  Uiso   1.00
C799   C     0.29014   0.35456   0.76960   0.00000  Uiso   1.00
C800   C     0.04319   0.64543   0.73030   0.00000  Uiso   1.00
C801   C     0.29013   0.64527   0.76952   0.00000  Uiso   1.00
C802   C     0.04321   0.35472   0.73040   0.00000  Uiso   1.00
C803   C     0.33332   0.62387   0.74988   0.00000  Uiso   1.00
C804   C     0.00002   0.37612   0.75004   0.00000  Uiso   1.00
C805   C     0.18346   0.47383   0.77754   0.00000  Uiso   1.00
C806   C     0.14984   0.52618   0.72250   0.00000  Uiso   1.00
C807   C     0.13388   0.47384   0.77759   0.00000  Uiso   1.00
C808   C     0.19935   0.52630   0.72260   0.00000  Uiso   1.00
C809   C     0.30594   0.49961   0.83649   0.00000  Uiso   1.00
C810   C     0.02738   0.50154   0.66377   0.00000  Uiso   1.00
C811   C     0.29121   0.49987   0.88655   0.00000  Uiso   1.00
C812   C     0.04298   0.51115   0.61519   0.00000  Uiso   1.00
C813   C     0.31058   0.49142   0.95817   0.00000  Uiso   1.00
C814   C     0.03585   0.55269   0.55178   0.00000  Uiso   1.00
C815   C     0.32538   0.49278   0.91113   0.00000  Uiso   1.00
C816   C     0.01642   0.53856   0.59584   0.00000  Uiso   1.00
C817   C     0.24246   0.50739   0.91024   0.00000  Uiso   1.00
C818   C     0.08933   0.49881   0.59017   0.00000  Uiso   1.00
C819   C     0.22855   0.51136   0.95774   0.00000  Uiso   1.00
C820   C     0.11290   0.51891   0.54922   0.00000  Uiso   1.00
C821   C     0.26202   0.49952   0.98192   0.00000  Uiso   1.00
C822   C     0.08418   0.54347   0.52816   0.00000  Uiso   1.00
C823   C     0.18133   0.52469   0.98173   0.00000  Uiso   1.00
C824   C     0.16353   0.51434   0.52811   0.00000  Uiso   1.00
Cu825  Cu    0.04689   0.50001   0.75000   0.00000  Uiso   1.00
Cu826  Cu    0.28645   0.49999   0.75000   0.00000  Uiso   1.00
H827   H     0.00423   0.48402   0.97584   0.00000  Uiso   1.00
H828   H     0.01365   0.57264   0.53721   0.00000  Uiso   1.00
H829   H     0.19573   0.45288   0.79962   0.00000  Uiso   1.00
H830   H     0.13756   0.54717   0.70046   0.00000  Uiso   1.00
N831   N     0.11736   0.50001   0.74999   0.00000  Uiso   1.00
N832   N     0.21597   0.49999   0.75001   0.00000  Uiso   1.00
O833   O     0.03958   0.43989   0.75000   0.00000  Uiso   1.00
O834   O     0.29375   0.56011   0.75000   0.00000  Uiso   1.00
O835   O     0.29372   0.43988   0.75001   0.00000  Uiso   1.00
O836   O     0.03961   0.56012   0.75000   0.00000  Uiso   1.00
O837   O     0.01852   0.50001   0.81492   0.00000  Uiso   1.00
O838   O     0.31481   0.49999   0.68509   0.00000  Uiso   1.00
O839   O     0.27267   0.50000   0.81492   0.00000  Uiso   1.00
O840   O     0.06067   0.50000   0.68508   0.00000  Uiso   1.00
O841   O     0.28187   0.48718   0.55152   0.00000  Uiso   1.00
H842   H     0.26978   0.49365   0.58396   0.00000  Uiso   1.00
O843   O     0.07445   0.58153   0.96416   0.00000  Uiso   1.00
H844   H     0.08664   0.57839   0.93093   0.00000  Uiso   1.00
F845   F     0.10934   0.46522   0.60466   0.00000  Uiso   1.00
F846   F     0.20776   0.50720   0.88750   0.00000  Uiso   1.00
F847   F     0.30565   0.55268   0.61976   0.00000  Uiso   1.00
F848   F     0.03947   0.48520   0.88996   0.00000  Uiso   1.00
O849   O     0.18346   0.50498   0.59916   0.00000  Uiso   1.00
H850   H     0.19583   0.47985   0.61074   0.00000  Uiso   1.00
O851   O     0.17700   0.57391   0.92386   0.00000  Uiso   1.00
H852   H     0.15978   0.60032   0.92343   0.00000  Uiso   1.00
F853   F     0.24821   0.37463   0.78986   0.00000  Uiso   1.00
F854   F     0.08511   0.62535   0.71002   0.00000  Uiso   1.00
F855   F     0.24819   0.62503   0.78971   0.00000  Uiso   1.00
F856   F     0.08515   0.37496   0.71024   0.00000  Uiso   1.00
F857   F     0.10264   0.44750   0.80534   0.00000  Uiso   1.00
F858   F     0.23032   0.55313   0.69544   0.00000  Uiso   1.00
C859   C     0.66666   0.42073   0.75004   0.00000  Uiso   1.00
C860   C     0.33335   0.57927   0.74992   0.00000  Uiso   1.00
C861   C     0.53084   0.50328   0.55259   0.00000  Uiso   1.00
C862   C     0.48679   0.55148   0.96194   0.00000  Uiso   1.00
C863   C     0.58046   0.49675   0.52930   0.00000  Uiso   1.00
C864   C     0.43742   0.55924   0.98446   0.00000  Uiso   1.00
C865   C     0.62347   0.35456   0.76960   0.00000  Uiso   1.00
C866   C     0.37652   0.64543   0.73030   0.00000  Uiso   1.00
C867   C     0.62346   0.64527   0.76952   0.00000  Uiso   1.00
C868   C     0.37654   0.35472   0.73040   0.00000  Uiso   1.00
C869   C     0.66666   0.62387   0.74988   0.00000  Uiso   1.00
C870   C     0.33335   0.37612   0.75004   0.00000  Uiso   1.00
C871   C     0.51680   0.47383   0.77754   0.00000  Uiso   1.00
C872   C     0.48318   0.52618   0.72250   0.00000  Uiso   1.00
C873   C     0.46721   0.47384   0.77759   0.00000  Uiso   1.00
C874   C     0.53269   0.52630   0.72260   0.00000  Uiso   1.00
C875   C     0.63927   0.49961   0.83649   0.00000  Uiso   1.00
C876   C     0.36071   0.50154   0.66377   0.00000  Uiso   1.00
C877   C     0.62454   0.49987   0.88655   0.00000  Uiso   1.00
C878   C     0.37632   0.51115   0.61519   0.00000  Uiso   1.00
C879   C     0.64391   0.49142   0.95817   0.00000  Uiso   1.00
C880   C     0.36918   0.55269   0.55178   0.00000  Uiso   1.00
C881   C     0.65871   0.49278   0.91113   0.00000  Uiso   1.00
C882   C     0.34976   0.53856   0.59584   0.00000  Uiso   1.00
C883   C     0.57580   0.50739   0.91024   0.00000  Uiso   1.00
C884   C     0.42267   0.49881   0.59017   0.00000  Uiso   1.00
C885   C     0.56189   0.51136   0.95774   0.00000  Uiso   1.00
C886   C     0.44624   0.51891   0.54922   0.00000  Uiso   1.00
C887   C     0.59535   0.49952   0.98192   0.00000  Uiso   1.00
C888   C     0.41751   0.54347   0.52816   0.00000  Uiso   1.00
C889   C     0.51466   0.52469   0.98173   0.00000  Uiso   1.00
C890   C     0.49687   0.51434   0.52811   0.00000  Uiso   1.00
Cu891  Cu    0.38022   0.50001   0.75000   0.00000  Uiso   1.00
Cu892  Cu    0.61978   0.49999   0.75000   0.00000  Uiso   1.00
H893   H     0.33756   0.48402   0.97584   0.00000  Uiso   1.00
H894   H     0.34699   0.57264   0.53721   0.00000  Uiso   1.00
H895   H     0.52906   0.45288   0.79962   0.00000  Uiso   1.00
H896   H     0.47090   0.54717   0.70046   0.00000  Uiso   1.00
N897   N     0.45069   0.50001   0.74999   0.00000  Uiso   1.00
N898   N     0.54931   0.49999   0.75001   0.00000  Uiso   1.00
O899   O     0.37291   0.43989   0.75000   0.00000  Uiso   1.00
O900   O     0.62709   0.56011   0.75000   0.00000  Uiso   1.00
O901   O     0.62706   0.43988   0.75001   0.00000  Uiso   1.00
O902   O     0.37294   0.56012   0.75000   0.00000  Uiso   1.00
O903   O     0.35186   0.50001   0.81492   0.00000  Uiso   1.00
O904   O     0.64814   0.49999   0.68509   0.00000  Uiso   1.00
O905   O     0.60600   0.50000   0.81492   0.00000  Uiso   1.00
O906   O     0.39400   0.50000   0.68508   0.00000  Uiso   1.00
O907   O     0.61520   0.48718   0.55152   0.00000  Uiso   1.00
H908   H     0.60311   0.49365   0.58396   0.00000  Uiso   1.00
O909   O     0.40778   0.58153   0.96416   0.00000  Uiso   1.00
H910   H     0.41997   0.57839   0.93093   0.00000  Uiso   1.00
F911   F     0.44267   0.46522   0.60466   0.00000  Uiso   1.00
F912   F     0.54110   0.50720   0.88750   0.00000  Uiso   1.00
F913   F     0.63899   0.55268   0.61976   0.00000  Uiso   1.00
F914   F     0.37280   0.48520   0.88996   0.00000  Uiso   1.00
O915   O     0.51680   0.50498   0.59916   0.00000  Uiso   1.00
H916   H     0.52917   0.47985   0.61074   0.00000  Uiso   1.00
O917   O     0.51033   0.57391   0.92386   0.00000  Uiso   1.00
H918   H     0.49312   0.60032   0.92343   0.00000  Uiso   1.00
F919   F     0.58154   0.37463   0.78986   0.00000  Uiso   1.00
F920   F     0.41844   0.62535   0.71002   0.00000  Uiso   1.00
F921   F     0.58152   0.62503   0.78971   0.00000  Uiso   1.00
F922   F     0.41848   0.37496   0.71024   0.00000  Uiso   1.00
F923   F     0.43597   0.44750   0.80534   0.00000  Uiso   1.00
F924   F     0.56365   0.55313   0.69544   0.00000  Uiso   1.00
C925   C     0.99999   0.42073   0.75004   0.00000  Uiso   1.00
C926   C     0.66668   0.57927   0.74992   0.00000  Uiso   1.00
C927   C     0.86417   0.50328   0.55259   0.00000  Uiso   1.00
C928   C     0.82013   0.55148   0.96194   0.00000  Uiso   1.00
C929   C     0.91379   0.49675   0.52930   0.00000  Uiso   1.00
C930   C     0.77075   0.55924   0.98446   0.00000  Uiso   1.00
C931   C     0.95681   0.35456   0.76960   0.00000  Uiso   1.00
C932   C     0.70986   0.64543   0.73030   0.00000  Uiso   1.00
C933   C     0.95679   0.64527   0.76952   0.00000  Uiso   1.00
C934   C     0.70988   0.35472   0.73040   0.00000  Uiso   1.00
C935   C     0.99999   0.62387   0.74988   0.00000  Uiso   1.00
C936   C     0.66668   0.37612   0.75004   0.00000  Uiso   1.00
C937   C     0.85013   0.47383   0.77754   0.00000  Uiso   1.00
C938   C     0.81651   0.52618   0.72250   0.00000  Uiso   1.00
C939   C     0.80055   0.47384   0.77759   0.00000  Uiso   1.00
C940   C     0.86602   0.52630   0.72260   0.00000  Uiso   1.00
C941   C     0.97260   0.49961   0.83649   0.00000  Uiso   1.00
C942   C     0.69405   0.50154   0.66377   0.00000  Uiso   1.00
C943   C     0.95787   0.49987   0.88655   0.00000  Uiso   1.00
C944   C     0.70965   0.51115   0.61519   0.00000  Uiso   1.00
C945   C     0.97725   0.49142   0.95817   0.00000  Uiso   1.00
C946   C     0.70252   0.55269   0.55178   0.00000  Uiso   1.00
C947   C     0.99204   0.49278   0.91113   0.00000  Uiso   1.00
C948   C     0.68309   0.53856   0.59584   0.00000  Uiso   1.00
C949   C     0.90913   0.50739   0.91024   0.00000  Uiso   1.00
C950   C     0.75600   0.49881   0.59017   0.00000  Uiso   1.00
C951   C     0.89522   0.51136   0.95774   0.00000  Uiso   1.00
C952   C     0.77957   0.51891   0.54922   0.00000  Uiso   1.00
C953   C     0.92869   0.49952   0.98192   0.00000  Uiso   1.00
C954   C     0.75085   0.54347   0.52816   0.00000  Uiso   1.00
C955   C     0.84800   0.52469   0.98173   0.00000  Uiso   1.00
C956   C     0.83020   0.51434   0.52811   0.00000  Uiso   1.00
Cu957  Cu    0.71355   0.50001   0.75000   0.00000  Uiso   1.00
Cu958  Cu    0.95311   0.49999   0.75000   0.00000  Uiso   1.00
H959   H     0.67089   0.48402   0.97584   0.00000  Uiso   1.00
H960   H     0.68032   0.57264   0.53721   0.00000  Uiso   1.00
H961   H     0.86240   0.45288   0.79962   0.00000  Uiso   1.00
H962   H     0.80423   0.54717   0.70046   0.00000  Uiso   1.00
N963   N     0.78403   0.50001   0.74999   0.00000  Uiso   1.00
N964   N     0.88264   0.49999   0.75001   0.00000  Uiso   1.00
O965   O     0.70625   0.43989   0.75000   0.00000  Uiso   1.00
O966   O     0.96042   0.56011   0.75000   0.00000  Uiso   1.00
O967   O     0.96039   0.43988   0.75001   0.00000  Uiso   1.00
O968   O     0.70628   0.56012   0.75000   0.00000  Uiso   1.00
O969   O     0.68519   0.50001   0.81492   0.00000  Uiso   1.00
O970   O     0.98148   0.49999   0.68509   0.00000  Uiso   1.00
O971   O     0.93933   0.50000   0.81492   0.00000  Uiso   1.00
O972   O     0.72733   0.50000   0.68508   0.00000  Uiso   1.00
O973   O     0.94854   0.48718   0.55152   0.00000  Uiso   1.00
H974   H     0.93645   0.49365   0.58396   0.00000  Uiso   1.00
O975   O     0.74112   0.58153   0.96416   0.00000  Uiso   1.00
H976   H     0.75330   0.57839   0.93093   0.00000  Uiso   1.00
F977   F     0.77600   0.46522   0.60466   0.00000  Uiso   1.00
F978   F     0.87443   0.50720   0.88750   0.00000  Uiso   1.00
F979   F     0.97232   0.55268   0.61976   0.00000  Uiso   1.00
F980   F     0.70614   0.48520   0.88996   0.00000  Uiso   1.00
O981   O     0.85013   0.50498   0.59916   0.00000  Uiso   1.00
H982   H     0.86250   0.47985   0.61074   0.00000  Uiso   1.00
O983   O     0.84366   0.57391   0.92386   0.00000  Uiso   1.00
H984   H     0.82645   0.60032   0.92343   0.00000  Uiso   1.00
F985   F     0.91488   0.37463   0.78986   0.00000  Uiso   1.00
F986   F     0.75178   0.62535   0.71002   0.00000  Uiso   1.00
F987   F     0.91486   0.62503   0.78971   0.00000  Uiso   1.00
F988   F     0.75182   0.37496   0.71024   0.00000  Uiso   1.00
F989   F     0.76930   0.44750   0.80534   0.00000  Uiso   1.00
F990   F     0.89699   0.55313   0.69544   0.00000  Uiso   1.00
C991   C     0.33333   0.75406   0.75004   0.00000  Uiso   1.00
C992   C     0.00001   0.91260   0.74992   0.00000  Uiso   1.00
C993   C     0.19750   0.83661   0.55259   0.00000  Uiso   1.00
C994   C     0.15346   0.88481   0.96194   0.00000  Uiso   1.00
C995   C     0.24712   0.83008   0.52930   0.00000  Uiso   1.00
C996   C     0.10409   0.89257   0.98446   0.00000  Uiso   1.00
C997   C     0.29014   0.68790   0.76960   0.00000  Uiso   1.00
C998   C     0.04319   0.97876   0.73030   0.00000  Uiso   1.00
C999   C     0.29013   0.97860   0.76952   0.00000  Uiso   1.00
C1000  C     0.04321   0.68805   0.73040   0.00000  Uiso   1.00
C1001  C     0.33332   0.95720   0.74988   0.00000  Uiso   1.00
C1002  C     0.00002   0.70945   0.75004   0.00000  Uiso   1.00
C1003  C     0.18346   0.80716   0.77754   0.00000  Uiso   1.00
C1004  C     0.14984   0.85952   0.72250   0.00000  Uiso   1.00
C1005  C     0.13388   0.80717   0.77759   0.00000  Uiso   1.00
C1006  C     0.19935   0.85963   0.72260   0.00000  Uiso   1.00
C1007  C     0.30594   0.83294   0.83649   0.00000  Uiso   1.00
C1008  C     0.02738   0.83487   0.66377   0.00000  Uiso   1.00
C1009  C     0.29121   0.83321   0.88655   0.00000  Uiso   1.00
C1010  C     0.04298   0.84448   0.61519   0.00000  Uiso   1.00
C1011  C     0.31058   0.82476   0.95817   0.00000  Uiso   1.00
C1012  C     0.03585   0.88603   0.55178   0.00000  Uiso   1.00
C1013  C     0.32538   0.82611   0.91113   0.00000  Uiso   1.00
C1014  C     0.01642   0.87189   0.59584   0.00000  Uiso   1.00
C1015  C     0.24246   0.84072   0.91024   0.00000  Uiso   1.00
C1016  C     0.08933   0.83215   0.59017   0.00000  Uiso   1.00
C1017  C     0.22855   0.84469   0.95774   0.00000  Uiso   1.00
C1018  C     0.11290   0.85224   0.54922   0.00000  Uiso   1.00
C1019  C     0.26202   0.83285   0.98192   0.00000  Uiso   1.00
C1020  C     0.08418   0.87681   0.52816   0.00000  Uiso   1.00
C1021  C     0.18133   0.85803   0.98173   0.00000  Uiso   1.00
C1022  C     0.16353   0.84767   0.52811   0.00000  Uiso   1.00
Cu1023 Cu    0.04689   0.83334   0.75000   0.00000  Uiso   1.00
Cu1024 Cu    0.28645   0.83333   0.75000   0.00000  Uiso   1.00
H1025  H     0.00423   0.81736   0.97584   0.00000  Uiso   1.00
H1026  H     0.01365   0.90597   0.53721   0.00000  Uiso   1.00
H1027  H     0.19573   0.78622   0.79962   0.00000  Uiso   1.00
H1028  H     0.13756   0.88050   0.70046   0.00000  Uiso   1.00
N1029  N     0.11736   0.83334   0.74999   0.00000  Uiso   1.00
N1030  N     0.21597   0.83332   0.75001   0.00000  Uiso   1.00
O1031  O     0.03958   0.77322   0.75000   0.00000  Uiso   1.00
O1032  O     0.29375   0.89345   0.75000   0.00000  Uiso   1.00
O1033  O     0.29372   0.77321   0.75001   0.00000  Uiso   1.00
O1034  O     0.03961   0.89346   0.75000   0.00000  Uiso   1.00
O1035  O     0.01852   0.83334   0.81492   0.00000  Uiso   1.00
O1036  O     0.31481   0.83332   0.68509   0.00000  Uiso   1.00
O1037  O     0.27267   0.83333   0.81492   0.00000  Uiso   1.00
O1038  O     0.06067   0.83333   0.68508   0.00000  Uiso   1.00
O1039  O     0.28187   0.82052   0.55152   0.00000  Uiso   1.00
H1040  H     0.26978   0.82698   0.58396   0.00000  Uiso   1.00
O1041  O     0.07445   0.91486   0.96416   0.00000  Uiso   1.00
H1042  H     0.08664   0.91172   0.93093   0.00000  Uiso   1.00
F1043  F     0.10934   0.79855   0.60466   0.00000  Uiso   1.00
F1044  F     0.20776   0.84054   0.88750   0.00000  Uiso   1.00
F1045  F     0.30565   0.88602   0.61976   0.00000  Uiso   1.00
F1046  F     0.03947   0.81854   0.88996   0.00000  Uiso   1.00
O1047  O     0.18346   0.83832   0.59916   0.00000  Uiso   1.00
H1048  H     0.19583   0.81318   0.61074   0.00000  Uiso   1.00
O1049  O     0.17700   0.90724   0.92386   0.00000  Uiso   1.00
H1050  H     0.15978   0.93365   0.92343   0.00000  Uiso   1.00
F1051  F     0.24821   0.70797   0.78986   0.00000  Uiso   1.00
F1052  F     0.08511   0.95868   0.71002   0.00000  Uiso   1.00
F1053  F     0.24819   0.95836   0.78971   0.00000  Uiso   1.00
F1054  F     0.08515   0.70830   0.71024   0.00000  Uiso   1.00
F1055  F     0.10264   0.78083   0.80534   0.00000  Uiso   1.00
F1056  F     0.23032   0.88647   0.69544   0.00000  Uiso   1.00
C1057  C     0.66666   0.75406   0.75004   0.00000  Uiso   1.00
C1058  C     0.33335   0.91260   0.74992   0.00000  Uiso   1.00
C1059  C     0.53084   0.83661   0.55259   0.00000  Uiso   1.00
C1060  C     0.48679   0.88481   0.96194   0.00000  Uiso   1.00
C1061  C     0.58046   0.83008   0.52930   0.00000  Uiso   1.00
C1062  C     0.43742   0.89257   0.98446   0.00000  Uiso   1.00
C1063  C     0.62347   0.68790   0.76960   0.00000  Uiso   1.00
C1064  C     0.37652   0.97876   0.73030   0.00000  Uiso   1.00
C1065  C     0.62346   0.97860   0.76952   0.00000  Uiso   1.00
C1066  C     0.37654   0.68805   0.73040   0.00000  Uiso   1.00
C1067  C     0.66666   0.95720   0.74988   0.00000  Uiso   1.00
C1068  C     0.33335   0.70945   0.75004   0.00000  Uiso   1.00
C1069  C     0.51680   0.80716   0.77754   0.00000  Uiso   1.00
C1070  C     0.48318   0.85952   0.72250   0.00000  Uiso   1.00
C1071  C     0.46721   0.80717   0.77759   0.00000  Uiso   1.00
C1072  C     0.53269   0.85963   0.72260   0.00000  Uiso   1.00
C1073  C     0.63927   0.83294   0.83649   0.00000  Uiso   1.00
C1074  C     0.36071   0.83487   0.66377   0.00000  Uiso   1.00
C1075  C     0.62454   0.83321   0.88655   0.00000  Uiso   1.00
C1076  C     0.37632   0.84448   0.61519   0.00000  Uiso   1.00
C1077  C     0.64391   0.82476   0.95817   0.00000  Uiso   1.00
C1078  C     0.36918   0.88603   0.55178   0.00000  Uiso   1.00
C1079  C     0.65871   0.82611   0.91113   0.00000  Uiso   1.00
C1080  C     0.34976   0.87189   0.59584   0.00000  Uiso   1.00
C1081  C     0.57580   0.84072   0.91024   0.00000  Uiso   1.00
C1082  C     0.42267   0.83215   0.59017   0.00000  Uiso   1.00
C1083  C     0.56189   0.84469   0.95774   0.00000  Uiso   1.00
C1084  C     0.44624   0.85224   0.54922   0.00000  Uiso   1.00
C1085  C     0.59535   0.83285   0.98192   0.00000  Uiso   1.00
C1086  C     0.41751   0.87681   0.52816   0.00000  Uiso   1.00
C1087  C     0.51466   0.85803   0.98173   0.00000  Uiso   1.00
C1088  C     0.49687   0.84767   0.52811   0.00000  Uiso   1.00
Cu1089 Cu    0.38022   0.83334   0.75000   0.00000  Uiso   1.00
Cu1090 Cu    0.61978   0.83333   0.75000   0.00000  Uiso   1.00
H1091  H     0.33756   0.81736   0.97584   0.00000  Uiso   1.00
H1092  H     0.34699   0.90597   0.53721   0.00000  Uiso   1.00
H1093  H     0.52906   0.78622   0.79962   0.00000  Uiso   1.00
H1094  H     0.47090   0.88050   0.70046   0.00000  Uiso   1.00
N1095  N     0.45069   0.83334   0.74999   0.00000  Uiso   1.00
N1096  N     0.54931   0.83332   0.75001   0.00000  Uiso   1.00
O1097  O     0.37291   0.77322   0.75000   0.00000  Uiso   1.00
O1098  O     0.62709   0.89345   0.75000   0.00000  Uiso   1.00
O1099  O     0.62706   0.77321   0.75001   0.00000  Uiso   1.00
O1100  O     0.37294   0.89346   0.75000   0.00000  Uiso   1.00
O1101  O     0.35186   0.83334   0.81492   0.00000  Uiso   1.00
O1102  O     0.64814   0.83332   0.68509   0.00000  Uiso   1.00
O1103  O     0.60600   0.83333   0.81492   0.00000  Uiso   1.00
O1104  O     0.39400   0.83333   0.68508   0.00000  Uiso   1.00
O1105  O     0.61520   0.82052   0.55152   0.00000  Uiso   1.00
H1106  H     0.60311   0.82698   0.58396   0.00000  Uiso   1.00
O1107  O     0.40778   0.91486   0.96416   0.00000  Uiso   1.00
H1108  H     0.41997   0.91172   0.93093   0.00000  Uiso   1.00
F1109  F     0.44267   0.79855   0.60466   0.00000  Uiso   1.00
F1110  F     0.54110   0.84054   0.88750   0.00000  Uiso   1.00
F1111  F     0.63899   0.88602   0.61976   0.00000  Uiso   1.00
F1112  F     0.37280   0.81854   0.88996   0.00000  Uiso   1.00
O1113  O     0.51680   0.83832   0.59916   0.00000  Uiso   1.00
H1114  H     0.52917   0.81318   0.61074   0.00000  Uiso   1.00
O1115  O     0.51033   0.90724   0.92386   0.00000  Uiso   1.00
H1116  H     0.49312   0.93365   0.92343   0.00000  Uiso   1.00
F1117  F     0.58154   0.70797   0.78986   0.00000  Uiso   1.00
F1118  F     0.41844   0.95868   0.71002   0.00000  Uiso   1.00
F1119  F     0.58152   0.95836   0.78971   0.00000  Uiso   1.00
F1120  F     0.41848   0.70830   0.71024   0.00000  Uiso   1.00
F1121  F     0.43597   0.78083   0.80534   0.00000  Uiso   1.00
F1122  F     0.56365   0.88647   0.69544   0.00000  Uiso   1.00
C1123  C     0.99999   0.75406   0.75004   0.00000  Uiso   1.00
C1124  C     0.66668   0.91260   0.74992   0.00000  Uiso   1.00
C1125  C     0.86417   0.83661   0.55259   0.00000  Uiso   1.00
C1126  C     0.82013   0.88481   0.96194   0.00000  Uiso   1.00
C1127  C     0.91379   0.83008   0.52930   0.00000  Uiso   1.00
C1128  C     0.77075   0.89257   0.98446   0.00000  Uiso   1.00
C1129  C     0.95681   0.68790   0.76960   0.00000  Uiso   1.00
C1130  C     0.70986   0.97876   0.73030   0.00000  Uiso   1.00
C1131  C     0.95679   0.97860   0.76952   0.00000  Uiso   1.00
C1132  C     0.70988   0.68805   0.73040   0.00000  Uiso   1.00
C1133  C     0.99999   0.95720   0.74988   0.00000  Uiso   1.00
C1134  C     0.66668   0.70945   0.75004   0.00000  Uiso   1.00
C1135  C     0.85013   0.80716   0.77754   0.00000  Uiso   1.00
C1136  C     0.81651   0.85952   0.72250   0.00000  Uiso   1.00
C1137  C     0.80055   0.80717   0.77759   0.00000  Uiso   1.00
C1138  C     0.86602   0.85963   0.72260   0.00000  Uiso   1.00
C1139  C     0.97260   0.83294   0.83649   0.00000  Uiso   1.00
C1140  C     0.69405   0.83487   0.66377   0.00000  Uiso   1.00
C1141  C     0.95787   0.83321   0.88655   0.00000  Uiso   1.00
C1142  C     0.70965   0.84448   0.61519   0.00000  Uiso   1.00
C1143  C     0.97725   0.82476   0.95817   0.00000  Uiso   1.00
C1144  C     0.70252   0.88603   0.55178   0.00000  Uiso   1.00
C1145  C     0.99204   0.82611   0.91113   0.00000  Uiso   1.00
C1146  C     0.68309   0.87189   0.59584   0.00000  Uiso   1.00
C1147  C     0.90913   0.84072   0.91024   0.00000  Uiso   1.00
C1148  C     0.75600   0.83215   0.59017   0.00000  Uiso   1.00
C1149  C     0.89522   0.84469   0.95774   0.00000  Uiso   1.00
C1150  C     0.77957   0.85224   0.54922   0.00000  Uiso   1.00
C1151  C     0.92869   0.83285   0.98192   0.00000  Uiso   1.00
C1152  C     0.75085   0.87681   0.52816   0.00000  Uiso   1.00
C1153  C     0.84800   0.85803   0.98173   0.00000  Uiso   1.00
C1154  C     0.83020   0.84767   0.52811   0.00000  Uiso   1.00
Cu1155 Cu    0.71355   0.83334   0.75000   0.00000  Uiso   1.00
Cu1156 Cu    0.95311   0.83333   0.75000   0.00000  Uiso   1.00
H1157  H     0.67089   0.81736   0.97584   0.00000  Uiso   1.00
H1158  H     0.68032   0.90597   0.53721   0.00000  Uiso   1.00
H1159  H     0.86240   0.78622   0.79962   0.00000  Uiso   1.00
H1160  H     0.80423   0.88050   0.70046   0.00000  Uiso   1.00
N1161  N     0.78403   0.83334   0.74999   0.00000  Uiso   1.00
N1162  N     0.88264   0.83332   0.75001   0.00000  Uiso   1.00
O1163  O     0.70625   0.77322   0.75000   0.00000  Uiso   1.00
O1164  O     0.96042   0.89345   0.75000   0.00000  Uiso   1.00
O1165  O     0.96039   0.77321   0.75001   0.00000  Uiso   1.00
O1166  O     0.70628   0.89346   0.75000   0.00000  Uiso   1.00
O1167  O     0.68519   0.83334   0.81492   0.00000  Uiso   1.00
O1168  O     0.98148   0.83332   0.68509   0.00000  Uiso   1.00
O1169  O     0.93933   0.83333   0.81492   0.00000  Uiso   1.00
O1170  O     0.72733   0.83333   0.68508   0.00000  Uiso   1.00
O1171  O     0.94854   0.82052   0.55152   0.00000  Uiso   1.00
H1172  H     0.93645   0.82698   0.58396   0.00000  Uiso   1.00
O1173  O     0.74112   0.91486   0.96416   0.00000  Uiso   1.00
H1174  H     0.75330   0.91172   0.93093   0.00000  Uiso   1.00
F1175  F     0.77600   0.79855   0.60466   0.00000  Uiso   1.00
F1176  F     0.87443   0.84054   0.88750   0.00000  Uiso   1.00
F1177  F     0.97232   0.88602   0.61976   0.00000  Uiso   1.00
F1178  F     0.70614   0.81854   0.88996   0.00000  Uiso   1.00
O1179  O     0.85013   0.83832   0.59916   0.00000  Uiso   1.00
H1180  H     0.86250   0.81318   0.61074   0.00000  Uiso   1.00
O1181  O     0.84366   0.90724   0.92386   0.00000  Uiso   1.00
H1182  H     0.82645   0.93365   0.92343   0.00000  Uiso   1.00
F1183  F     0.91488   0.70797   0.78986   0.00000  Uiso   1.00
F1184  F     0.75178   0.95868   0.71002   0.00000  Uiso   1.00
F1185  F     0.91486   0.95836   0.78971   0.00000  Uiso   1.00
F1186  F     0.75182   0.70830   0.71024   0.00000  Uiso   1.00
F1187  F     0.76930   0.78083   0.80534   0.00000  Uiso   1.00
F1188  F     0.89699   0.88647   0.69544   0.00000  Uiso   1.00
loop_
_geom_bond_atom_site_label_1
_geom_bond_atom_site_label_2
_geom_bond_distance
_geom_bond_site_symmetry_2
_ccdc_geom_bond_type
C1     O43     1.291   .     A
C1     C78     1.449   .     S
C1     O107    1.292   .     S
C2     O44     1.291   .     A
C2     C143    1.449   1_455 S
C2     O174    1.292   1_455 S
C3     C5      1.420   .     A
C3     C32     1.425   .     A
C3     O57     1.379   .     S
C4     O59     1.384   .     S
C4     C31     1.421   .     A
C4     C6      1.415   .     A
C5     O49     1.384   .     S
C5     C623    1.404   1_554 S
C6     O51     1.383   .     S
C6     C624    1.402   .     S
C7     F61     1.359   .     S
C7     C405    1.385   1_545 S
C7     C78     1.404   .     S
C8     F62     1.359   .     S
C8     C208    1.385   .     S
C8     C143    1.403   1_455 S
C9     C11     1.403   .     A
C9     F63     1.359   .     S
C9     C205    1.385   .     S
C10    F64     1.359   .     S
C10    C12     1.403   .     A
C10    C404    1.385   1_545 S
C11    C74     1.403   .     S
C11    C68     1.449   .     S
C12    C139    1.404   1_455 S
C12    C133    1.449   1_455 S
C13    H37     1.082   .     S
C13    C15     1.417   .     A
C13    N40     1.366   .     A
C14    H38     1.082   .     S
C14    C16     1.416   .     A
C14    N39     1.366   .     A
C15    N39     1.369   .     A
C15    F65     1.355   .     S
C16    N40     1.369   .     A
C16    F66     1.353   .     S
C17    C19     1.480   .     S
C17    O47     1.299   .     A
C17    O111    1.299   .     S
C18    C20     1.469   .     S
C18    O48     1.294   .     A
C18    O178    1.298   1_455 S
C19    C23     1.406   .     A
C19    C25     1.407   .     A
C20    C26     1.398   .     A
C20    C24     1.401   .     A
C21    C29     1.406   .     A
C21    C23     1.392   .     A
C21    H101    1.083   .     S
C22    C24     1.392   .     A
C22    H36     1.083   .     S
C22    C30     1.407   .     A
C23    F122    1.357   .     S
C24    F187    1.356   1_455 S
C25    F54     1.360   .     S
C25    C27     1.412   .     A
C26    F53     1.359   .     S
C26    C28     1.412   .     A
C27    C31     1.419   .     A
C27    C29     1.414   .     A
C28    C32     1.424   .     A
C28    C30     1.418   .     A
C29    C599    1.404   .     S
C30    C600    1.402   1_554 S
C31    C626    1.416   .     S
C32    C625    1.416   1_554 S
Cu33   O45     1.938   .     S
Cu33   O41     1.964   .     S
Cu33   N39     2.014   .     S
Cu33   O48     1.926   .     S
Cu33   O44     1.964   .     S
Cu33   Cu166   2.680   1_455 S
Cu34   O42     1.964   .     S
Cu34   O46     1.938   .     S
Cu34   N40     2.014   .     S
Cu34   O47     1.926   .     S
Cu34   O43     1.964   .     S
Cu34   Cu99    2.680   .     S
H35    C153    1.083   1_455 S
O41    C133    1.292   1_455 S
O42    C68     1.292   .     S
O45    C149    1.299   1_455 S
O46    C84     1.298   .     S
O49    H50     0.986   .     S
O51    H52     0.991   .     S
F55    C90     1.356   .     S
F56    C155    1.357   1_455 S
O57    H58     0.991   .     S
O59    H60     0.990   .     S
C67    O109    1.291   .     A
C67    C144    1.449   .     S
C67    O173    1.292   .     S
C68    O110    1.291   .     A
C69    C71     1.420   .     A
C69    C98     1.425   .     A
C69    O123    1.379   .     S
C70    O125    1.384   .     S
C70    C97     1.421   .     A
C70    C72     1.415   .     A
C71    O115    1.384   .     S
C71    C689    1.404   1_554 S
C72    O117    1.383   .     S
C72    C690    1.402   .     S
C73    F127    1.359   .     S
C73    C471    1.385   1_545 S
C73    C144    1.404   .     S
C74    F128    1.359   .     S
C74    C274    1.385   .     S
C75    C77     1.403   .     A
C75    F129    1.359   .     S
C75    C271    1.385   .     S
C76    F130    1.359   .     S
C76    C78     1.403   .     A
C76    C470    1.385   1_545 S
C77    C140    1.403   .     S
C77    C134    1.449   .     S
C79    H103    1.082   .     S
C79    C81     1.417   .     A
C79    N106    1.366   .     A
C80    H104    1.082   .     S
C80    C82     1.416   .     A
C80    N105    1.366   .     A
C81    N105    1.369   .     A
C81    F131    1.355   .     S
C82    N106    1.369   .     A
C82    F132    1.353   .     S
C83    C85     1.480   .     S
C83    O113    1.299   .     A
C83    O177    1.299   .     S
C84    C86     1.469   .     S
C84    O114    1.294   .     A
C85    C89     1.406   .     A
C85    C91     1.407   .     A
C86    C92     1.398   .     A
C86    C90     1.401   .     A
C87    C95     1.406   .     A
C87    C89     1.392   .     A
C87    H167    1.083   .     S
C88    C90     1.392   .     A
C88    H102    1.083   .     S
C88    C96     1.407   .     A
C89    F188    1.357   .     S
C91    F120    1.360   .     S
C91    C93     1.412   .     A
C92    F119    1.359   .     S
C92    C94     1.412   .     A
C93    C97     1.419   .     A
C93    C95     1.414   .     A
C94    C98     1.424   .     A
C94    C96     1.418   .     A
C95    C665    1.404   .     S
C96    C666    1.402   1_554 S
C97    C692    1.416   .     S
C98    C691    1.416   1_554 S
Cu99   O111    1.938   .     S
Cu99   O107    1.964   .     S
Cu99   N105    2.014   .     S
Cu99   O114    1.926   .     S
Cu99   O110    1.964   .     S
Cu100  O108    1.964   .     S
Cu100  O112    1.938   .     S
Cu100  N106    2.014   .     S
Cu100  O113    1.926   .     S
Cu100  O109    1.964   .     S
Cu100  Cu165   2.680   .     S
O108   C134    1.292   .     S
O112   C150    1.298   .     S
O115   H116    0.986   .     S
O117   H118    0.991   .     S
F121   C156    1.356   .     S
O123   H124    0.991   .     S
O125   H126    0.990   .     S
C133   O175    1.291   .     A
C133   C12     1.449   1_655 S
C133   O41     1.292   1_655 S
C134   O176    1.291   .     A
C135   C137    1.420   .     A
C135   C164    1.425   .     A
C135   O189    1.379   .     S
C136   O191    1.384   .     S
C136   C163    1.421   .     A
C136   C138    1.415   .     A
C137   O181    1.384   .     S
C137   C755    1.404   1_554 S
C138   O183    1.383   .     S
C138   C756    1.402   .     S
C139   F193    1.359   .     S
C139   C537    1.385   1_545 S
C139   C12     1.404   1_655 S
C140   F194    1.359   .     S
C140   C340    1.385   .     S
C141   C143    1.403   .     A
C141   F195    1.359   .     S
C141   C337    1.385   .     S
C142   F196    1.359   .     S
C142   C144    1.403   .     A
C142   C536    1.385   1_545 S
C143   C8      1.403   1_655 S
C143   C2      1.449   1_655 S
C145   H169    1.082   .     S
C145   C147    1.417   .     A
C145   N172    1.366   .     A
C146   H170    1.082   .     S
C146   C148    1.416   .     A
C146   N171    1.366   .     A
C147   N171    1.369   .     A
C147   F197    1.355   .     S
C148   N172    1.369   .     A
C148   F198    1.353   .     S
C149   C151    1.480   .     S
C149   O179    1.299   .     A
C149   O45     1.299   1_655 S
C150   C152    1.469   .     S
C150   O180    1.294   .     A
C151   C155    1.406   .     A
C151   C157    1.407   .     A
C152   C158    1.398   .     A
C152   C156    1.401   .     A
C153   C161    1.406   .     A
C153   C155    1.392   .     A
C153   H35     1.083   1_655 S
C154   C156    1.392   .     A
C154   H168    1.083   .     S
C154   C162    1.407   .     A
C155   F56     1.357   1_655 S
C157   F186    1.360   .     S
C157   C159    1.412   .     A
C158   F185    1.359   .     S
C158   C160    1.412   .     A
C159   C163    1.419   .     A
C159   C161    1.414   .     A
C160   C164    1.424   .     A
C160   C162    1.418   .     A
C161   C731    1.404   .     S
C162   C732    1.402   1_554 S
C163   C758    1.416   .     S
C164   C757    1.416   1_554 S
Cu165  O177    1.938   .     S
Cu165  O173    1.964   .     S
Cu165  N171    2.014   .     S
Cu165  O180    1.926   .     S
Cu165  O176    1.964   .     S
Cu166  O174    1.964   .     S
Cu166  O178    1.938   .     S
Cu166  N172    2.014   .     S
Cu166  O179    1.926   .     S
Cu166  O175    1.964   .     S
Cu166  Cu33    2.680   1_655 S
O174   C2      1.292   1_655 S
O178   C18     1.298   1_655 S
O181   H182    0.986   .     S
O183   H184    0.991   .     S
F187   C24     1.356   1_655 S
O189   H190    0.991   .     S
O191   H192    0.990   .     S
C199   O241    1.291   .     A
C199   C276    1.449   .     S
C199   O305    1.292   .     S
C200   O242    1.291   .     A
C200   C341    1.449   1_455 S
C200   O372    1.292   1_455 S
C201   C203    1.420   .     A
C201   C230    1.425   .     A
C201   O255    1.379   .     S
C202   O257    1.384   .     S
C202   C229    1.421   .     A
C202   C204    1.415   .     A
C203   O247    1.384   .     S
C203   C821    1.404   1_554 S
C204   O249    1.383   .     S
C204   C822    1.402   .     S
C205   F259    1.359   .     S
C205   C276    1.404   .     S
C206   F260    1.359   .     S
C206   C406    1.385   .     S
C206   C341    1.403   1_455 S
C207   C209    1.403   .     A
C207   F261    1.359   .     S
C207   C403    1.385   .     S
C208   F262    1.359   .     S
C208   C210    1.403   .     A
C209   C272    1.403   .     S
C209   C266    1.449   .     S
C210   C337    1.404   1_455 S
C210   C331    1.449   1_455 S
C211   H235    1.082   .     S
C211   C213    1.417   .     A
C211   N238    1.366   .     A
C212   H236    1.082   .     S
C212   C214    1.416   .     A
C212   N237    1.366   .     A
C213   N237    1.369   .     A
C213   F263    1.355   .     S
C214   N238    1.369   .     A
C214   F264    1.353   .     S
C215   C217    1.480   .     S
C215   O245    1.299   .     A
C215   O309    1.299   .     S
C216   C218    1.469   .     S
C216   O246    1.294   .     A
C216   O376    1.298   1_455 S
C217   C221    1.406   .     A
C217   C223    1.407   .     A
C218   C224    1.398   .     A
C218   C222    1.401   .     A
C219   C227    1.406   .     A
C219   C221    1.392   .     A
C219   H299    1.083   .     S
C220   C222    1.392   .     A
C220   H234    1.083   .     S
C220   C228    1.407   .     A
C221   F320    1.357   .     S
C222   F385    1.356   1_455 S
C223   F252    1.360   .     S
C223   C225    1.412   .     A
C224   F251    1.359   .     S
C224   C226    1.412   .     A
C225   C229    1.419   .     A
C225   C227    1.414   .     A
C226   C230    1.424   .     A
C226   C228    1.418   .     A
C227   C797    1.404   .     S
C228   C798    1.402   1_554 S
C229   C824    1.416   .     S
C230   C823    1.416   1_554 S
Cu231  O243    1.938   .     S
Cu231  O239    1.964   .     S
Cu231  N237    2.014   .     S
Cu231  O246    1.926   .     S
Cu231  O242    1.964   .     S
Cu231  Cu364   2.680   1_455 S
Cu232  O240    1.964   .     S
Cu232  O244    1.938   .     S
Cu232  N238    2.014   .     S
Cu232  O245    1.926   .     S
Cu232  O241    1.964   .     S
Cu232  Cu297   2.680   .     S
H233   C351    1.083   1_455 S
O239   C331    1.292   1_455 S
O240   C266    1.292   .     S
O243   C347    1.299   1_455 S
O244   C282    1.298   .     S
O247   H248    0.986   .     S
O249   H250    0.991   .     S
F253   C288    1.356   .     S
F254   C353    1.357   1_455 S
O255   H256    0.991   .     S
O257   H258    0.990   .     S
C265   O307    1.291   .     A
C265   C342    1.449   .     S
C265   O371    1.292   .     S
C266   O308    1.291   .     A
C267   C269    1.420   .     A
C267   C296    1.425   .     A
C267   O321    1.379   .     S
C268   O323    1.384   .     S
C268   C295    1.421   .     A
C268   C270    1.415   .     A
C269   O313    1.384   .     S
C269   C887    1.404   1_554 S
C270   O315    1.383   .     S
C270   C888    1.402   .     S
C271   F325    1.359   .     S
C271   C342    1.404   .     S
C272   F326    1.359   .     S
C272   C472    1.385   .     S
C273   C275    1.403   .     A
C273   F327    1.359   .     S
C273   C469    1.385   .     S
C274   F328    1.359   .     S
C274   C276    1.403   .     A
C275   C338    1.403   .     S
C275   C332    1.449   .     S
C277   H301    1.082   .     S
C277   C279    1.417   .     A
C277   N304    1.366   .     A
C278   H302    1.082   .     S
C278   C280    1.416   .     A
C278   N303    1.366   .     A
C279   N303    1.369   .     A
C279   F329    1.355   .     S
C280   N304    1.369   .     A
C280   F330    1.353   .     S
C281   C283    1.480   .     S
C281   O311    1.299   .     A
C281   O375    1.299   .     S
C282   C284    1.469   .     S
C282   O312    1.294   .     A
C283   C287    1.406   .     A
C283   C289    1.407   .     A
C284   C290    1.398   .     A
C284   C288    1.401   .     A
C285   C293    1.406   .     A
C285   C287    1.392   .     A
C285   H365    1.083   .     S
C286   C288    1.392   .     A
C286   H300    1.083   .     S
C286   C294    1.407   .     A
C287   F386    1.357   .     S
C289   F318    1.360   .     S
C289   C291    1.412   .     A
C290   F317    1.359   .     S
C290   C292    1.412   .     A
C291   C295    1.419   .     A
C291   C293    1.414   .     A
C292   C296    1.424   .     A
C292   C294    1.418   .     A
C293   C863    1.404   .     S
C294   C864    1.402   1_554 S
C295   C890    1.416   .     S
C296   C889    1.416   1_554 S
Cu297  O309    1.938   .     S
Cu297  O305    1.964   .     S
Cu297  N303    2.014   .     S
Cu297  O312    1.926   .     S
Cu297  O308    1.964   .     S
Cu298  O306    1.964   .     S
Cu298  O310    1.938   .     S
Cu298  N304    2.014   .     S
Cu298  O311    1.926   .     S
Cu298  O307    1.964   .     S
Cu298  Cu363   2.680   .     S
O306   C332    1.292   .     S
O310   C348    1.298   .     S
O313   H314    0.986   .     S
O315   H316    0.991   .     S
F319   C354    1.356   .     S
O321   H322    0.991   .     S
O323   H324    0.990   .     S
C331   O373    1.291   .     A
C331   C210    1.449   1_655 S
C331   O239    1.292   1_655 S
C332   O374    1.291   .     A
C333   C335    1.420   .     A
C333   C362    1.425   .     A
C333   O387    1.379   .     S
C334   O389    1.384   .     S
C334   C361    1.421   .     A
C334   C336    1.415   .     A
C335   O379    1.384   .     S
C335   C953    1.404   1_554 S
C336   O381    1.383   .     S
C336   C954    1.402   .     S
C337   F391    1.359   .     S
C337   C210    1.404   1_655 S
C338   F392    1.359   .     S
C338   C538    1.385   .     S
C339   C341    1.403   .     A
C339   F393    1.359   .     S
C339   C535    1.385   .     S
C340   F394    1.359   .     S
C340   C342    1.403   .     A
C341   C206    1.403   1_655 S
C341   C200    1.449   1_655 S
C343   H367    1.082   .     S
C343   C345    1.417   .     A
C343   N370    1.366   .     A
C344   H368    1.082   .     S
C344   C346    1.416   .     A
C344   N369    1.366   .     A
C345   N369    1.369   .     A
C345   F395    1.355   .     S
C346   N370    1.369   .     A
C346   F396    1.353   .     S
C347   C349    1.480   .     S
C347   O377    1.299   .     A
C347   O243    1.299   1_655 S
C348   C350    1.469   .     S
C348   O378    1.294   .     A
C349   C353    1.406   .     A
C349   C355    1.407   .     A
C350   C356    1.398   .     A
C350   C354    1.401   .     A
C351   C359    1.406   .     A
C351   C353    1.392   .     A
C351   H233    1.083   1_655 S
C352   C354    1.392   .     A
C352   H366    1.083   .     S
C352   C360    1.407   .     A
C353   F254    1.357   1_655 S
C355   F384    1.360   .     S
C355   C357    1.412   .     A
C356   F383    1.359   .     S
C356   C358    1.412   .     A
C357   C361    1.419   .     A
C357   C359    1.414   .     A
C358   C362    1.424   .     A
C358   C360    1.418   .     A
C359   C929    1.404   .     S
C360   C930    1.402   1_554 S
C361   C956    1.416   .     S
C362   C955    1.416   1_554 S
Cu363  O375    1.938   .     S
Cu363  O371    1.964   .     S
Cu363  N369    2.014   .     S
Cu363  O378    1.926   .     S
Cu363  O374    1.964   .     S
Cu364  O372    1.964   .     S
Cu364  O376    1.938   .     S
Cu364  N370    2.014   .     S
Cu364  O377    1.926   .     S
Cu364  O373    1.964   .     S
Cu364  Cu231   2.680   1_655 S
O372   C200    1.292   1_655 S
O376   C216    1.298   1_655 S
O379   H380    0.986   .     S
O381   H382    0.991   .     S
F385   C222    1.356   1_655 S
O387   H388    0.991   .     S
O389   H390    0.990   .     S
C397   O439    1.291   .     A
C397   C474    1.449   .     S
C397   O503    1.292   .     S
C398   O440    1.291   .     A
C398   C539    1.449   1_455 S
C398   O570    1.292   1_455 S
C399   C401    1.420   .     A
C399   C428    1.425   .     A
C399   O453    1.379   .     S
C400   O455    1.384   .     S
C400   C427    1.421   .     A
C400   C402    1.415   .     A
C401   O445    1.384   .     S
C401   C1019   1.404   1_554 S
C402   O447    1.383   .     S
C402   C1020   1.402   .     S
C403   F457    1.359   .     S
C403   C474    1.404   .     S
C404   F458    1.359   .     S
C404   C10     1.385   1_565 S
C404   C539    1.403   1_455 S
C405   C407    1.403   .     A
C405   F459    1.359   .     S
C405   C7      1.385   1_565 S
C406   F460    1.359   .     S
C406   C408    1.403   .     A
C407   C470    1.403   .     S
C407   C464    1.449   .     S
C408   C535    1.404   1_455 S
C408   C529    1.449   1_455 S
C409   H433    1.082   .     S
C409   C411    1.417   .     A
C409   N436    1.366   .     A
C410   H434    1.082   .     S
C410   C412    1.416   .     A
C410   N435    1.366   .     A
C411   N435    1.369   .     A
C411   F461    1.355   .     S
C412   N436    1.369   .     A
C412   F462    1.353   .     S
C413   C415    1.480   .     S
C413   O443    1.299   .     A
C413   O507    1.299   .     S
C414   C416    1.469   .     S
C414   O444    1.294   .     A
C414   O574    1.298   1_455 S
C415   C419    1.406   .     A
C415   C421    1.407   .     A
C416   C422    1.398   .     A
C416   C420    1.401   .     A
C417   C425    1.406   .     A
C417   C419    1.392   .     A
C417   H497    1.083   .     S
C418   C420    1.392   .     A
C418   H432    1.083   .     S
C418   C426    1.407   .     A
C419   F518    1.357   .     S
C420   F583    1.356   1_455 S
C421   F450    1.360   .     S
C421   C423    1.412   .     A
C422   F449    1.359   .     S
C422   C424    1.412   .     A
C423   C427    1.419   .     A
C423   C425    1.414   .     A
C424   C428    1.424   .     A
C424   C426    1.418   .     A
C425   C995    1.404   .     S
C426   C996    1.402   1_554 S
C427   C1022   1.416   .     S
C428   C1021   1.416   1_554 S
Cu429  O441    1.938   .     S
Cu429  O437    1.964   .     S
Cu429  N435    2.014   .     S
Cu429  O444    1.926   .     S
Cu429  O440    1.964   .     S
Cu429  Cu562   2.680   1_455 S
Cu430  O438    1.964   .     S
Cu430  O442    1.938   .     S
Cu430  N436    2.014   .     S
Cu430  O443    1.926   .     S
Cu430  O439    1.964   .     S
Cu430  Cu495   2.680   .     S
H431   C549    1.083   1_455 S
O437   C529    1.292   1_455 S
O438   C464    1.292   .     S
O441   C545    1.299   1_455 S
O442   C480    1.298   .     S
O445   H446    0.986   .     S
O447   H448    0.991   .     S
F451   C486    1.356   .     S
F452   C551    1.357   1_455 S
O453   H454    0.991   .     S
O455   H456    0.990   .     S
C463   O505    1.291   .     A
C463   C540    1.449   .     S
C463   O569    1.292   .     S
C464   O506    1.291   .     A
C465   C467    1.420   .     A
C465   C494    1.425   .     A
C465   O519    1.379   .     S
C466   O521    1.384   .     S
C466   C493    1.421   .     A
C466   C468    1.415   .     A
C467   O511    1.384   .     S
C467   C1085   1.404   1_554 S
C468   O513    1.383   .     S
C468   C1086   1.402   .     S
C469   F523    1.359   .     S
C469   C540    1.404   .     S
C470   F524    1.359   .     S
C470   C76     1.385   1_565 S
C471   C473    1.403   .     A
C471   F525    1.359   .     S
C471   C73     1.385   1_565 S
C472   F526    1.359   .     S
C472   C474    1.403   .     A
C473   C536    1.403   .     S
C473   C530    1.449   .     S
C475   H499    1.082   .     S
C475   C477    1.417   .     A
C475   N502    1.366   .     A
C476   H500    1.082   .     S
C476   C478    1.416   .     A
C476   N501    1.366   .     A
C477   N501    1.369   .     A
C477   F527    1.355   .     S
C478   N502    1.369   .     A
C478   F528    1.353   .     S
C479   C481    1.480   .     S
C479   O509    1.299   .     A
C479   O573    1.299   .     S
C480   C482    1.469   .     S
C480   O510    1.294   .     A
C481   C485    1.406   .     A
C481   C487    1.407   .     A
C482   C488    1.398   .     A
C482   C486    1.401   .     A
C483   C491    1.406   .     A
C483   C485    1.392   .     A
C483   H563    1.083   .     S
C484   C486    1.392   .     A
C484   H498    1.083   .     S
C484   C492    1.407   .     A
C485   F584    1.357   .     S
C487   F516    1.360   .     S
C487   C489    1.412   .     A
C488   F515    1.359   .     S
C488   C490    1.412   .     A
C489   C493    1.419   .     A
C489   C491    1.414   .     A
C490   C494    1.424   .     A
C490   C492    1.418   .     A
C491   C1061   1.404   .     S
C492   C1062   1.402   1_554 S
C493   C1088   1.416   .     S
C494   C1087   1.416   1_554 S
Cu495  O507    1.938   .     S
Cu495  O503    1.964   .     S
Cu495  N501    2.014   .     S
Cu495  O510    1.926   .     S
Cu495  O506    1.964   .     S
Cu496  O504    1.964   .     S
Cu496  O508    1.938   .     S
Cu496  N502    2.014   .     S
Cu496  O509    1.926   .     S
Cu496  O505    1.964   .     S
Cu496  Cu561   2.680   .     S
O504   C530    1.292   .     S
O508   C546    1.298   .     S
O511   H512    0.986   .     S
O513   H514    0.991   .     S
F517   C552    1.356   .     S
O519   H520    0.991   .     S
O521   H522    0.990   .     S
C529   O571    1.291   .     A
C529   C408    1.449   1_655 S
C529   O437    1.292   1_655 S
C530   O572    1.291   .     A
C531   C533    1.420   .     A
C531   C560    1.425   .     A
C531   O585    1.379   .     S
C532   O587    1.384   .     S
C532   C559    1.421   .     A
C532   C534    1.415   .     A
C533   O577    1.384   .     S
C533   C1151   1.404   1_554 S
C534   O579    1.383   .     S
C534   C1152   1.402   .     S
C535   F589    1.359   .     S
C535   C408    1.404   1_655 S
C536   F590    1.359   .     S
C536   C142    1.385   1_565 S
C537   C539    1.403   .     A
C537   F591    1.359   .     S
C537   C139    1.385   1_565 S
C538   F592    1.359   .     S
C538   C540    1.403   .     A
C539   C404    1.403   1_655 S
C539   C398    1.449   1_655 S
C541   H565    1.082   .     S
C541   C543    1.417   .     A
C541   N568    1.366   .     A
C542   H566    1.082   .     S
C542   C544    1.416   .     A
C542   N567    1.366   .     A
C543   N567    1.369   .     A
C543   F593    1.355   .     S
C544   N568    1.369   .     A
C544   F594    1.353   .     S
C545   C547    1.480   .     S
C545   O575    1.299   .     A
C545   O441    1.299   1_655 S
C546   C548    1.469   .     S
C546   O576    1.294   .     A
C547   C551    1.406   .     A
C547   C553    1.407   .     A
C548   C554    1.398   .     A
C548   C552    1.401   .     A
C549   C557    1.406   .     A
C549   C551    1.392   .     A
C549   H431    1.083   1_655 S
C550   C552    1.392   .     A
C550   H564    1.083   .     S
C550   C558    1.407   .     A
C551   F452    1.357   1_655 S
C553   F582    1.360   .     S
C553   C555    1.412   .     A
C554   F581    1.359   .     S
C554   C556    1.412   .     A
C555   C559    1.419   .     A
C555   C557    1.414   .     A
C556   C560    1.424   .     A
C556   C558    1.418   .     A
C557   C1127   1.404   .     S
C558   C1128   1.402   1_554 S
C559   C1154   1.416   .     S
C560   C1153   1.416   1_554 S
Cu561  O573    1.938   .     S
Cu561  O569    1.964   .     S
Cu561  N567    2.014   .     S
Cu561  O576    1.926   .     S
Cu561  O572    1.964   .     S
Cu562  O570    1.964   .     S
Cu562  O574    1.938   .     S
Cu562  N568    2.014   .     S
Cu562  O575    1.926   .     S
Cu562  O571    1.964   .     S
Cu562  Cu429   2.680   1_655 S
O570   C398    1.292   1_655 S
O574   C414    1.298   1_655 S
O577   H578    0.986   .     S
O579   H580    0.991   .     S
F583   C420    1.356   1_655 S
O585   H586    0.991   .     S
O587   H588    0.990   .     S
C595   O637    1.291   .     A
C595   C672    1.449   .     S
C595   O701    1.292   .     S
C596   O638    1.291   .     A
C596   C737    1.449   1_455 S
C596   O768    1.292   1_455 S
C597   C599    1.420   .     A
C597   C626    1.425   .     A
C597   O651    1.379   .     S
C598   O653    1.384   .     S
C598   C625    1.421   .     A
C598   C600    1.415   .     A
C599   O643    1.384   .     S
C600   O645    1.383   .     S
C600   C30     1.402   1_556 S
C601   F655    1.359   .     S
C601   C999    1.385   1_545 S
C601   C672    1.404   .     S
C602   F656    1.359   .     S
C602   C802    1.385   .     S
C602   C737    1.403   1_455 S
C603   C605    1.403   .     A
C603   F657    1.359   .     S
C603   C799    1.385   .     S
C604   F658    1.359   .     S
C604   C606    1.403   .     A
C604   C998    1.385   1_545 S
C605   C668    1.403   .     S
C605   C662    1.449   .     S
C606   C733    1.404   1_455 S
C606   C727    1.449   1_455 S
C607   H631    1.082   .     S
C607   C609    1.417   .     A
C607   N634    1.366   .     A
C608   H632    1.082   .     S
C608   C610    1.416   .     A
C608   N633    1.366   .     A
C609   N633    1.369   .     A
C609   F659    1.355   .     S
C610   N634    1.369   .     A
C610   F660    1.353   .     S
C611   C613    1.480   .     S
C611   O641    1.299   .     A
C611   O705    1.299   .     S
C612   C614    1.469   .     S
C612   O642    1.294   .     A
C612   O772    1.298   1_455 S
C613   C617    1.406   .     A
C613   C619    1.407   .     A
C614   C620    1.398   .     A
C614   C618    1.401   .     A
C615   C623    1.406   .     A
C615   C617    1.392   .     A
C615   H695    1.083   .     S
C616   C618    1.392   .     A
C616   H630    1.083   .     S
C616   C624    1.407   .     A
C617   F716    1.357   .     S
C618   F781    1.356   1_455 S
C619   F648    1.360   .     S
C619   C621    1.412   .     A
C620   F647    1.359   .     S
C620   C622    1.412   .     A
C621   C625    1.419   .     A
C621   C623    1.414   .     A
C622   C626    1.424   .     A
C622   C624    1.418   .     A
C623   C5      1.404   1_556 S
C625   C32     1.416   1_556 S
Cu627  O639    1.938   .     S
Cu627  O635    1.964   .     S
Cu627  N633    2.014   .     S
Cu627  O642    1.926   .     S
Cu627  O638    1.964   .     S
Cu627  Cu760   2.680   1_455 S
Cu628  O636    1.964   .     S
Cu628  O640    1.938   .     S
Cu628  N634    2.014   .     S
Cu628  O641    1.926   .     S
Cu628  O637    1.964   .     S
Cu628  Cu693   2.680   .     S
H629   C747    1.083   1_455 S
O635   C727    1.292   1_455 S
O636   C662    1.292   .     S
O639   C743    1.299   1_455 S
O640   C678    1.298   .     S
O643   H644    0.986   .     S
O645   H646    0.991   .     S
F649   C684    1.356   .     S
F650   C749    1.357   1_455 S
O651   H652    0.991   .     S
O653   H654    0.990   .     S
C661   O703    1.291   .     A
C661   C738    1.449   .     S
C661   O767    1.292   .     S
C662   O704    1.291   .     A
C663   C665    1.420   .     A
C663   C692    1.425   .     A
C663   O717    1.379   .     S
C664   O719    1.384   .     S
C664   C691    1.421   .     A
C664   C666    1.415   .     A
C665   O709    1.384   .     S
C666   O711    1.383   .     S
C666   C96     1.402   1_556 S
C667   F721    1.359   .     S
C667   C1065   1.385   1_545 S
C667   C738    1.404   .     S
C668   F722    1.359   .     S
C668   C868    1.385   .     S
C669   C671    1.403   .     A
C669   F723    1.359   .     S
C669   C865    1.385   .     S
C670   F724    1.359   .     S
C670   C672    1.403   .     A
C670   C1064   1.385   1_545 S
C671   C734    1.403   .     S
C671   C728    1.449   .     S
C673   H697    1.082   .     S
C673   C675    1.417   .     A
C673   N700    1.366   .     A
C674   H698    1.082   .     S
C674   C676    1.416   .     A
C674   N699    1.366   .     A
C675   N699    1.369   .     A
C675   F725    1.355   .     S
C676   N700    1.369   .     A
C676   F726    1.353   .     S
C677   C679    1.480   .     S
C677   O707    1.299   .     A
C677   O771    1.299   .     S
C678   C680    1.469   .     S
C678   O708    1.294   .     A
C679   C683    1.406   .     A
C679   C685    1.407   .     A
C680   C686    1.398   .     A
C680   C684    1.401   .     A
C681   C689    1.406   .     A
C681   C683    1.392   .     A
C681   H761    1.083   .     S
C682   C684    1.392   .     A
C682   H696    1.083   .     S
C682   C690    1.407   .     A
C683   F782    1.357   .     S
C685   F714    1.360   .     S
C685   C687    1.412   .     A
C686   F713    1.359   .     S
C686   C688    1.412   .     A
C687   C691    1.419   .     A
C687   C689    1.414   .     A
C688   C692    1.424   .     A
C688   C690    1.418   .     A
C689   C71     1.404   1_556 S
C691   C98     1.416   1_556 S
Cu693  O705    1.938   .     S
Cu693  O701    1.964   .     S
Cu693  N699    2.014   .     S
Cu693  O708    1.926   .     S
Cu693  O704    1.964   .     S
Cu694  O702    1.964   .     S
Cu694  O706    1.938   .     S
Cu694  N700    2.014   .     S
Cu694  O707    1.926   .     S
Cu694  O703    1.964   .     S
Cu694  Cu759   2.680   .     S
O702   C728    1.292   .     S
O706   C744    1.298   .     S
O709   H710    0.986   .     S
O711   H712    0.991   .     S
F715   C750    1.356   .     S
O717   H718    0.991   .     S
O719   H720    0.990   .     S
C727   O769    1.291   .     A
C727   C606    1.449   1_655 S
C727   O635    1.292   1_655 S
C728   O770    1.291   .     A
C729   C731    1.420   .     A
C729   C758    1.425   .     A
C729   O783    1.379   .     S
C730   O785    1.384   .     S
C730   C757    1.421   .     A
C730   C732    1.415   .     A
C731   O775    1.384   .     S
C732   O777    1.383   .     S
C732   C162    1.402   1_556 S
C733   F787    1.359   .     S
C733   C1131   1.385   1_545 S
C733   C606    1.404   1_655 S
C734   F788    1.359   .     S
C734   C934    1.385   .     S
C735   C737    1.403   .     A
C735   F789    1.359   .     S
C735   C931    1.385   .     S
C736   F790    1.359   .     S
C736   C738    1.403   .     A
C736   C1130   1.385   1_545 S
C737   C602    1.403   1_655 S
C737   C596    1.449   1_655 S
C739   H763    1.082   .     S
C739   C741    1.417   .     A
C739   N766    1.366   .     A
C740   H764    1.082   .     S
C740   C742    1.416   .     A
C740   N765    1.366   .     A
C741   N765    1.369   .     A
C741   F791    1.355   .     S
C742   N766    1.369   .     A
C742   F792    1.353   .     S
C743   C745    1.480   .     S
C743   O773    1.299   .     A
C743   O639    1.299   1_655 S
C744   C746    1.469   .     S
C744   O774    1.294   .     A
C745   C749    1.406   .     A
C745   C751    1.407   .     A
C746   C752    1.398   .     A
C746   C750    1.401   .     A
C747   C755    1.406   .     A
C747   C749    1.392   .     A
C747   H629    1.083   1_655 S
C748   C750    1.392   .     A
C748   H762    1.083   .     S
C748   C756    1.407   .     A
C749   F650    1.357   1_655 S
C751   F780    1.360   .     S
C751   C753    1.412   .     A
C752   F779    1.359   .     S
C752   C754    1.412   .     A
C753   C757    1.419   .     A
C753   C755    1.414   .     A
C754   C758    1.424   .     A
C754   C756    1.418   .     A
C755   C137    1.404   1_556 S
C757   C164    1.416   1_556 S
Cu759  O771    1.938   .     S
Cu759  O767    1.964   .     S
Cu759  N765    2.014   .     S
Cu759  O774    1.926   .     S
Cu759  O770    1.964   .     S
Cu760  O768    1.964   .     S
Cu760  O772    1.938   .     S
Cu760  N766    2.014   .     S
Cu760  O773    1.926   .     S
Cu760  O769    1.964   .     S
Cu760  Cu627   2.680   1_655 S
O768   C596    1.292   1_655 S
O772   C612    1.298   1_655 S
O775   H776    0.986   .     S
O777   H778    0.991   .     S
F781   C618    1.356   1_655 S
O783   H784    0.991   .     S
O785   H786    0.990   .     S
C793   O835    1.291   .     A
C793   C870    1.449   .     S
C793   O899    1.292   .     S
C794   O836    1.291   .     A
C794   C935    1.449   1_455 S
C794   O966    1.292   1_455 S
C795   C797    1.420   .     A
C795   C824    1.425   .     A
C795   O849    1.379   .     S
C796   O851    1.384   .     S
C796   C823    1.421   .     A
C796   C798    1.415   .     A
C797   O841    1.384   .     S
C798   O843    1.383   .     S
C798   C228    1.402   1_556 S
C799   F853    1.359   .     S
C799   C870    1.404   .     S
C800   F854    1.359   .     S
C800   C1000   1.385   .     S
C800   C935    1.403   1_455 S
C801   C803    1.403   .     A
C801   F855    1.359   .     S
C801   C997    1.385   .     S
C802   F856    1.359   .     S
C802   C804    1.403   .     A
C803   C866    1.403   .     S
C803   C860    1.449   .     S
C804   C931    1.404   1_455 S
C804   C925    1.449   1_455 S
C805   H829    1.082   .     S
C805   C807    1.417   .     A
C805   N832    1.366   .     A
C806   H830    1.082   .     S
C806   C808    1.416   .     A
C806   N831    1.366   .     A
C807   N831    1.369   .     A
C807   F857    1.355   .     S
C808   N832    1.369   .     A
C808   F858    1.353   .     S
C809   C811    1.480   .     S
C809   O839    1.299   .     A
C809   O903    1.299   .     S
C810   C812    1.469   .     S
C810   O840    1.294   .     A
C810   O970    1.298   1_455 S
C811   C815    1.406   .     A
C811   C817    1.407   .     A
C812   C818    1.398   .     A
C812   C816    1.401   .     A
C813   C821    1.406   .     A
C813   C815    1.392   .     A
C813   H893    1.083   .     S
C814   C816    1.392   .     A
C814   H828    1.083   .     S
C814   C822    1.407   .     A
C815   F914    1.357   .     S
C816   F979    1.356   1_455 S
C817   F846    1.360   .     S
C817   C819    1.412   .     A
C818   F845    1.359   .     S
C818   C820    1.412   .     A
C819   C823    1.419   .     A
C819   C821    1.414   .     A
C820   C824    1.424   .     A
C820   C822    1.418   .     A
C821   C203    1.404   1_556 S
C823   C230    1.416   1_556 S
Cu825  O837    1.938   .     S
Cu825  O833    1.964   .     S
Cu825  N831    2.014   .     S
Cu825  O840    1.926   .     S
Cu825  O836    1.964   .     S
Cu825  Cu958   2.680   1_455 S
Cu826  O834    1.964   .     S
Cu826  O838    1.938   .     S
Cu826  N832    2.014   .     S
Cu826  O839    1.926   .     S
Cu826  O835    1.964   .     S
Cu826  Cu891   2.680   .     S
H827   C945    1.083   1_455 S
O833   C925    1.292   1_455 S
O834   C860    1.292   .     S
O837   C941    1.299   1_455 S
O838   C876    1.298   .     S
O841   H842    0.986   .     S
O843   H844    0.991   .     S
F847   C882    1.356   .     S
F848   C947    1.357   1_455 S
O849   H850    0.991   .     S
O851   H852    0.990   .     S
C859   O901    1.291   .     A
C859   C936    1.449   .     S
C859   O965    1.292   .     S
C860   O902    1.291   .     A
C861   C863    1.420   .     A
C861   C890    1.425   .     A
C861   O915    1.379   .     S
C862   O917    1.384   .     S
C862   C889    1.421   .     A
C862   C864    1.415   .     A
C863   O907    1.384   .     S
C864   O909    1.383   .     S
C864   C294    1.402   1_556 S
C865   F919    1.359   .     S
C865   C936    1.404   .     S
C866   F920    1.359   .     S
C866   C1066   1.385   .     S
C867   C869    1.403   .     A
C867   F921    1.359   .     S
C867   C1063   1.385   .     S
C868   F922    1.359   .     S
C868   C870    1.403   .     A
C869   C932    1.403   .     S
C869   C926    1.449   .     S
C871   H895    1.082   .     S
C871   C873    1.417   .     A
C871   N898    1.366   .     A
C872   H896    1.082   .     S
C872   C874    1.416   .     A
C872   N897    1.366   .     A
C873   N897    1.369   .     A
C873   F923    1.355   .     S
C874   N898    1.369   .     A
C874   F924    1.353   .     S
C875   C877    1.480   .     S
C875   O905    1.299   .     A
C875   O969    1.299   .     S
C876   C878    1.469   .     S
C876   O906    1.294   .     A
C877   C881    1.406   .     A
C877   C883    1.407   .     A
C878   C884    1.398   .     A
C878   C882    1.401   .     A
C879   C887    1.406   .     A
C879   C881    1.392   .     A
C879   H959    1.083   .     S
C880   C882    1.392   .     A
C880   H894    1.083   .     S
C880   C888    1.407   .     A
C881   F980    1.357   .     S
C883   F912    1.360   .     S
C883   C885    1.412   .     A
C884   F911    1.359   .     S
C884   C886    1.412   .     A
C885   C889    1.419   .     A
C885   C887    1.414   .     A
C886   C890    1.424   .     A
C886   C888    1.418   .     A
C887   C269    1.404   1_556 S
C889   C296    1.416   1_556 S
Cu891  O903    1.938   .     S
Cu891  O899    1.964   .     S
Cu891  N897    2.014   .     S
Cu891  O906    1.926   .     S
Cu891  O902    1.964   .     S
Cu892  O900    1.964   .     S
Cu892  O904    1.938   .     S
Cu892  N898    2.014   .     S
Cu892  O905    1.926   .     S
Cu892  O901    1.964   .     S
Cu892  Cu957   2.680   .     S
O900   C926    1.292   .     S
O904   C942    1.298   .     S
O907   H908    0.986   .     S
O909   H910    0.991   .     S
F913   C948    1.356   .     S
O915   H916    0.991   .     S
O917   H918    0.990   .     S
C925   O967    1.291   .     A
C925   C804    1.449   1_655 S
C925   O833    1.292   1_655 S
C926   O968    1.291   .     A
C927   C929    1.420   .     A
C927   C956    1.425   .     A
C927   O981    1.379   .     S
C928   O983    1.384   .     S
C928   C955    1.421   .     A
C928   C930    1.415   .     A
C929   O973    1.384   .     S
C930   O975    1.383   .     S
C930   C360    1.402   1_556 S
C931   F985    1.359   .     S
C931   C804    1.404   1_655 S
C932   F986    1.359   .     S
C932   C1132   1.385   .     S
C933   C935    1.403   .     A
C933   F987    1.359   .     S
C933   C1129   1.385   .     S
C934   F988    1.359   .     S
C934   C936    1.403   .     A
C935   C800    1.403   1_655 S
C935   C794    1.449   1_655 S
C937   H961    1.082   .     S
C937   C939    1.417   .     A
C937   N964    1.366   .     A
C938   H962    1.082   .     S
C938   C940    1.416   .     A
C938   N963    1.366   .     A
C939   N963    1.369   .     A
C939   F989    1.355   .     S
C940   N964    1.369   .     A
C940   F990    1.353   .     S
C941   C943    1.480   .     S
C941   O971    1.299   .     A
C941   O837    1.299   1_655 S
C942   C944    1.469   .     S
C942   O972    1.294   .     A
C943   C947    1.406   .     A
C943   C949    1.407   .     A
C944   C950    1.398   .     A
C944   C948    1.401   .     A
C945   C953    1.406   .     A
C945   C947    1.392   .     A
C945   H827    1.083   1_655 S
C946   C948    1.392   .     A
C946   H960    1.083   .     S
C946   C954    1.407   .     A
C947   F848    1.357   1_655 S
C949   F978    1.360   .     S
C949   C951    1.412   .     A
C950   F977    1.359   .     S
C950   C952    1.412   .     A
C951   C955    1.419   .     A
C951   C953    1.414   .     A
C952   C956    1.424   .     A
C952   C954    1.418   .     A
C953   C335    1.404   1_556 S
C955   C362    1.416   1_556 S
Cu957  O969    1.938   .     S
Cu957  O965    1.964   .     S
Cu957  N963    2.014   .     S
Cu957  O972    1.926   .     S
Cu957  O968    1.964   .     S
Cu958  O966    1.964   .     S
Cu958  O970    1.938   .     S
Cu958  N964    2.014   .     S
Cu958  O971    1.926   .     S
Cu958  O967    1.964   .     S
Cu958  Cu825   2.680   1_655 S
O966   C794    1.292   1_655 S
O970   C810    1.298   1_655 S
O973   H974    0.986   .     S
O975   H976    0.991   .     S
F979   C816    1.356   1_655 S
O981   H982    0.991   .     S
O983   H984    0.990   .     S
C991   O1033   1.291   .     A
C991   C1068   1.449   .     S
C991   O1097   1.292   .     S
C992   O1034   1.291   .     A
C992   C1133   1.449   1_455 S
C992   O1164   1.292   1_455 S
C993   C995    1.420   .     A
C993   C1022   1.425   .     A
C993   O1047   1.379   .     S
C994   O1049   1.384   .     S
C994   C1021   1.421   .     A
C994   C996    1.415   .     A
C995   O1039   1.384   .     S
C996   O1041   1.383   .     S
C996   C426    1.402   1_556 S
C997   F1051   1.359   .     S
C997   C1068   1.404   .     S
C998   F1052   1.359   .     S
C998   C604    1.385   1_565 S
C998   C1133   1.403   1_455 S
C999   C1001   1.403   .     A
C999   F1053   1.359   .     S
C999   C601    1.385   1_565 S
C1000  F1054   1.359   .     S
C1000  C1002   1.403   .     A
C1001  C1064   1.403   .     S
C1001  C1058   1.449   .     S
C1002  C1129   1.404   1_455 S
C1002  C1123   1.449   1_455 S
C1003  H1027   1.082   .     S
C1003  C1005   1.417   .     A
C1003  N1030   1.366   .     A
C1004  H1028   1.082   .     S
C1004  C1006   1.416   .     A
C1004  N1029   1.366   .     A
C1005  N1029   1.369   .     A
C1005  F1055   1.355   .     S
C1006  N1030   1.369   .     A
C1006  F1056   1.353   .     S
C1007  C1009   1.480   .     S
C1007  O1037   1.299   .     A
C1007  O1101   1.299   .     S
C1008  C1010   1.469   .     S
C1008  O1038   1.294   .     A
C1008  O1168   1.298   1_455 S
C1009  C1013   1.406   .     A
C1009  C1015   1.407   .     A
C1010  C1016   1.398   .     A
C1010  C1014   1.401   .     A
C1011  C1019   1.406   .     A
C1011  C1013   1.392   .     A
C1011  H1091   1.083   .     S
C1012  C1014   1.392   .     A
C1012  H1026   1.083   .     S
C1012  C1020   1.407   .     A
C1013  F1112   1.357   .     S
C1014  F1177   1.356   1_455 S
C1015  F1044   1.360   .     S
C1015  C1017   1.412   .     A
C1016  F1043   1.359   .     S
C1016  C1018   1.412   .     A
C1017  C1021   1.419   .     A
C1017  C1019   1.414   .     A
C1018  C1022   1.424   .     A
C1018  C1020   1.418   .     A
C1019  C401    1.404   1_556 S
C1021  C428    1.416   1_556 S
Cu1023 O1035   1.938   .     S
Cu1023 O1031   1.964   .     S
Cu1023 N1029   2.014   .     S
Cu1023 O1038   1.926   .     S
Cu1023 O1034   1.964   .     S
Cu1023 Cu1156  2.680   1_455 S
Cu1024 O1032   1.964   .     S
Cu1024 O1036   1.938   .     S
Cu1024 N1030   2.014   .     S
Cu1024 O1037   1.926   .     S
Cu1024 O1033   1.964   .     S
Cu1024 Cu1089  2.680   .     S
H1025  C1143   1.083   1_455 S
O1031  C1123   1.292   1_455 S
O1032  C1058   1.292   .     S
O1035  C1139   1.299   1_455 S
O1036  C1074   1.298   .     S
O1039  H1040   0.986   .     S
O1041  H1042   0.991   .     S
F1045  C1080   1.356   .     S
F1046  C1145   1.357   1_455 S
O1047  H1048   0.991   .     S
O1049  H1050   0.990   .     S
C1057  O1099   1.291   .     A
C1057  C1134   1.449   .     S
C1057  O1163   1.292   .     S
C1058  O1100   1.291   .     A
C1059  C1061   1.420   .     A
C1059  C1088   1.425   .     A
C1059  O1113   1.379   .     S
C1060  O1115   1.384   .     S
C1060  C1087   1.421   .     A
C1060  C1062   1.415   .     A
C1061  O1105   1.384   .     S
C1062  O1107   1.383   .     S
C1062  C492    1.402   1_556 S
C1063  F1117   1.359   .     S
C1063  C1134   1.404   .     S
C1064  F1118   1.359   .     S
C1064  C670    1.385   1_565 S
C1065  C1067   1.403   .     A
C1065  F1119   1.359   .     S
C1065  C667    1.385   1_565 S
C1066  F1120   1.359   .     S
C1066  C1068   1.403   .     A
C1067  C1130   1.403   .     S
C1067  C1124   1.449   .     S
C1069  H1093   1.082   .     S
C1069  C1071   1.417   .     A
C1069  N1096   1.366   .     A
C1070  H1094   1.082   .     S
C1070  C1072   1.416   .     A
C1070  N1095   1.366   .     A
C1071  N1095   1.369   .     A
C1071  F1121   1.355   .     S
C1072  N1096   1.369   .     A
C1072  F1122   1.353   .     S
C1073  C1075   1.480   .     S
C1073  O1103   1.299   .     A
C1073  O1167   1.299   .     S
C1074  C1076   1.469   .     S
C1074  O1104   1.294   .     A
C1075  C1079   1.406   .     A
C1075  C1081   1.407   .     A
C1076  C1082   1.398   .     A
C1076  C1080   1.401   .     A
C1077  C1085   1.406   .     A
C1077  C1079   1.392   .     A
C1077  H1157   1.083   .     S
C1078  C1080   1.392   .     A
C1078  H1092   1.083   .     S
C1078  C1086   1.407   .     A
C1079  F1178   1.357   .     S
C1081  F1110   1.360   .     S
C1081  C1083   1.412   .     A
C1082  F1109   1.359   .     S
C1082  C1084   1.412   .     A
C1083  C1087   1.419   .     A
C1083  C1085   1.414   .     A
C1084  C1088   1.424   .     A
C1084  C1086   1.418   .     A
C1085  C467    1.404   1_556 S
C1087  C494    1.416   1_556 S
Cu1089 O1101   1.938   .     S
Cu1089 O1097   1.964   .     S
Cu1089 N1095   2.014   .     S
Cu1089 O1104   1.926   .     S
Cu1089 O1100   1.964   .     S
Cu1090 O1098   1.964   .     S
Cu1090 O1102   1.938   .     S
Cu1090 N1096   2.014   .     S
Cu1090 O1103   1.926   .     S
Cu1090 O1099   1.964   .     S
Cu1090 Cu1155  2.680   .     S
O1098  C1124   1.292   .     S
O1102  C1140   1.298   .     S
O1105  H1106   0.986   .     S
O1107  H1108   0.991   .     S
F1111  C1146   1.356   .     S
O1113  H1114   0.991   .     S
O1115  H1116   0.990   .     S
C1123  O1165   1.291   .     A
C1123  C1002   1.449   1_655 S
C1123  O1031   1.292   1_655 S
C1124  O1166   1.291   .     A
C1125  C1127   1.420   .     A
C1125  C1154   1.425   .     A
C1125  O1179   1.379   .     S
C1126  O1181   1.384   .     S
C1126  C1153   1.421   .     A
C1126  C1128   1.415   .     A
C1127  O1171   1.384   .     S
C1128  O1173   1.383   .     S
C1128  C558    1.402   1_556 S
C1129  F1183   1.359   .     S
C1129  C1002   1.404   1_655 S
C1130  F1184   1.359   .     S
C1130  C736    1.385   1_565 S
C1131  C1133   1.403   .     A
C1131  F1185   1.359   .     S
C1131  C733    1.385   1_565 S
C1132  F1186   1.359   .     S
C1132  C1134   1.403   .     A
C1133  C998    1.403   1_655 S
C1133  C992    1.449   1_655 S
C1135  H1159   1.082   .     S
C1135  C1137   1.417   .     A
C1135  N1162   1.366   .     A
C1136  H1160   1.082   .     S
C1136  C1138   1.416   .     A
C1136  N1161   1.366   .     A
C1137  N1161   1.369   .     A
C1137  F1187   1.355   .     S
C1138  N1162   1.369   .     A
C1138  F1188   1.353   .     S
C1139  C1141   1.480   .     S
C1139  O1169   1.299   .     A
C1139  O1035   1.299   1_655 S
C1140  C1142   1.469   .     S
C1140  O1170   1.294   .     A
C1141  C1145   1.406   .     A
C1141  C1147   1.407   .     A
C1142  C1148   1.398   .     A
C1142  C1146   1.401   .     A
C1143  C1151   1.406   .     A
C1143  C1145   1.392   .     A
C1143  H1025   1.083   1_655 S
C1144  C1146   1.392   .     A
C1144  H1158   1.083   .     S
C1144  C1152   1.407   .     A
C1145  F1046   1.357   1_655 S
C1147  F1176   1.360   .     S
C1147  C1149   1.412   .     A
C1148  F1175   1.359   .     S
C1148  C1150   1.412   .     A
C1149  C1153   1.419   .     A
C1149  C1151   1.414   .     A
C1150  C1154   1.424   .     A
C1150  C1152   1.418   .     A
C1151  C533    1.404   1_556 S
C1153  C560    1.416   1_556 S
Cu1155 O1167   1.938   .     S
Cu1155 O1163   1.964   .     S
Cu1155 N1161   2.014   .     S
Cu1155 O1170   1.926   .     S
Cu1155 O1166   1.964   .     S
Cu1156 O1164   1.964   .     S
Cu1156 O1168   1.938   .     S
Cu1156 N1162   2.014   .     S
Cu1156 O1169   1.926   .     S
Cu1156 O1165   1.964   .     S
Cu1156 Cu1023  2.680   1_655 S
O1164  C992    1.292   1_655 S
O1168  C1008   1.298   1_655 S
O1171  H1172   0.986   .     S
O1173  H1174   0.991   .     S
F1177  C1014   1.356   1_655 S
O1179  H1180   0.991   .     S
O1181  H1182   0.990   .     S
