data_str_m2_o2_o10_pcu_sym.79
_audit_creation_date              2020-01-03
_audit_creation_method            'Materials Studio'
_symmetry_space_group_name_H-M    'P1'
_symmetry_Int_Tables_number       1
_symmetry_cell_setting            triclinic
loop_
_symmetry_equiv_pos_as_xyz
  x,y,z
_cell_length_a                    26.1758
_cell_length_b                    30.2237
_cell_length_c                    27.7266
_cell_angle_alpha                 89.7477
_cell_angle_beta                  97.9011
_cell_angle_gamma                 90.1406
loop_
_atom_site_label
_atom_site_type_symbol
_atom_site_fract_x
_atom_site_fract_y
_atom_site_fract_z
_atom_site_U_iso_or_equiv
_atom_site_adp_type
_atom_site_occupancy
O1     O     0.16667   0.18573   0.29072   0.00000  Uiso   1.00
O2     O     0.16666   0.31428   0.20928   0.00000  Uiso   1.00
O3     O     0.16667   0.18573   0.20928   0.00000  Uiso   1.00
O4     O     0.16666   0.31427   0.29072   0.00000  Uiso   1.00
C5     C     0.16638   0.16497   0.25008   0.00000  Uiso   1.00
C6     C     0.16638   0.33507   0.24986   0.00000  Uiso   1.00
O7     O     0.09161   0.25000   0.28132   0.00000  Uiso   1.00
O8     O     0.24172   0.25001   0.21868   0.00000  Uiso   1.00
O9     O     0.09161   0.25000   0.19988   0.00000  Uiso   1.00
O10    O     0.24172   0.25000   0.30012   0.00000  Uiso   1.00
C11    C     0.06790   0.24997   0.23755   0.00000  Uiso   1.00
C12    C     0.26544   0.25000   0.26244   0.00000  Uiso   1.00
Cu13   Cu    0.16667   0.25000   0.29822   0.00000  Uiso   1.00
Cu14   Cu    0.16667   0.25001   0.20179   0.00000  Uiso   1.00
C15    C     0.01264   0.24993   0.23067   0.00000  Uiso   1.00
C16    C     0.32070   0.24999   0.26931   0.00000  Uiso   1.00
H17    H     0.32602   0.24985   0.19359   0.00000  Uiso   1.00
H18    H     0.00734   0.25004   0.30638   0.00000  Uiso   1.00
C19    C     0.13756   0.04834   0.28578   0.00000  Uiso   1.00
C20    C     0.14045   0.45192   0.20593   0.00000  Uiso   1.00
C21    C     0.14106   0.09452   0.28578   0.00000  Uiso   1.00
C22    C     0.14392   0.40575   0.20677   0.00000  Uiso   1.00
H23    H     0.12396   0.11326   0.31272   0.00000  Uiso   1.00
H24    H     0.12912   0.38716   0.17447   0.00000  Uiso   1.00
C25    C     0.16464   0.11679   0.25031   0.00000  Uiso   1.00
C26    C     0.16464   0.38332   0.24928   0.00000  Uiso   1.00
C27    C     0.18601   0.09295   0.21498   0.00000  Uiso   1.00
C28    C     0.18304   0.40710   0.29124   0.00000  Uiso   1.00
H29    H     0.20489   0.10977   0.18768   0.00000  Uiso   1.00
H30    H     0.19971   0.39026   0.32424   0.00000  Uiso   1.00
C31    C     0.18422   0.04710   0.21527   0.00000  Uiso   1.00
C32    C     0.18112   0.45295   0.29068   0.00000  Uiso   1.00
H33    H     0.20236   0.02917   0.18845   0.00000  Uiso   1.00
H34    H     0.19696   0.47081   0.32314   0.00000  Uiso   1.00
C35    C     0.15942   0.02440   0.24978   0.00000  Uiso   1.00
C36    C     0.15931   0.47575   0.24868   0.00000  Uiso   1.00
C37    C     0.21284   0.26204   0.06018   0.00000  Uiso   1.00
C38    C     0.15244   0.21018   0.44396   0.00000  Uiso   1.00
C39    C     0.20973   0.26368   0.11068   0.00000  Uiso   1.00
C40    C     0.15076   0.21295   0.39281   0.00000  Uiso   1.00
H41    H     0.24281   0.27494   0.13514   0.00000  Uiso   1.00
H42    H     0.13786   0.18458   0.37089   0.00000  Uiso   1.00
N43    N     0.16667   0.25001   0.12934   0.00000  Uiso   1.00
N44    N     0.16667   0.24999   0.37066   0.00000  Uiso   1.00
C45    C     0.12460   0.23602   0.09858   0.00000  Uiso   1.00
C46    C     0.18284   0.28604   0.39808   0.00000  Uiso   1.00
H47    H     0.09042   0.22511   0.11309   0.00000  Uiso   1.00
H48    H     0.19560   0.31542   0.38084   0.00000  Uiso   1.00
C49    C     0.12481   0.23555   0.04788   0.00000  Uiso   1.00
C50    C     0.18322   0.28574   0.44885   0.00000  Uiso   1.00
H51    H     0.09034   0.22515   0.02451   0.00000  Uiso   1.00
H52    H     0.19527   0.31528   0.46932   0.00000  Uiso   1.00
C53    C     0.16920   0.24806   0.02762   0.00000  Uiso   1.00
C54    C     0.16860   0.24759   0.47297   0.00000  Uiso   1.00
C55    C     0.11076   0.02657   0.32353   0.00000  Uiso   1.00
C56    C     0.07050   0.49613   0.31060   0.00000  Uiso   1.00
C57    C     0.04545   0.47618   0.34647   0.00000  Uiso   1.00
C58    C     0.06009   0.48655   0.39549   0.00000  Uiso   1.00
C59    C     0.09976   0.01696   0.40873   0.00000  Uiso   1.00
C60    C     0.12495   0.03696   0.37298   0.00000  Uiso   1.00
H61    H     0.05829   0.48789   0.27288   0.00000  Uiso   1.00
H62    H     0.01456   0.45274   0.33624   0.00000  Uiso   1.00
H63    H     0.04063   0.47109   0.42321   0.00000  Uiso   1.00
H64    H     0.11102   0.02503   0.44671   0.00000  Uiso   1.00
H65    H     0.15581   0.06030   0.38390   0.00000  Uiso   1.00
C66    C     0.11712   0.47393   0.16006   0.00000  Uiso   1.00
C67    C     0.07638   0.00424   0.15982   0.00000  Uiso   1.00
C68    C     0.05508   0.02485   0.11647   0.00000  Uiso   1.00
C69    C     0.07394   0.01526   0.07294   0.00000  Uiso   1.00
C70    C     0.11411   0.48496   0.07268   0.00000  Uiso   1.00
C71    C     0.13558   0.46430   0.11596   0.00000  Uiso   1.00
H72    H     0.06103   0.01196   0.19303   0.00000  Uiso   1.00
H73    H     0.02386   0.04825   0.11662   0.00000  Uiso   1.00
H74    H     0.05741   0.03126   0.03941   0.00000  Uiso   1.00
H75    H     0.12868   0.47754   0.03893   0.00000  Uiso   1.00
H76    H     0.16699   0.44116   0.11518   0.00000  Uiso   1.00
N77    N     0.26095   0.27282   0.04332   0.00000  Uiso   1.00
O78    O     0.27731   0.24956   0.00917   0.00000  Uiso   1.00
O79    O     0.29193   0.30169   0.06664   0.00000  Uiso   1.00
N80    N     0.13984   0.16882   0.46542   0.00000  Uiso   1.00
O81    O     0.16648   0.15496   0.00572   0.00000  Uiso   1.00
O82    O     0.10673   0.14203   0.44136   0.00000  Uiso   1.00
O83    O     0.50000   0.18573   0.29072   0.00000  Uiso   1.00
O84    O     0.50000   0.31428   0.20928   0.00000  Uiso   1.00
O85    O     0.50000   0.18573   0.20928   0.00000  Uiso   1.00
O86    O     0.50000   0.31427   0.29072   0.00000  Uiso   1.00
C87    C     0.49971   0.16497   0.25008   0.00000  Uiso   1.00
C88    C     0.49971   0.33507   0.24986   0.00000  Uiso   1.00
O89    O     0.42495   0.25000   0.28132   0.00000  Uiso   1.00
O90    O     0.57505   0.25001   0.21868   0.00000  Uiso   1.00
O91    O     0.42495   0.25000   0.19988   0.00000  Uiso   1.00
O92    O     0.57505   0.25000   0.30012   0.00000  Uiso   1.00
C93    C     0.40123   0.24997   0.23755   0.00000  Uiso   1.00
C94    C     0.59877   0.25000   0.26244   0.00000  Uiso   1.00
Cu95   Cu    0.50000   0.25000   0.29822   0.00000  Uiso   1.00
Cu96   Cu    0.50000   0.25001   0.20179   0.00000  Uiso   1.00
C97    C     0.34597   0.24993   0.23067   0.00000  Uiso   1.00
C98    C     0.65404   0.24999   0.26931   0.00000  Uiso   1.00
H99    H     0.65936   0.24985   0.19359   0.00000  Uiso   1.00
H100   H     0.34068   0.25004   0.30638   0.00000  Uiso   1.00
C101   C     0.47089   0.04834   0.28578   0.00000  Uiso   1.00
C102   C     0.47378   0.45192   0.20593   0.00000  Uiso   1.00
C103   C     0.47440   0.09452   0.28578   0.00000  Uiso   1.00
C104   C     0.47725   0.40575   0.20677   0.00000  Uiso   1.00
H105   H     0.45730   0.11326   0.31272   0.00000  Uiso   1.00
H106   H     0.46245   0.38716   0.17447   0.00000  Uiso   1.00
C107   C     0.49798   0.11679   0.25031   0.00000  Uiso   1.00
C108   C     0.49798   0.38332   0.24928   0.00000  Uiso   1.00
C109   C     0.51934   0.09295   0.21498   0.00000  Uiso   1.00
C110   C     0.51638   0.40710   0.29124   0.00000  Uiso   1.00
H111   H     0.53823   0.10977   0.18768   0.00000  Uiso   1.00
H112   H     0.53304   0.39026   0.32424   0.00000  Uiso   1.00
C113   C     0.51755   0.04710   0.21527   0.00000  Uiso   1.00
C114   C     0.51445   0.45295   0.29068   0.00000  Uiso   1.00
H115   H     0.53569   0.02917   0.18845   0.00000  Uiso   1.00
H116   H     0.53029   0.47081   0.32314   0.00000  Uiso   1.00
C117   C     0.49276   0.02440   0.24978   0.00000  Uiso   1.00
C118   C     0.49264   0.47575   0.24868   0.00000  Uiso   1.00
C119   C     0.54617   0.26204   0.06018   0.00000  Uiso   1.00
C120   C     0.48577   0.21018   0.44396   0.00000  Uiso   1.00
C121   C     0.54307   0.26368   0.11068   0.00000  Uiso   1.00
C122   C     0.48409   0.21295   0.39281   0.00000  Uiso   1.00
H123   H     0.57615   0.27494   0.13514   0.00000  Uiso   1.00
H124   H     0.47120   0.18458   0.37089   0.00000  Uiso   1.00
N125   N     0.50000   0.25001   0.12934   0.00000  Uiso   1.00
N126   N     0.50000   0.24999   0.37066   0.00000  Uiso   1.00
C127   C     0.45794   0.23602   0.09858   0.00000  Uiso   1.00
C128   C     0.51617   0.28604   0.39808   0.00000  Uiso   1.00
H129   H     0.42375   0.22511   0.11309   0.00000  Uiso   1.00
H130   H     0.52893   0.31542   0.38084   0.00000  Uiso   1.00
C131   C     0.45815   0.23555   0.04788   0.00000  Uiso   1.00
C132   C     0.51655   0.28574   0.44885   0.00000  Uiso   1.00
H133   H     0.42368   0.22515   0.02451   0.00000  Uiso   1.00
H134   H     0.52861   0.31528   0.46932   0.00000  Uiso   1.00
C135   C     0.50254   0.24806   0.02762   0.00000  Uiso   1.00
C136   C     0.50193   0.24759   0.47297   0.00000  Uiso   1.00
C137   C     0.44409   0.02657   0.32353   0.00000  Uiso   1.00
C138   C     0.40383   0.49613   0.31060   0.00000  Uiso   1.00
C139   C     0.37878   0.47618   0.34647   0.00000  Uiso   1.00
C140   C     0.39342   0.48655   0.39549   0.00000  Uiso   1.00
C141   C     0.43309   0.01696   0.40873   0.00000  Uiso   1.00
C142   C     0.45829   0.03696   0.37298   0.00000  Uiso   1.00
H143   H     0.39163   0.48789   0.27288   0.00000  Uiso   1.00
H144   H     0.34790   0.45274   0.33624   0.00000  Uiso   1.00
H145   H     0.37396   0.47109   0.42321   0.00000  Uiso   1.00
H146   H     0.44435   0.02503   0.44671   0.00000  Uiso   1.00
H147   H     0.48914   0.06030   0.38390   0.00000  Uiso   1.00
C148   C     0.45045   0.47393   0.16006   0.00000  Uiso   1.00
C149   C     0.40972   0.00424   0.15982   0.00000  Uiso   1.00
C150   C     0.38841   0.02485   0.11647   0.00000  Uiso   1.00
C151   C     0.40728   0.01526   0.07294   0.00000  Uiso   1.00
C152   C     0.44744   0.48496   0.07268   0.00000  Uiso   1.00
C153   C     0.46892   0.46430   0.11596   0.00000  Uiso   1.00
H154   H     0.39437   0.01196   0.19303   0.00000  Uiso   1.00
H155   H     0.35719   0.04825   0.11662   0.00000  Uiso   1.00
H156   H     0.39074   0.03126   0.03941   0.00000  Uiso   1.00
H157   H     0.46202   0.47754   0.03893   0.00000  Uiso   1.00
H158   H     0.50032   0.44116   0.11518   0.00000  Uiso   1.00
N159   N     0.59429   0.27282   0.04332   0.00000  Uiso   1.00
O160   O     0.61065   0.24956   0.00917   0.00000  Uiso   1.00
O161   O     0.62526   0.30169   0.06664   0.00000  Uiso   1.00
N162   N     0.47318   0.16882   0.46542   0.00000  Uiso   1.00
O163   O     0.49981   0.15496   0.00572   0.00000  Uiso   1.00
O164   O     0.44007   0.14203   0.44136   0.00000  Uiso   1.00
O165   O     0.83334   0.18573   0.29072   0.00000  Uiso   1.00
O166   O     0.83333   0.31428   0.20928   0.00000  Uiso   1.00
O167   O     0.83334   0.18573   0.20928   0.00000  Uiso   1.00
O168   O     0.83333   0.31427   0.29072   0.00000  Uiso   1.00
C169   C     0.83305   0.16497   0.25008   0.00000  Uiso   1.00
C170   C     0.83305   0.33507   0.24986   0.00000  Uiso   1.00
O171   O     0.75828   0.25000   0.28132   0.00000  Uiso   1.00
O172   O     0.90839   0.25001   0.21868   0.00000  Uiso   1.00
O173   O     0.75828   0.25000   0.19988   0.00000  Uiso   1.00
O174   O     0.90839   0.25000   0.30012   0.00000  Uiso   1.00
C175   C     0.73456   0.24997   0.23755   0.00000  Uiso   1.00
C176   C     0.93211   0.25000   0.26244   0.00000  Uiso   1.00
Cu177  Cu    0.83333   0.25000   0.29822   0.00000  Uiso   1.00
Cu178  Cu    0.83333   0.25001   0.20179   0.00000  Uiso   1.00
C179   C     0.67930   0.24993   0.23067   0.00000  Uiso   1.00
C180   C     0.98737   0.24999   0.26931   0.00000  Uiso   1.00
H181   H     0.99269   0.24985   0.19359   0.00000  Uiso   1.00
H182   H     0.67401   0.25004   0.30638   0.00000  Uiso   1.00
C183   C     0.80422   0.04834   0.28578   0.00000  Uiso   1.00
C184   C     0.80711   0.45192   0.20593   0.00000  Uiso   1.00
C185   C     0.80773   0.09452   0.28578   0.00000  Uiso   1.00
C186   C     0.81058   0.40575   0.20677   0.00000  Uiso   1.00
H187   H     0.79063   0.11326   0.31272   0.00000  Uiso   1.00
H188   H     0.79578   0.38716   0.17447   0.00000  Uiso   1.00
C189   C     0.83131   0.11679   0.25031   0.00000  Uiso   1.00
C190   C     0.83131   0.38332   0.24928   0.00000  Uiso   1.00
C191   C     0.85268   0.09295   0.21498   0.00000  Uiso   1.00
C192   C     0.84971   0.40710   0.29124   0.00000  Uiso   1.00
H193   H     0.87156   0.10977   0.18768   0.00000  Uiso   1.00
H194   H     0.86637   0.39026   0.32424   0.00000  Uiso   1.00
C195   C     0.85088   0.04710   0.21527   0.00000  Uiso   1.00
C196   C     0.84779   0.45295   0.29068   0.00000  Uiso   1.00
H197   H     0.86902   0.02917   0.18845   0.00000  Uiso   1.00
H198   H     0.86362   0.47081   0.32314   0.00000  Uiso   1.00
C199   C     0.82609   0.02440   0.24978   0.00000  Uiso   1.00
C200   C     0.82598   0.47575   0.24868   0.00000  Uiso   1.00
C201   C     0.87950   0.26204   0.06018   0.00000  Uiso   1.00
C202   C     0.81911   0.21018   0.44396   0.00000  Uiso   1.00
C203   C     0.87640   0.26368   0.11068   0.00000  Uiso   1.00
C204   C     0.81742   0.21295   0.39281   0.00000  Uiso   1.00
H205   H     0.90948   0.27494   0.13514   0.00000  Uiso   1.00
H206   H     0.80453   0.18458   0.37089   0.00000  Uiso   1.00
N207   N     0.83333   0.25001   0.12934   0.00000  Uiso   1.00
N208   N     0.83333   0.24999   0.37066   0.00000  Uiso   1.00
C209   C     0.79127   0.23602   0.09858   0.00000  Uiso   1.00
C210   C     0.84951   0.28604   0.39808   0.00000  Uiso   1.00
H211   H     0.75709   0.22511   0.11309   0.00000  Uiso   1.00
H212   H     0.86226   0.31542   0.38084   0.00000  Uiso   1.00
C213   C     0.79148   0.23555   0.04788   0.00000  Uiso   1.00
C214   C     0.84988   0.28574   0.44885   0.00000  Uiso   1.00
H215   H     0.75701   0.22515   0.02451   0.00000  Uiso   1.00
H216   H     0.86194   0.31528   0.46932   0.00000  Uiso   1.00
C217   C     0.83587   0.24806   0.02762   0.00000  Uiso   1.00
C218   C     0.83526   0.24759   0.47297   0.00000  Uiso   1.00
C219   C     0.77742   0.02657   0.32353   0.00000  Uiso   1.00
C220   C     0.73717   0.49613   0.31060   0.00000  Uiso   1.00
C221   C     0.71212   0.47618   0.34647   0.00000  Uiso   1.00
C222   C     0.72675   0.48655   0.39549   0.00000  Uiso   1.00
C223   C     0.76643   0.01696   0.40873   0.00000  Uiso   1.00
C224   C     0.79162   0.03696   0.37298   0.00000  Uiso   1.00
H225   H     0.72496   0.48789   0.27288   0.00000  Uiso   1.00
H226   H     0.68123   0.45274   0.33624   0.00000  Uiso   1.00
H227   H     0.70730   0.47109   0.42321   0.00000  Uiso   1.00
H228   H     0.77769   0.02503   0.44671   0.00000  Uiso   1.00
H229   H     0.82248   0.06030   0.38390   0.00000  Uiso   1.00
C230   C     0.78379   0.47393   0.16006   0.00000  Uiso   1.00
C231   C     0.74305   0.00424   0.15982   0.00000  Uiso   1.00
C232   C     0.72174   0.02485   0.11647   0.00000  Uiso   1.00
C233   C     0.74061   0.01526   0.07294   0.00000  Uiso   1.00
C234   C     0.78078   0.48496   0.07268   0.00000  Uiso   1.00
C235   C     0.80225   0.46430   0.11596   0.00000  Uiso   1.00
H236   H     0.72770   0.01196   0.19303   0.00000  Uiso   1.00
H237   H     0.69052   0.04825   0.11662   0.00000  Uiso   1.00
H238   H     0.72407   0.03126   0.03941   0.00000  Uiso   1.00
H239   H     0.79535   0.47754   0.03893   0.00000  Uiso   1.00
H240   H     0.83366   0.44116   0.11518   0.00000  Uiso   1.00
N241   N     0.92762   0.27282   0.04332   0.00000  Uiso   1.00
O242   O     0.94398   0.24956   0.00917   0.00000  Uiso   1.00
O243   O     0.95860   0.30169   0.06664   0.00000  Uiso   1.00
N244   N     0.80651   0.16882   0.46542   0.00000  Uiso   1.00
O245   O     0.83314   0.15496   0.00572   0.00000  Uiso   1.00
O246   O     0.77340   0.14203   0.44136   0.00000  Uiso   1.00
O247   O     0.16667   0.68573   0.29072   0.00000  Uiso   1.00
O248   O     0.16666   0.81428   0.20928   0.00000  Uiso   1.00
O249   O     0.16667   0.68573   0.20928   0.00000  Uiso   1.00
O250   O     0.16666   0.81427   0.29072   0.00000  Uiso   1.00
C251   C     0.16638   0.66497   0.25008   0.00000  Uiso   1.00
C252   C     0.16638   0.83507   0.24986   0.00000  Uiso   1.00
O253   O     0.09161   0.75000   0.28132   0.00000  Uiso   1.00
O254   O     0.24172   0.75001   0.21868   0.00000  Uiso   1.00
O255   O     0.09161   0.75000   0.19988   0.00000  Uiso   1.00
O256   O     0.24172   0.75000   0.30012   0.00000  Uiso   1.00
C257   C     0.06790   0.74997   0.23755   0.00000  Uiso   1.00
C258   C     0.26544   0.75000   0.26244   0.00000  Uiso   1.00
Cu259  Cu    0.16667   0.75000   0.29822   0.00000  Uiso   1.00
Cu260  Cu    0.16667   0.75001   0.20179   0.00000  Uiso   1.00
C261   C     0.01264   0.74993   0.23067   0.00000  Uiso   1.00
C262   C     0.32070   0.74999   0.26931   0.00000  Uiso   1.00
H263   H     0.32602   0.74985   0.19359   0.00000  Uiso   1.00
H264   H     0.00734   0.75004   0.30638   0.00000  Uiso   1.00
C265   C     0.13756   0.54834   0.28578   0.00000  Uiso   1.00
C266   C     0.14045   0.95192   0.20593   0.00000  Uiso   1.00
C267   C     0.14106   0.59452   0.28578   0.00000  Uiso   1.00
C268   C     0.14392   0.90575   0.20677   0.00000  Uiso   1.00
H269   H     0.12396   0.61326   0.31272   0.00000  Uiso   1.00
H270   H     0.12912   0.88716   0.17447   0.00000  Uiso   1.00
C271   C     0.16464   0.61679   0.25031   0.00000  Uiso   1.00
C272   C     0.16464   0.88332   0.24928   0.00000  Uiso   1.00
C273   C     0.18601   0.59295   0.21498   0.00000  Uiso   1.00
C274   C     0.18304   0.90710   0.29124   0.00000  Uiso   1.00
H275   H     0.20489   0.60977   0.18768   0.00000  Uiso   1.00
H276   H     0.19971   0.89026   0.32424   0.00000  Uiso   1.00
C277   C     0.18422   0.54710   0.21527   0.00000  Uiso   1.00
C278   C     0.18112   0.95295   0.29068   0.00000  Uiso   1.00
H279   H     0.20236   0.52917   0.18845   0.00000  Uiso   1.00
H280   H     0.19696   0.97081   0.32314   0.00000  Uiso   1.00
C281   C     0.15942   0.52440   0.24978   0.00000  Uiso   1.00
C282   C     0.15931   0.97575   0.24868   0.00000  Uiso   1.00
C283   C     0.21284   0.76204   0.06018   0.00000  Uiso   1.00
C284   C     0.15244   0.71018   0.44396   0.00000  Uiso   1.00
C285   C     0.20973   0.76368   0.11068   0.00000  Uiso   1.00
C286   C     0.15076   0.71295   0.39281   0.00000  Uiso   1.00
H287   H     0.24281   0.77494   0.13514   0.00000  Uiso   1.00
H288   H     0.13786   0.68458   0.37089   0.00000  Uiso   1.00
N289   N     0.16667   0.75001   0.12934   0.00000  Uiso   1.00
N290   N     0.16667   0.74999   0.37066   0.00000  Uiso   1.00
C291   C     0.12460   0.73602   0.09858   0.00000  Uiso   1.00
C292   C     0.18284   0.78604   0.39808   0.00000  Uiso   1.00
H293   H     0.09042   0.72511   0.11309   0.00000  Uiso   1.00
H294   H     0.19560   0.81542   0.38084   0.00000  Uiso   1.00
C295   C     0.12481   0.73555   0.04788   0.00000  Uiso   1.00
C296   C     0.18322   0.78574   0.44885   0.00000  Uiso   1.00
H297   H     0.09034   0.72515   0.02451   0.00000  Uiso   1.00
H298   H     0.19527   0.81528   0.46932   0.00000  Uiso   1.00
C299   C     0.16920   0.74806   0.02762   0.00000  Uiso   1.00
C300   C     0.16860   0.74759   0.47297   0.00000  Uiso   1.00
C301   C     0.11076   0.52657   0.32353   0.00000  Uiso   1.00
C302   C     0.07050   0.99613   0.31060   0.00000  Uiso   1.00
C303   C     0.04545   0.97618   0.34647   0.00000  Uiso   1.00
C304   C     0.06009   0.98655   0.39549   0.00000  Uiso   1.00
C305   C     0.09976   0.51696   0.40873   0.00000  Uiso   1.00
C306   C     0.12495   0.53696   0.37298   0.00000  Uiso   1.00
H307   H     0.05829   0.98789   0.27288   0.00000  Uiso   1.00
H308   H     0.01456   0.95274   0.33624   0.00000  Uiso   1.00
H309   H     0.04063   0.97109   0.42321   0.00000  Uiso   1.00
H310   H     0.11102   0.52503   0.44671   0.00000  Uiso   1.00
H311   H     0.15581   0.56030   0.38390   0.00000  Uiso   1.00
C312   C     0.11712   0.97393   0.16006   0.00000  Uiso   1.00
C313   C     0.07638   0.50424   0.15982   0.00000  Uiso   1.00
C314   C     0.05508   0.52485   0.11647   0.00000  Uiso   1.00
C315   C     0.07394   0.51526   0.07294   0.00000  Uiso   1.00
C316   C     0.11411   0.98496   0.07268   0.00000  Uiso   1.00
C317   C     0.13558   0.96430   0.11596   0.00000  Uiso   1.00
H318   H     0.06103   0.51196   0.19303   0.00000  Uiso   1.00
H319   H     0.02386   0.54825   0.11662   0.00000  Uiso   1.00
H320   H     0.05741   0.53126   0.03941   0.00000  Uiso   1.00
H321   H     0.12868   0.97754   0.03893   0.00000  Uiso   1.00
H322   H     0.16699   0.94116   0.11518   0.00000  Uiso   1.00
N323   N     0.26095   0.77282   0.04332   0.00000  Uiso   1.00
O324   O     0.27731   0.74956   0.00917   0.00000  Uiso   1.00
O325   O     0.29193   0.80169   0.06664   0.00000  Uiso   1.00
N326   N     0.13984   0.66882   0.46542   0.00000  Uiso   1.00
O327   O     0.16648   0.65496   0.00572   0.00000  Uiso   1.00
O328   O     0.10673   0.64203   0.44136   0.00000  Uiso   1.00
O329   O     0.50000   0.68573   0.29072   0.00000  Uiso   1.00
O330   O     0.50000   0.81428   0.20928   0.00000  Uiso   1.00
O331   O     0.50000   0.68573   0.20928   0.00000  Uiso   1.00
O332   O     0.50000   0.81427   0.29072   0.00000  Uiso   1.00
C333   C     0.49971   0.66497   0.25008   0.00000  Uiso   1.00
C334   C     0.49971   0.83507   0.24986   0.00000  Uiso   1.00
O335   O     0.42495   0.75000   0.28132   0.00000  Uiso   1.00
O336   O     0.57505   0.75001   0.21868   0.00000  Uiso   1.00
O337   O     0.42495   0.75000   0.19988   0.00000  Uiso   1.00
O338   O     0.57505   0.75000   0.30012   0.00000  Uiso   1.00
C339   C     0.40123   0.74997   0.23755   0.00000  Uiso   1.00
C340   C     0.59877   0.75000   0.26244   0.00000  Uiso   1.00
Cu341  Cu    0.50000   0.75000   0.29822   0.00000  Uiso   1.00
Cu342  Cu    0.50000   0.75001   0.20179   0.00000  Uiso   1.00
C343   C     0.34597   0.74993   0.23067   0.00000  Uiso   1.00
C344   C     0.65404   0.74999   0.26931   0.00000  Uiso   1.00
H345   H     0.65936   0.74985   0.19359   0.00000  Uiso   1.00
H346   H     0.34068   0.75004   0.30638   0.00000  Uiso   1.00
C347   C     0.47089   0.54834   0.28578   0.00000  Uiso   1.00
C348   C     0.47378   0.95192   0.20593   0.00000  Uiso   1.00
C349   C     0.47440   0.59452   0.28578   0.00000  Uiso   1.00
C350   C     0.47725   0.90575   0.20677   0.00000  Uiso   1.00
H351   H     0.45730   0.61326   0.31272   0.00000  Uiso   1.00
H352   H     0.46245   0.88716   0.17447   0.00000  Uiso   1.00
C353   C     0.49798   0.61679   0.25031   0.00000  Uiso   1.00
C354   C     0.49798   0.88332   0.24928   0.00000  Uiso   1.00
C355   C     0.51934   0.59295   0.21498   0.00000  Uiso   1.00
C356   C     0.51638   0.90710   0.29124   0.00000  Uiso   1.00
H357   H     0.53823   0.60977   0.18768   0.00000  Uiso   1.00
H358   H     0.53304   0.89026   0.32424   0.00000  Uiso   1.00
C359   C     0.51755   0.54710   0.21527   0.00000  Uiso   1.00
C360   C     0.51445   0.95295   0.29068   0.00000  Uiso   1.00
H361   H     0.53569   0.52917   0.18845   0.00000  Uiso   1.00
H362   H     0.53029   0.97081   0.32314   0.00000  Uiso   1.00
C363   C     0.49276   0.52440   0.24978   0.00000  Uiso   1.00
C364   C     0.49264   0.97575   0.24868   0.00000  Uiso   1.00
C365   C     0.54617   0.76204   0.06018   0.00000  Uiso   1.00
C366   C     0.48577   0.71018   0.44396   0.00000  Uiso   1.00
C367   C     0.54307   0.76368   0.11068   0.00000  Uiso   1.00
C368   C     0.48409   0.71295   0.39281   0.00000  Uiso   1.00
H369   H     0.57615   0.77494   0.13514   0.00000  Uiso   1.00
H370   H     0.47120   0.68458   0.37089   0.00000  Uiso   1.00
N371   N     0.50000   0.75001   0.12934   0.00000  Uiso   1.00
N372   N     0.50000   0.74999   0.37066   0.00000  Uiso   1.00
C373   C     0.45794   0.73602   0.09858   0.00000  Uiso   1.00
C374   C     0.51617   0.78604   0.39808   0.00000  Uiso   1.00
H375   H     0.42375   0.72511   0.11309   0.00000  Uiso   1.00
H376   H     0.52893   0.81542   0.38084   0.00000  Uiso   1.00
C377   C     0.45815   0.73555   0.04788   0.00000  Uiso   1.00
C378   C     0.51655   0.78574   0.44885   0.00000  Uiso   1.00
H379   H     0.42368   0.72515   0.02451   0.00000  Uiso   1.00
H380   H     0.52861   0.81528   0.46932   0.00000  Uiso   1.00
C381   C     0.50254   0.74806   0.02762   0.00000  Uiso   1.00
C382   C     0.50193   0.74759   0.47297   0.00000  Uiso   1.00
C383   C     0.44409   0.52657   0.32353   0.00000  Uiso   1.00
C384   C     0.40383   0.99613   0.31060   0.00000  Uiso   1.00
C385   C     0.37878   0.97618   0.34647   0.00000  Uiso   1.00
C386   C     0.39342   0.98655   0.39549   0.00000  Uiso   1.00
C387   C     0.43309   0.51696   0.40873   0.00000  Uiso   1.00
C388   C     0.45829   0.53696   0.37298   0.00000  Uiso   1.00
H389   H     0.39163   0.98789   0.27288   0.00000  Uiso   1.00
H390   H     0.34790   0.95274   0.33624   0.00000  Uiso   1.00
H391   H     0.37396   0.97109   0.42321   0.00000  Uiso   1.00
H392   H     0.44435   0.52503   0.44671   0.00000  Uiso   1.00
H393   H     0.48914   0.56030   0.38390   0.00000  Uiso   1.00
C394   C     0.45045   0.97393   0.16006   0.00000  Uiso   1.00
C395   C     0.40972   0.50424   0.15982   0.00000  Uiso   1.00
C396   C     0.38841   0.52485   0.11647   0.00000  Uiso   1.00
C397   C     0.40728   0.51526   0.07294   0.00000  Uiso   1.00
C398   C     0.44744   0.98496   0.07268   0.00000  Uiso   1.00
C399   C     0.46892   0.96430   0.11596   0.00000  Uiso   1.00
H400   H     0.39437   0.51196   0.19303   0.00000  Uiso   1.00
H401   H     0.35719   0.54825   0.11662   0.00000  Uiso   1.00
H402   H     0.39074   0.53126   0.03941   0.00000  Uiso   1.00
H403   H     0.46202   0.97754   0.03893   0.00000  Uiso   1.00
H404   H     0.50032   0.94116   0.11518   0.00000  Uiso   1.00
N405   N     0.59429   0.77282   0.04332   0.00000  Uiso   1.00
O406   O     0.61065   0.74956   0.00917   0.00000  Uiso   1.00
O407   O     0.62526   0.80169   0.06664   0.00000  Uiso   1.00
N408   N     0.47318   0.66882   0.46542   0.00000  Uiso   1.00
O409   O     0.49981   0.65496   0.00572   0.00000  Uiso   1.00
O410   O     0.44007   0.64203   0.44136   0.00000  Uiso   1.00
O411   O     0.83334   0.68573   0.29072   0.00000  Uiso   1.00
O412   O     0.83333   0.81428   0.20928   0.00000  Uiso   1.00
O413   O     0.83334   0.68573   0.20928   0.00000  Uiso   1.00
O414   O     0.83333   0.81427   0.29072   0.00000  Uiso   1.00
C415   C     0.83305   0.66497   0.25008   0.00000  Uiso   1.00
C416   C     0.83305   0.83507   0.24986   0.00000  Uiso   1.00
O417   O     0.75828   0.75000   0.28132   0.00000  Uiso   1.00
O418   O     0.90839   0.75001   0.21868   0.00000  Uiso   1.00
O419   O     0.75828   0.75000   0.19988   0.00000  Uiso   1.00
O420   O     0.90839   0.75000   0.30012   0.00000  Uiso   1.00
C421   C     0.73456   0.74997   0.23755   0.00000  Uiso   1.00
C422   C     0.93211   0.75000   0.26244   0.00000  Uiso   1.00
Cu423  Cu    0.83333   0.75000   0.29822   0.00000  Uiso   1.00
Cu424  Cu    0.83333   0.75001   0.20179   0.00000  Uiso   1.00
C425   C     0.67930   0.74993   0.23067   0.00000  Uiso   1.00
C426   C     0.98737   0.74999   0.26931   0.00000  Uiso   1.00
H427   H     0.99269   0.74985   0.19359   0.00000  Uiso   1.00
H428   H     0.67401   0.75004   0.30638   0.00000  Uiso   1.00
C429   C     0.80422   0.54834   0.28578   0.00000  Uiso   1.00
C430   C     0.80711   0.95192   0.20593   0.00000  Uiso   1.00
C431   C     0.80773   0.59452   0.28578   0.00000  Uiso   1.00
C432   C     0.81058   0.90575   0.20677   0.00000  Uiso   1.00
H433   H     0.79063   0.61326   0.31272   0.00000  Uiso   1.00
H434   H     0.79578   0.88716   0.17447   0.00000  Uiso   1.00
C435   C     0.83131   0.61679   0.25031   0.00000  Uiso   1.00
C436   C     0.83131   0.88332   0.24928   0.00000  Uiso   1.00
C437   C     0.85268   0.59295   0.21498   0.00000  Uiso   1.00
C438   C     0.84971   0.90710   0.29124   0.00000  Uiso   1.00
H439   H     0.87156   0.60977   0.18768   0.00000  Uiso   1.00
H440   H     0.86637   0.89026   0.32424   0.00000  Uiso   1.00
C441   C     0.85088   0.54710   0.21527   0.00000  Uiso   1.00
C442   C     0.84779   0.95295   0.29068   0.00000  Uiso   1.00
H443   H     0.86902   0.52917   0.18845   0.00000  Uiso   1.00
H444   H     0.86362   0.97081   0.32314   0.00000  Uiso   1.00
C445   C     0.82609   0.52440   0.24978   0.00000  Uiso   1.00
C446   C     0.82598   0.97575   0.24868   0.00000  Uiso   1.00
C447   C     0.87950   0.76204   0.06018   0.00000  Uiso   1.00
C448   C     0.81911   0.71018   0.44396   0.00000  Uiso   1.00
C449   C     0.87640   0.76368   0.11068   0.00000  Uiso   1.00
C450   C     0.81742   0.71295   0.39281   0.00000  Uiso   1.00
H451   H     0.90948   0.77494   0.13514   0.00000  Uiso   1.00
H452   H     0.80453   0.68458   0.37089   0.00000  Uiso   1.00
N453   N     0.83333   0.75001   0.12934   0.00000  Uiso   1.00
N454   N     0.83333   0.74999   0.37066   0.00000  Uiso   1.00
C455   C     0.79127   0.73602   0.09858   0.00000  Uiso   1.00
C456   C     0.84951   0.78604   0.39808   0.00000  Uiso   1.00
H457   H     0.75709   0.72511   0.11309   0.00000  Uiso   1.00
H458   H     0.86226   0.81542   0.38084   0.00000  Uiso   1.00
C459   C     0.79148   0.73555   0.04788   0.00000  Uiso   1.00
C460   C     0.84988   0.78574   0.44885   0.00000  Uiso   1.00
H461   H     0.75701   0.72515   0.02451   0.00000  Uiso   1.00
H462   H     0.86194   0.81528   0.46932   0.00000  Uiso   1.00
C463   C     0.83587   0.74806   0.02762   0.00000  Uiso   1.00
C464   C     0.83526   0.74759   0.47297   0.00000  Uiso   1.00
C465   C     0.77742   0.52657   0.32353   0.00000  Uiso   1.00
C466   C     0.73717   0.99613   0.31060   0.00000  Uiso   1.00
C467   C     0.71212   0.97618   0.34647   0.00000  Uiso   1.00
C468   C     0.72675   0.98655   0.39549   0.00000  Uiso   1.00
C469   C     0.76643   0.51696   0.40873   0.00000  Uiso   1.00
C470   C     0.79162   0.53696   0.37298   0.00000  Uiso   1.00
H471   H     0.72496   0.98789   0.27288   0.00000  Uiso   1.00
H472   H     0.68123   0.95274   0.33624   0.00000  Uiso   1.00
H473   H     0.70730   0.97109   0.42321   0.00000  Uiso   1.00
H474   H     0.77769   0.52503   0.44671   0.00000  Uiso   1.00
H475   H     0.82248   0.56030   0.38390   0.00000  Uiso   1.00
C476   C     0.78379   0.97393   0.16006   0.00000  Uiso   1.00
C477   C     0.74305   0.50424   0.15982   0.00000  Uiso   1.00
C478   C     0.72174   0.52485   0.11647   0.00000  Uiso   1.00
C479   C     0.74061   0.51526   0.07294   0.00000  Uiso   1.00
C480   C     0.78078   0.98496   0.07268   0.00000  Uiso   1.00
C481   C     0.80225   0.96430   0.11596   0.00000  Uiso   1.00
H482   H     0.72770   0.51196   0.19303   0.00000  Uiso   1.00
H483   H     0.69052   0.54825   0.11662   0.00000  Uiso   1.00
H484   H     0.72407   0.53126   0.03941   0.00000  Uiso   1.00
H485   H     0.79535   0.97754   0.03893   0.00000  Uiso   1.00
H486   H     0.83366   0.94116   0.11518   0.00000  Uiso   1.00
N487   N     0.92762   0.77282   0.04332   0.00000  Uiso   1.00
O488   O     0.94398   0.74956   0.00917   0.00000  Uiso   1.00
O489   O     0.95860   0.80169   0.06664   0.00000  Uiso   1.00
N490   N     0.80651   0.66882   0.46542   0.00000  Uiso   1.00
O491   O     0.83314   0.65496   0.00572   0.00000  Uiso   1.00
O492   O     0.77340   0.64203   0.44136   0.00000  Uiso   1.00
O493   O     0.16667   0.18573   0.79072   0.00000  Uiso   1.00
O494   O     0.16666   0.31428   0.70928   0.00000  Uiso   1.00
O495   O     0.16667   0.18573   0.70928   0.00000  Uiso   1.00
O496   O     0.16666   0.31427   0.79072   0.00000  Uiso   1.00
C497   C     0.16638   0.16497   0.75008   0.00000  Uiso   1.00
C498   C     0.16638   0.33507   0.74986   0.00000  Uiso   1.00
O499   O     0.09161   0.25000   0.78132   0.00000  Uiso   1.00
O500   O     0.24172   0.25001   0.71868   0.00000  Uiso   1.00
O501   O     0.09161   0.25000   0.69988   0.00000  Uiso   1.00
O502   O     0.24172   0.25000   0.80012   0.00000  Uiso   1.00
C503   C     0.06790   0.24997   0.73755   0.00000  Uiso   1.00
C504   C     0.26544   0.25000   0.76244   0.00000  Uiso   1.00
Cu505  Cu    0.16667   0.25000   0.79822   0.00000  Uiso   1.00
Cu506  Cu    0.16667   0.25001   0.70179   0.00000  Uiso   1.00
C507   C     0.01264   0.24993   0.73067   0.00000  Uiso   1.00
C508   C     0.32070   0.24999   0.76931   0.00000  Uiso   1.00
H509   H     0.32602   0.24985   0.69359   0.00000  Uiso   1.00
H510   H     0.00734   0.25004   0.80638   0.00000  Uiso   1.00
C511   C     0.13756   0.04834   0.78578   0.00000  Uiso   1.00
C512   C     0.14045   0.45192   0.70593   0.00000  Uiso   1.00
C513   C     0.14106   0.09452   0.78578   0.00000  Uiso   1.00
C514   C     0.14392   0.40575   0.70677   0.00000  Uiso   1.00
H515   H     0.12396   0.11326   0.81272   0.00000  Uiso   1.00
H516   H     0.12912   0.38716   0.67447   0.00000  Uiso   1.00
C517   C     0.16464   0.11679   0.75031   0.00000  Uiso   1.00
C518   C     0.16464   0.38332   0.74928   0.00000  Uiso   1.00
C519   C     0.18601   0.09295   0.71498   0.00000  Uiso   1.00
C520   C     0.18304   0.40710   0.79124   0.00000  Uiso   1.00
H521   H     0.20489   0.10977   0.68768   0.00000  Uiso   1.00
H522   H     0.19971   0.39026   0.82424   0.00000  Uiso   1.00
C523   C     0.18422   0.04710   0.71527   0.00000  Uiso   1.00
C524   C     0.18112   0.45295   0.79068   0.00000  Uiso   1.00
H525   H     0.20236   0.02917   0.68845   0.00000  Uiso   1.00
H526   H     0.19696   0.47081   0.82314   0.00000  Uiso   1.00
C527   C     0.15942   0.02440   0.74978   0.00000  Uiso   1.00
C528   C     0.15931   0.47575   0.74868   0.00000  Uiso   1.00
C529   C     0.21284   0.26204   0.56018   0.00000  Uiso   1.00
C530   C     0.15244   0.21018   0.94396   0.00000  Uiso   1.00
C531   C     0.20973   0.26368   0.61068   0.00000  Uiso   1.00
C532   C     0.15076   0.21295   0.89281   0.00000  Uiso   1.00
H533   H     0.24281   0.27494   0.63514   0.00000  Uiso   1.00
H534   H     0.13786   0.18458   0.87089   0.00000  Uiso   1.00
N535   N     0.16667   0.25001   0.62934   0.00000  Uiso   1.00
N536   N     0.16667   0.24999   0.87066   0.00000  Uiso   1.00
C537   C     0.12460   0.23602   0.59858   0.00000  Uiso   1.00
C538   C     0.18284   0.28604   0.89808   0.00000  Uiso   1.00
H539   H     0.09042   0.22511   0.61309   0.00000  Uiso   1.00
H540   H     0.19560   0.31542   0.88084   0.00000  Uiso   1.00
C541   C     0.12481   0.23555   0.54788   0.00000  Uiso   1.00
C542   C     0.18322   0.28574   0.94885   0.00000  Uiso   1.00
H543   H     0.09034   0.22515   0.52451   0.00000  Uiso   1.00
H544   H     0.19527   0.31528   0.96932   0.00000  Uiso   1.00
C545   C     0.16920   0.24806   0.52762   0.00000  Uiso   1.00
C546   C     0.16860   0.24759   0.97297   0.00000  Uiso   1.00
C547   C     0.11076   0.02657   0.82353   0.00000  Uiso   1.00
C548   C     0.07050   0.49613   0.81060   0.00000  Uiso   1.00
C549   C     0.04545   0.47618   0.84647   0.00000  Uiso   1.00
C550   C     0.06009   0.48655   0.89549   0.00000  Uiso   1.00
C551   C     0.09976   0.01696   0.90873   0.00000  Uiso   1.00
C552   C     0.12495   0.03696   0.87298   0.00000  Uiso   1.00
H553   H     0.05829   0.48789   0.77288   0.00000  Uiso   1.00
H554   H     0.01456   0.45274   0.83624   0.00000  Uiso   1.00
H555   H     0.04063   0.47109   0.92321   0.00000  Uiso   1.00
H556   H     0.11102   0.02503   0.94671   0.00000  Uiso   1.00
H557   H     0.15581   0.06030   0.88390   0.00000  Uiso   1.00
C558   C     0.11712   0.47393   0.66006   0.00000  Uiso   1.00
C559   C     0.07638   0.00424   0.65982   0.00000  Uiso   1.00
C560   C     0.05508   0.02485   0.61647   0.00000  Uiso   1.00
C561   C     0.07394   0.01526   0.57294   0.00000  Uiso   1.00
C562   C     0.11411   0.48496   0.57268   0.00000  Uiso   1.00
C563   C     0.13558   0.46430   0.61596   0.00000  Uiso   1.00
H564   H     0.06103   0.01196   0.69303   0.00000  Uiso   1.00
H565   H     0.02386   0.04825   0.61662   0.00000  Uiso   1.00
H566   H     0.05741   0.03126   0.53941   0.00000  Uiso   1.00
H567   H     0.12868   0.47754   0.53893   0.00000  Uiso   1.00
H568   H     0.16699   0.44116   0.61518   0.00000  Uiso   1.00
N569   N     0.26095   0.27282   0.54332   0.00000  Uiso   1.00
O570   O     0.27731   0.24956   0.50917   0.00000  Uiso   1.00
O571   O     0.29193   0.30169   0.56664   0.00000  Uiso   1.00
N572   N     0.13984   0.16882   0.96542   0.00000  Uiso   1.00
O573   O     0.16648   0.15496   0.50572   0.00000  Uiso   1.00
O574   O     0.10673   0.14203   0.94136   0.00000  Uiso   1.00
O575   O     0.50000   0.18573   0.79072   0.00000  Uiso   1.00
O576   O     0.50000   0.31428   0.70928   0.00000  Uiso   1.00
O577   O     0.50000   0.18573   0.70928   0.00000  Uiso   1.00
O578   O     0.50000   0.31427   0.79072   0.00000  Uiso   1.00
C579   C     0.49971   0.16497   0.75008   0.00000  Uiso   1.00
C580   C     0.49971   0.33507   0.74986   0.00000  Uiso   1.00
O581   O     0.42495   0.25000   0.78132   0.00000  Uiso   1.00
O582   O     0.57505   0.25001   0.71868   0.00000  Uiso   1.00
O583   O     0.42495   0.25000   0.69988   0.00000  Uiso   1.00
O584   O     0.57505   0.25000   0.80012   0.00000  Uiso   1.00
C585   C     0.40123   0.24997   0.73755   0.00000  Uiso   1.00
C586   C     0.59877   0.25000   0.76244   0.00000  Uiso   1.00
Cu587  Cu    0.50000   0.25000   0.79822   0.00000  Uiso   1.00
Cu588  Cu    0.50000   0.25001   0.70179   0.00000  Uiso   1.00
C589   C     0.34597   0.24993   0.73067   0.00000  Uiso   1.00
C590   C     0.65404   0.24999   0.76931   0.00000  Uiso   1.00
H591   H     0.65936   0.24985   0.69359   0.00000  Uiso   1.00
H592   H     0.34068   0.25004   0.80638   0.00000  Uiso   1.00
C593   C     0.47089   0.04834   0.78578   0.00000  Uiso   1.00
C594   C     0.47378   0.45192   0.70593   0.00000  Uiso   1.00
C595   C     0.47440   0.09452   0.78578   0.00000  Uiso   1.00
C596   C     0.47725   0.40575   0.70677   0.00000  Uiso   1.00
H597   H     0.45730   0.11326   0.81272   0.00000  Uiso   1.00
H598   H     0.46245   0.38716   0.67447   0.00000  Uiso   1.00
C599   C     0.49798   0.11679   0.75031   0.00000  Uiso   1.00
C600   C     0.49798   0.38332   0.74928   0.00000  Uiso   1.00
C601   C     0.51934   0.09295   0.71498   0.00000  Uiso   1.00
C602   C     0.51638   0.40710   0.79124   0.00000  Uiso   1.00
H603   H     0.53823   0.10977   0.68768   0.00000  Uiso   1.00
H604   H     0.53304   0.39026   0.82424   0.00000  Uiso   1.00
C605   C     0.51755   0.04710   0.71527   0.00000  Uiso   1.00
C606   C     0.51445   0.45295   0.79068   0.00000  Uiso   1.00
H607   H     0.53569   0.02917   0.68845   0.00000  Uiso   1.00
H608   H     0.53029   0.47081   0.82314   0.00000  Uiso   1.00
C609   C     0.49276   0.02440   0.74978   0.00000  Uiso   1.00
C610   C     0.49264   0.47575   0.74868   0.00000  Uiso   1.00
C611   C     0.54617   0.26204   0.56018   0.00000  Uiso   1.00
C612   C     0.48577   0.21018   0.94396   0.00000  Uiso   1.00
C613   C     0.54307   0.26368   0.61068   0.00000  Uiso   1.00
C614   C     0.48409   0.21295   0.89281   0.00000  Uiso   1.00
H615   H     0.57615   0.27494   0.63514   0.00000  Uiso   1.00
H616   H     0.47120   0.18458   0.87089   0.00000  Uiso   1.00
N617   N     0.50000   0.25001   0.62934   0.00000  Uiso   1.00
N618   N     0.50000   0.24999   0.87066   0.00000  Uiso   1.00
C619   C     0.45794   0.23602   0.59858   0.00000  Uiso   1.00
C620   C     0.51617   0.28604   0.89808   0.00000  Uiso   1.00
H621   H     0.42375   0.22511   0.61309   0.00000  Uiso   1.00
H622   H     0.52893   0.31542   0.88084   0.00000  Uiso   1.00
C623   C     0.45815   0.23555   0.54788   0.00000  Uiso   1.00
C624   C     0.51655   0.28574   0.94885   0.00000  Uiso   1.00
H625   H     0.42368   0.22515   0.52451   0.00000  Uiso   1.00
H626   H     0.52861   0.31528   0.96932   0.00000  Uiso   1.00
C627   C     0.50254   0.24806   0.52762   0.00000  Uiso   1.00
C628   C     0.50193   0.24759   0.97297   0.00000  Uiso   1.00
C629   C     0.44409   0.02657   0.82353   0.00000  Uiso   1.00
C630   C     0.40383   0.49613   0.81060   0.00000  Uiso   1.00
C631   C     0.37878   0.47618   0.84647   0.00000  Uiso   1.00
C632   C     0.39342   0.48655   0.89549   0.00000  Uiso   1.00
C633   C     0.43309   0.01696   0.90873   0.00000  Uiso   1.00
C634   C     0.45829   0.03696   0.87298   0.00000  Uiso   1.00
H635   H     0.39163   0.48789   0.77288   0.00000  Uiso   1.00
H636   H     0.34790   0.45274   0.83624   0.00000  Uiso   1.00
H637   H     0.37396   0.47109   0.92321   0.00000  Uiso   1.00
H638   H     0.44435   0.02503   0.94671   0.00000  Uiso   1.00
H639   H     0.48914   0.06030   0.88390   0.00000  Uiso   1.00
C640   C     0.45045   0.47393   0.66006   0.00000  Uiso   1.00
C641   C     0.40972   0.00424   0.65982   0.00000  Uiso   1.00
C642   C     0.38841   0.02485   0.61647   0.00000  Uiso   1.00
C643   C     0.40728   0.01526   0.57294   0.00000  Uiso   1.00
C644   C     0.44744   0.48496   0.57268   0.00000  Uiso   1.00
C645   C     0.46892   0.46430   0.61596   0.00000  Uiso   1.00
H646   H     0.39437   0.01196   0.69303   0.00000  Uiso   1.00
H647   H     0.35719   0.04825   0.61662   0.00000  Uiso   1.00
H648   H     0.39074   0.03126   0.53941   0.00000  Uiso   1.00
H649   H     0.46202   0.47754   0.53893   0.00000  Uiso   1.00
H650   H     0.50032   0.44116   0.61518   0.00000  Uiso   1.00
N651   N     0.59429   0.27282   0.54332   0.00000  Uiso   1.00
O652   O     0.61065   0.24956   0.50917   0.00000  Uiso   1.00
O653   O     0.62526   0.30169   0.56664   0.00000  Uiso   1.00
N654   N     0.47318   0.16882   0.96542   0.00000  Uiso   1.00
O655   O     0.49981   0.15496   0.50572   0.00000  Uiso   1.00
O656   O     0.44007   0.14203   0.94136   0.00000  Uiso   1.00
O657   O     0.83334   0.18573   0.79072   0.00000  Uiso   1.00
O658   O     0.83333   0.31428   0.70928   0.00000  Uiso   1.00
O659   O     0.83334   0.18573   0.70928   0.00000  Uiso   1.00
O660   O     0.83333   0.31427   0.79072   0.00000  Uiso   1.00
C661   C     0.83305   0.16497   0.75008   0.00000  Uiso   1.00
C662   C     0.83305   0.33507   0.74986   0.00000  Uiso   1.00
O663   O     0.75828   0.25000   0.78132   0.00000  Uiso   1.00
O664   O     0.90839   0.25001   0.71868   0.00000  Uiso   1.00
O665   O     0.75828   0.25000   0.69988   0.00000  Uiso   1.00
O666   O     0.90839   0.25000   0.80012   0.00000  Uiso   1.00
C667   C     0.73456   0.24997   0.73755   0.00000  Uiso   1.00
C668   C     0.93211   0.25000   0.76244   0.00000  Uiso   1.00
Cu669  Cu    0.83333   0.25000   0.79822   0.00000  Uiso   1.00
Cu670  Cu    0.83333   0.25001   0.70179   0.00000  Uiso   1.00
C671   C     0.67930   0.24993   0.73067   0.00000  Uiso   1.00
C672   C     0.98737   0.24999   0.76931   0.00000  Uiso   1.00
H673   H     0.99269   0.24985   0.69359   0.00000  Uiso   1.00
H674   H     0.67401   0.25004   0.80638   0.00000  Uiso   1.00
C675   C     0.80422   0.04834   0.78578   0.00000  Uiso   1.00
C676   C     0.80711   0.45192   0.70593   0.00000  Uiso   1.00
C677   C     0.80773   0.09452   0.78578   0.00000  Uiso   1.00
C678   C     0.81058   0.40575   0.70677   0.00000  Uiso   1.00
H679   H     0.79063   0.11326   0.81272   0.00000  Uiso   1.00
H680   H     0.79578   0.38716   0.67447   0.00000  Uiso   1.00
C681   C     0.83131   0.11679   0.75031   0.00000  Uiso   1.00
C682   C     0.83131   0.38332   0.74928   0.00000  Uiso   1.00
C683   C     0.85268   0.09295   0.71498   0.00000  Uiso   1.00
C684   C     0.84971   0.40710   0.79124   0.00000  Uiso   1.00
H685   H     0.87156   0.10977   0.68768   0.00000  Uiso   1.00
H686   H     0.86637   0.39026   0.82424   0.00000  Uiso   1.00
C687   C     0.85088   0.04710   0.71527   0.00000  Uiso   1.00
C688   C     0.84779   0.45295   0.79068   0.00000  Uiso   1.00
H689   H     0.86902   0.02917   0.68845   0.00000  Uiso   1.00
H690   H     0.86362   0.47081   0.82314   0.00000  Uiso   1.00
C691   C     0.82609   0.02440   0.74978   0.00000  Uiso   1.00
C692   C     0.82598   0.47575   0.74868   0.00000  Uiso   1.00
C693   C     0.87950   0.26204   0.56018   0.00000  Uiso   1.00
C694   C     0.81911   0.21018   0.94396   0.00000  Uiso   1.00
C695   C     0.87640   0.26368   0.61068   0.00000  Uiso   1.00
C696   C     0.81742   0.21295   0.89281   0.00000  Uiso   1.00
H697   H     0.90948   0.27494   0.63514   0.00000  Uiso   1.00
H698   H     0.80453   0.18458   0.87089   0.00000  Uiso   1.00
N699   N     0.83333   0.25001   0.62934   0.00000  Uiso   1.00
N700   N     0.83333   0.24999   0.87066   0.00000  Uiso   1.00
C701   C     0.79127   0.23602   0.59858   0.00000  Uiso   1.00
C702   C     0.84951   0.28604   0.89808   0.00000  Uiso   1.00
H703   H     0.75709   0.22511   0.61309   0.00000  Uiso   1.00
H704   H     0.86226   0.31542   0.88084   0.00000  Uiso   1.00
C705   C     0.79148   0.23555   0.54788   0.00000  Uiso   1.00
C706   C     0.84988   0.28574   0.94885   0.00000  Uiso   1.00
H707   H     0.75701   0.22515   0.52451   0.00000  Uiso   1.00
H708   H     0.86194   0.31528   0.96932   0.00000  Uiso   1.00
C709   C     0.83587   0.24806   0.52762   0.00000  Uiso   1.00
C710   C     0.83526   0.24759   0.97297   0.00000  Uiso   1.00
C711   C     0.77742   0.02657   0.82353   0.00000  Uiso   1.00
C712   C     0.73717   0.49613   0.81060   0.00000  Uiso   1.00
C713   C     0.71212   0.47618   0.84647   0.00000  Uiso   1.00
C714   C     0.72675   0.48655   0.89549   0.00000  Uiso   1.00
C715   C     0.76643   0.01696   0.90873   0.00000  Uiso   1.00
C716   C     0.79162   0.03696   0.87298   0.00000  Uiso   1.00
H717   H     0.72496   0.48789   0.77288   0.00000  Uiso   1.00
H718   H     0.68123   0.45274   0.83624   0.00000  Uiso   1.00
H719   H     0.70730   0.47109   0.92321   0.00000  Uiso   1.00
H720   H     0.77769   0.02503   0.94671   0.00000  Uiso   1.00
H721   H     0.82248   0.06030   0.88390   0.00000  Uiso   1.00
C722   C     0.78379   0.47393   0.66006   0.00000  Uiso   1.00
C723   C     0.74305   0.00424   0.65982   0.00000  Uiso   1.00
C724   C     0.72174   0.02485   0.61647   0.00000  Uiso   1.00
C725   C     0.74061   0.01526   0.57294   0.00000  Uiso   1.00
C726   C     0.78078   0.48496   0.57268   0.00000  Uiso   1.00
C727   C     0.80225   0.46430   0.61596   0.00000  Uiso   1.00
H728   H     0.72770   0.01196   0.69303   0.00000  Uiso   1.00
H729   H     0.69052   0.04825   0.61662   0.00000  Uiso   1.00
H730   H     0.72407   0.03126   0.53941   0.00000  Uiso   1.00
H731   H     0.79535   0.47754   0.53893   0.00000  Uiso   1.00
H732   H     0.83366   0.44116   0.61518   0.00000  Uiso   1.00
N733   N     0.92762   0.27282   0.54332   0.00000  Uiso   1.00
O734   O     0.94398   0.24956   0.50917   0.00000  Uiso   1.00
O735   O     0.95860   0.30169   0.56664   0.00000  Uiso   1.00
N736   N     0.80651   0.16882   0.96542   0.00000  Uiso   1.00
O737   O     0.83314   0.15496   0.50572   0.00000  Uiso   1.00
O738   O     0.77340   0.14203   0.94136   0.00000  Uiso   1.00
O739   O     0.16667   0.68573   0.79072   0.00000  Uiso   1.00
O740   O     0.16666   0.81428   0.70928   0.00000  Uiso   1.00
O741   O     0.16667   0.68573   0.70928   0.00000  Uiso   1.00
O742   O     0.16666   0.81427   0.79072   0.00000  Uiso   1.00
C743   C     0.16638   0.66497   0.75008   0.00000  Uiso   1.00
C744   C     0.16638   0.83507   0.74986   0.00000  Uiso   1.00
O745   O     0.09161   0.75000   0.78132   0.00000  Uiso   1.00
O746   O     0.24172   0.75001   0.71868   0.00000  Uiso   1.00
O747   O     0.09161   0.75000   0.69988   0.00000  Uiso   1.00
O748   O     0.24172   0.75000   0.80012   0.00000  Uiso   1.00
C749   C     0.06790   0.74997   0.73755   0.00000  Uiso   1.00
C750   C     0.26544   0.75000   0.76244   0.00000  Uiso   1.00
Cu751  Cu    0.16667   0.75000   0.79822   0.00000  Uiso   1.00
Cu752  Cu    0.16667   0.75001   0.70179   0.00000  Uiso   1.00
C753   C     0.01264   0.74993   0.73067   0.00000  Uiso   1.00
C754   C     0.32070   0.74999   0.76931   0.00000  Uiso   1.00
H755   H     0.32602   0.74985   0.69359   0.00000  Uiso   1.00
H756   H     0.00734   0.75004   0.80638   0.00000  Uiso   1.00
C757   C     0.13756   0.54834   0.78578   0.00000  Uiso   1.00
C758   C     0.14045   0.95192   0.70593   0.00000  Uiso   1.00
C759   C     0.14106   0.59452   0.78578   0.00000  Uiso   1.00
C760   C     0.14392   0.90575   0.70677   0.00000  Uiso   1.00
H761   H     0.12396   0.61326   0.81272   0.00000  Uiso   1.00
H762   H     0.12912   0.88716   0.67447   0.00000  Uiso   1.00
C763   C     0.16464   0.61679   0.75031   0.00000  Uiso   1.00
C764   C     0.16464   0.88332   0.74928   0.00000  Uiso   1.00
C765   C     0.18601   0.59295   0.71498   0.00000  Uiso   1.00
C766   C     0.18304   0.90710   0.79124   0.00000  Uiso   1.00
H767   H     0.20489   0.60977   0.68768   0.00000  Uiso   1.00
H768   H     0.19971   0.89026   0.82424   0.00000  Uiso   1.00
C769   C     0.18422   0.54710   0.71527   0.00000  Uiso   1.00
C770   C     0.18112   0.95295   0.79068   0.00000  Uiso   1.00
H771   H     0.20236   0.52917   0.68845   0.00000  Uiso   1.00
H772   H     0.19696   0.97081   0.82314   0.00000  Uiso   1.00
C773   C     0.15942   0.52440   0.74978   0.00000  Uiso   1.00
C774   C     0.15931   0.97575   0.74868   0.00000  Uiso   1.00
C775   C     0.21284   0.76204   0.56018   0.00000  Uiso   1.00
C776   C     0.15244   0.71018   0.94396   0.00000  Uiso   1.00
C777   C     0.20973   0.76368   0.61068   0.00000  Uiso   1.00
C778   C     0.15076   0.71295   0.89281   0.00000  Uiso   1.00
H779   H     0.24281   0.77494   0.63514   0.00000  Uiso   1.00
H780   H     0.13786   0.68458   0.87089   0.00000  Uiso   1.00
N781   N     0.16667   0.75001   0.62934   0.00000  Uiso   1.00
N782   N     0.16667   0.74999   0.87066   0.00000  Uiso   1.00
C783   C     0.12460   0.73602   0.59858   0.00000  Uiso   1.00
C784   C     0.18284   0.78604   0.89808   0.00000  Uiso   1.00
H785   H     0.09042   0.72511   0.61309   0.00000  Uiso   1.00
H786   H     0.19560   0.81542   0.88084   0.00000  Uiso   1.00
C787   C     0.12481   0.73555   0.54788   0.00000  Uiso   1.00
C788   C     0.18322   0.78574   0.94885   0.00000  Uiso   1.00
H789   H     0.09034   0.72515   0.52451   0.00000  Uiso   1.00
H790   H     0.19527   0.81528   0.96932   0.00000  Uiso   1.00
C791   C     0.16920   0.74806   0.52762   0.00000  Uiso   1.00
C792   C     0.16860   0.74759   0.97297   0.00000  Uiso   1.00
C793   C     0.11076   0.52657   0.82353   0.00000  Uiso   1.00
C794   C     0.07050   0.99613   0.81060   0.00000  Uiso   1.00
C795   C     0.04545   0.97618   0.84647   0.00000  Uiso   1.00
C796   C     0.06009   0.98655   0.89549   0.00000  Uiso   1.00
C797   C     0.09976   0.51696   0.90873   0.00000  Uiso   1.00
C798   C     0.12495   0.53696   0.87298   0.00000  Uiso   1.00
H799   H     0.05829   0.98789   0.77288   0.00000  Uiso   1.00
H800   H     0.01456   0.95274   0.83624   0.00000  Uiso   1.00
H801   H     0.04063   0.97109   0.92321   0.00000  Uiso   1.00
H802   H     0.11102   0.52503   0.94671   0.00000  Uiso   1.00
H803   H     0.15581   0.56030   0.88390   0.00000  Uiso   1.00
C804   C     0.11712   0.97393   0.66006   0.00000  Uiso   1.00
C805   C     0.07638   0.50424   0.65982   0.00000  Uiso   1.00
C806   C     0.05508   0.52485   0.61647   0.00000  Uiso   1.00
C807   C     0.07394   0.51526   0.57294   0.00000  Uiso   1.00
C808   C     0.11411   0.98496   0.57268   0.00000  Uiso   1.00
C809   C     0.13558   0.96430   0.61596   0.00000  Uiso   1.00
H810   H     0.06103   0.51196   0.69303   0.00000  Uiso   1.00
H811   H     0.02386   0.54825   0.61662   0.00000  Uiso   1.00
H812   H     0.05741   0.53126   0.53941   0.00000  Uiso   1.00
H813   H     0.12868   0.97754   0.53893   0.00000  Uiso   1.00
H814   H     0.16699   0.94116   0.61518   0.00000  Uiso   1.00
N815   N     0.26095   0.77282   0.54332   0.00000  Uiso   1.00
O816   O     0.27731   0.74956   0.50917   0.00000  Uiso   1.00
O817   O     0.29193   0.80169   0.56664   0.00000  Uiso   1.00
N818   N     0.13984   0.66882   0.96542   0.00000  Uiso   1.00
O819   O     0.16648   0.65496   0.50572   0.00000  Uiso   1.00
O820   O     0.10673   0.64203   0.94136   0.00000  Uiso   1.00
O821   O     0.50000   0.68573   0.79072   0.00000  Uiso   1.00
O822   O     0.50000   0.81428   0.70928   0.00000  Uiso   1.00
O823   O     0.50000   0.68573   0.70928   0.00000  Uiso   1.00
O824   O     0.50000   0.81427   0.79072   0.00000  Uiso   1.00
C825   C     0.49971   0.66497   0.75008   0.00000  Uiso   1.00
C826   C     0.49971   0.83507   0.74986   0.00000  Uiso   1.00
O827   O     0.42495   0.75000   0.78132   0.00000  Uiso   1.00
O828   O     0.57505   0.75001   0.71868   0.00000  Uiso   1.00
O829   O     0.42495   0.75000   0.69988   0.00000  Uiso   1.00
O830   O     0.57505   0.75000   0.80012   0.00000  Uiso   1.00
C831   C     0.40123   0.74997   0.73755   0.00000  Uiso   1.00
C832   C     0.59877   0.75000   0.76244   0.00000  Uiso   1.00
Cu833  Cu    0.50000   0.75000   0.79822   0.00000  Uiso   1.00
Cu834  Cu    0.50000   0.75001   0.70179   0.00000  Uiso   1.00
C835   C     0.34597   0.74993   0.73067   0.00000  Uiso   1.00
C836   C     0.65404   0.74999   0.76931   0.00000  Uiso   1.00
H837   H     0.65936   0.74985   0.69359   0.00000  Uiso   1.00
H838   H     0.34068   0.75004   0.80638   0.00000  Uiso   1.00
C839   C     0.47089   0.54834   0.78578   0.00000  Uiso   1.00
C840   C     0.47378   0.95192   0.70593   0.00000  Uiso   1.00
C841   C     0.47440   0.59452   0.78578   0.00000  Uiso   1.00
C842   C     0.47725   0.90575   0.70677   0.00000  Uiso   1.00
H843   H     0.45730   0.61326   0.81272   0.00000  Uiso   1.00
H844   H     0.46245   0.88716   0.67447   0.00000  Uiso   1.00
C845   C     0.49798   0.61679   0.75031   0.00000  Uiso   1.00
C846   C     0.49798   0.88332   0.74928   0.00000  Uiso   1.00
C847   C     0.51934   0.59295   0.71498   0.00000  Uiso   1.00
C848   C     0.51638   0.90710   0.79124   0.00000  Uiso   1.00
H849   H     0.53823   0.60977   0.68768   0.00000  Uiso   1.00
H850   H     0.53304   0.89026   0.82424   0.00000  Uiso   1.00
C851   C     0.51755   0.54710   0.71527   0.00000  Uiso   1.00
C852   C     0.51445   0.95295   0.79068   0.00000  Uiso   1.00
H853   H     0.53569   0.52917   0.68845   0.00000  Uiso   1.00
H854   H     0.53029   0.97081   0.82314   0.00000  Uiso   1.00
C855   C     0.49276   0.52440   0.74978   0.00000  Uiso   1.00
C856   C     0.49264   0.97575   0.74868   0.00000  Uiso   1.00
C857   C     0.54617   0.76204   0.56018   0.00000  Uiso   1.00
C858   C     0.48577   0.71018   0.94396   0.00000  Uiso   1.00
C859   C     0.54307   0.76368   0.61068   0.00000  Uiso   1.00
C860   C     0.48409   0.71295   0.89281   0.00000  Uiso   1.00
H861   H     0.57615   0.77494   0.63514   0.00000  Uiso   1.00
H862   H     0.47120   0.68458   0.87089   0.00000  Uiso   1.00
N863   N     0.50000   0.75001   0.62934   0.00000  Uiso   1.00
N864   N     0.50000   0.74999   0.87066   0.00000  Uiso   1.00
C865   C     0.45794   0.73602   0.59858   0.00000  Uiso   1.00
C866   C     0.51617   0.78604   0.89808   0.00000  Uiso   1.00
H867   H     0.42375   0.72511   0.61309   0.00000  Uiso   1.00
H868   H     0.52893   0.81542   0.88084   0.00000  Uiso   1.00
C869   C     0.45815   0.73555   0.54788   0.00000  Uiso   1.00
C870   C     0.51655   0.78574   0.94885   0.00000  Uiso   1.00
H871   H     0.42368   0.72515   0.52451   0.00000  Uiso   1.00
H872   H     0.52861   0.81528   0.96932   0.00000  Uiso   1.00
C873   C     0.50254   0.74806   0.52762   0.00000  Uiso   1.00
C874   C     0.50193   0.74759   0.97297   0.00000  Uiso   1.00
C875   C     0.44409   0.52657   0.82353   0.00000  Uiso   1.00
C876   C     0.40383   0.99613   0.81060   0.00000  Uiso   1.00
C877   C     0.37878   0.97618   0.84647   0.00000  Uiso   1.00
C878   C     0.39342   0.98655   0.89549   0.00000  Uiso   1.00
C879   C     0.43309   0.51696   0.90873   0.00000  Uiso   1.00
C880   C     0.45829   0.53696   0.87298   0.00000  Uiso   1.00
H881   H     0.39163   0.98789   0.77288   0.00000  Uiso   1.00
H882   H     0.34790   0.95274   0.83624   0.00000  Uiso   1.00
H883   H     0.37396   0.97109   0.92321   0.00000  Uiso   1.00
H884   H     0.44435   0.52503   0.94671   0.00000  Uiso   1.00
H885   H     0.48914   0.56030   0.88390   0.00000  Uiso   1.00
C886   C     0.45045   0.97393   0.66006   0.00000  Uiso   1.00
C887   C     0.40972   0.50424   0.65982   0.00000  Uiso   1.00
C888   C     0.38841   0.52485   0.61647   0.00000  Uiso   1.00
C889   C     0.40728   0.51526   0.57294   0.00000  Uiso   1.00
C890   C     0.44744   0.98496   0.57268   0.00000  Uiso   1.00
C891   C     0.46892   0.96430   0.61596   0.00000  Uiso   1.00
H892   H     0.39437   0.51196   0.69303   0.00000  Uiso   1.00
H893   H     0.35719   0.54825   0.61662   0.00000  Uiso   1.00
H894   H     0.39074   0.53126   0.53941   0.00000  Uiso   1.00
H895   H     0.46202   0.97754   0.53893   0.00000  Uiso   1.00
H896   H     0.50032   0.94116   0.61518   0.00000  Uiso   1.00
N897   N     0.59429   0.77282   0.54332   0.00000  Uiso   1.00
O898   O     0.61065   0.74956   0.50917   0.00000  Uiso   1.00
O899   O     0.62526   0.80169   0.56664   0.00000  Uiso   1.00
N900   N     0.47318   0.66882   0.96542   0.00000  Uiso   1.00
O901   O     0.49981   0.65496   0.50572   0.00000  Uiso   1.00
O902   O     0.44007   0.64203   0.94136   0.00000  Uiso   1.00
O903   O     0.83334   0.68573   0.79072   0.00000  Uiso   1.00
O904   O     0.83333   0.81428   0.70928   0.00000  Uiso   1.00
O905   O     0.83334   0.68573   0.70928   0.00000  Uiso   1.00
O906   O     0.83333   0.81427   0.79072   0.00000  Uiso   1.00
C907   C     0.83305   0.66497   0.75008   0.00000  Uiso   1.00
C908   C     0.83305   0.83507   0.74986   0.00000  Uiso   1.00
O909   O     0.75828   0.75000   0.78132   0.00000  Uiso   1.00
O910   O     0.90839   0.75001   0.71868   0.00000  Uiso   1.00
O911   O     0.75828   0.75000   0.69988   0.00000  Uiso   1.00
O912   O     0.90839   0.75000   0.80012   0.00000  Uiso   1.00
C913   C     0.73456   0.74997   0.73755   0.00000  Uiso   1.00
C914   C     0.93211   0.75000   0.76244   0.00000  Uiso   1.00
Cu915  Cu    0.83333   0.75000   0.79822   0.00000  Uiso   1.00
Cu916  Cu    0.83333   0.75001   0.70179   0.00000  Uiso   1.00
C917   C     0.67930   0.74993   0.73067   0.00000  Uiso   1.00
C918   C     0.98737   0.74999   0.76931   0.00000  Uiso   1.00
H919   H     0.99269   0.74985   0.69359   0.00000  Uiso   1.00
H920   H     0.67401   0.75004   0.80638   0.00000  Uiso   1.00
C921   C     0.80422   0.54834   0.78578   0.00000  Uiso   1.00
C922   C     0.80711   0.95192   0.70593   0.00000  Uiso   1.00
C923   C     0.80773   0.59452   0.78578   0.00000  Uiso   1.00
C924   C     0.81058   0.90575   0.70677   0.00000  Uiso   1.00
H925   H     0.79063   0.61326   0.81272   0.00000  Uiso   1.00
H926   H     0.79578   0.88716   0.67447   0.00000  Uiso   1.00
C927   C     0.83131   0.61679   0.75031   0.00000  Uiso   1.00
C928   C     0.83131   0.88332   0.74928   0.00000  Uiso   1.00
C929   C     0.85268   0.59295   0.71498   0.00000  Uiso   1.00
C930   C     0.84971   0.90710   0.79124   0.00000  Uiso   1.00
H931   H     0.87156   0.60977   0.68768   0.00000  Uiso   1.00
H932   H     0.86637   0.89026   0.82424   0.00000  Uiso   1.00
C933   C     0.85088   0.54710   0.71527   0.00000  Uiso   1.00
C934   C     0.84779   0.95295   0.79068   0.00000  Uiso   1.00
H935   H     0.86902   0.52917   0.68845   0.00000  Uiso   1.00
H936   H     0.86362   0.97081   0.82314   0.00000  Uiso   1.00
C937   C     0.82609   0.52440   0.74978   0.00000  Uiso   1.00
C938   C     0.82598   0.97575   0.74868   0.00000  Uiso   1.00
C939   C     0.87950   0.76204   0.56018   0.00000  Uiso   1.00
C940   C     0.81911   0.71018   0.94396   0.00000  Uiso   1.00
C941   C     0.87640   0.76368   0.61068   0.00000  Uiso   1.00
C942   C     0.81742   0.71295   0.89281   0.00000  Uiso   1.00
H943   H     0.90948   0.77494   0.63514   0.00000  Uiso   1.00
H944   H     0.80453   0.68458   0.87089   0.00000  Uiso   1.00
N945   N     0.83333   0.75001   0.62934   0.00000  Uiso   1.00
N946   N     0.83333   0.74999   0.87066   0.00000  Uiso   1.00
C947   C     0.79127   0.73602   0.59858   0.00000  Uiso   1.00
C948   C     0.84951   0.78604   0.89808   0.00000  Uiso   1.00
H949   H     0.75709   0.72511   0.61309   0.00000  Uiso   1.00
H950   H     0.86226   0.81542   0.88084   0.00000  Uiso   1.00
C951   C     0.79148   0.73555   0.54788   0.00000  Uiso   1.00
C952   C     0.84988   0.78574   0.94885   0.00000  Uiso   1.00
H953   H     0.75701   0.72515   0.52451   0.00000  Uiso   1.00
H954   H     0.86194   0.81528   0.96932   0.00000  Uiso   1.00
C955   C     0.83587   0.74806   0.52762   0.00000  Uiso   1.00
C956   C     0.83526   0.74759   0.97297   0.00000  Uiso   1.00
C957   C     0.77742   0.52657   0.82353   0.00000  Uiso   1.00
C958   C     0.73717   0.99613   0.81060   0.00000  Uiso   1.00
C959   C     0.71212   0.97618   0.84647   0.00000  Uiso   1.00
C960   C     0.72675   0.98655   0.89549   0.00000  Uiso   1.00
C961   C     0.76643   0.51696   0.90873   0.00000  Uiso   1.00
C962   C     0.79162   0.53696   0.87298   0.00000  Uiso   1.00
H963   H     0.72496   0.98789   0.77288   0.00000  Uiso   1.00
H964   H     0.68123   0.95274   0.83624   0.00000  Uiso   1.00
H965   H     0.70730   0.97109   0.92321   0.00000  Uiso   1.00
H966   H     0.77769   0.52503   0.94671   0.00000  Uiso   1.00
H967   H     0.82248   0.56030   0.88390   0.00000  Uiso   1.00
C968   C     0.78379   0.97393   0.66006   0.00000  Uiso   1.00
C969   C     0.74305   0.50424   0.65982   0.00000  Uiso   1.00
C970   C     0.72174   0.52485   0.61647   0.00000  Uiso   1.00
C971   C     0.74061   0.51526   0.57294   0.00000  Uiso   1.00
C972   C     0.78078   0.98496   0.57268   0.00000  Uiso   1.00
C973   C     0.80225   0.96430   0.61596   0.00000  Uiso   1.00
H974   H     0.72770   0.51196   0.69303   0.00000  Uiso   1.00
H975   H     0.69052   0.54825   0.61662   0.00000  Uiso   1.00
H976   H     0.72407   0.53126   0.53941   0.00000  Uiso   1.00
H977   H     0.79535   0.97754   0.53893   0.00000  Uiso   1.00
H978   H     0.83366   0.94116   0.61518   0.00000  Uiso   1.00
N979   N     0.92762   0.77282   0.54332   0.00000  Uiso   1.00
O980   O     0.94398   0.74956   0.50917   0.00000  Uiso   1.00
O981   O     0.95860   0.80169   0.56664   0.00000  Uiso   1.00
N982   N     0.80651   0.66882   0.96542   0.00000  Uiso   1.00
O983   O     0.83314   0.65496   0.50572   0.00000  Uiso   1.00
O984   O     0.77340   0.64203   0.94136   0.00000  Uiso   1.00
loop_
_geom_bond_atom_site_label_1
_geom_bond_atom_site_label_2
_geom_bond_distance
_geom_bond_site_symmetry_2
_ccdc_geom_bond_type
O1     C5      1.291   .     A
O1     Cu13    1.954   .     S
O2     C6      1.292   .     A
O2     Cu14    1.954   .     S
O3     Cu14    1.953   .     S
O3     C5      1.292   .     A
O4     Cu13    1.953   .     S
O4     C6      1.293   .     A
C5     C25     1.457   .     S
C6     C26     1.459   .     S
O7     Cu13    1.956   .     S
O7     C11     1.285   .     A
O8     C12     1.285   .     A
O8     Cu14    1.956   .     S
O9     Cu14    1.958   .     S
O9     C11     1.286   .     A
O10    C12     1.286   .     A
O10    Cu13    1.958   .     S
C11    C15     1.433   .     S
C12    C16     1.433   .     S
Cu13   Cu14    2.674   .     S
Cu13   N44     2.009   .     S
Cu14   N43     2.009   .     S
C15    C180    1.334   1_455 S
C15    H181    1.087   1_455 S
C16    C97     1.334   .     S
C16    H100    1.087   .     S
H17    C97     1.087   .     S
H18    C180    1.087   1_455 S
C19    C21     1.399   .     A
C19    C55     1.488   .     S
C19    C35     1.419   .     A
C20    C66     1.488   .     S
C20    C22     1.399   .     A
C20    C36     1.419   .     A
C21    H23     1.084   .     S
C21    C25     1.400   .     A
C22    H24     1.084   .     S
C22    C26     1.401   .     A
C25    C27     1.397   .     A
C26    C28     1.398   .     A
C27    H29     1.083   .     S
C27    C31     1.387   .     A
C28    C32     1.387   .     A
C28    H30     1.083   .     S
C31    H33     1.083   .     S
C31    C35     1.404   .     A
C32    C36     1.403   .     A
C32    H34     1.083   .     S
C35    C282    1.471   1_545 S
C36    C281    1.471   .     S
C37    C53     1.420   .     A
C37    N77     1.439   .     S
C37    C39     1.415   .     A
C38    C54     1.420   .     A
C38    C40     1.415   .     A
C38    N80     1.439   .     S
C39    H41     1.079   .     S
C39    N43     1.366   .     A
C40    H42     1.080   .     S
C40    N44     1.366   .     A
N43    C45     1.364   .     A
N44    C46     1.364   .     A
C45    H47     1.081   .     S
C45    C49     1.407   .     A
C46    H48     1.080   .     S
C46    C50     1.406   .     A
C49    H51     1.083   .     S
C49    C53     1.409   .     A
C50    C54     1.409   .     A
C50    H52     1.083   .     S
C53    C546    1.514   1_554 S
C54    C545    1.514   .     S
C55    C60     1.407   .     A
C55    C302    1.407   1_545 S
C56    C57     1.398   .     A
C56    H61     1.081   .     S
C56    C301    1.407   .     S
C57    H62     1.083   .     S
C57    C58     1.397   .     A
C58    H63     1.082   .     S
C58    C305    1.397   .     S
C59    H64     1.083   .     S
C59    C60     1.398   .     A
C59    C304    1.397   1_545 S
C60    H65     1.083   .     S
C66    C71     1.407   .     A
C66    C313    1.407   .     S
C67    H72     1.081   .     S
C67    C68     1.398   .     A
C67    C312    1.407   1_545 S
C68    C69     1.397   .     A
C68    H73     1.082   .     S
C69    H74     1.082   .     S
C69    C316    1.397   1_545 S
C70    C71     1.398   .     A
C70    H75     1.082   .     S
C70    C315    1.397   .     S
C71    H76     1.083   .     S
N77    O79     1.302   .     A
N77    O78     1.301   .     A
N80    O82     1.302   .     A
N80    O573    1.301   .     S
O81    N572    1.301   1_554 S
O83    C87     1.291   .     A
O83    Cu95    1.954   .     S
O84    C88     1.292   .     A
O84    Cu96    1.954   .     S
O85    Cu96    1.953   .     S
O85    C87     1.292   .     A
O86    Cu95    1.953   .     S
O86    C88     1.293   .     A
C87    C107    1.457   .     S
C88    C108    1.459   .     S
O89    Cu95    1.956   .     S
O89    C93     1.285   .     A
O90    C94     1.285   .     A
O90    Cu96    1.956   .     S
O91    Cu96    1.958   .     S
O91    C93     1.286   .     A
O92    C94     1.286   .     A
O92    Cu95    1.958   .     S
C93    C97     1.433   .     S
C94    C98     1.433   .     S
Cu95   Cu96    2.674   .     S
Cu95   N126    2.009   .     S
Cu96   N125    2.009   .     S
C98    C179    1.334   .     S
C98    H182    1.087   .     S
H99    C179    1.087   .     S
C101   C103    1.399   .     A
C101   C137    1.488   .     S
C101   C117    1.419   .     A
C102   C148    1.488   .     S
C102   C104    1.399   .     A
C102   C118    1.419   .     A
C103   H105    1.084   .     S
C103   C107    1.400   .     A
C104   H106    1.084   .     S
C104   C108    1.401   .     A
C107   C109    1.397   .     A
C108   C110    1.398   .     A
C109   H111    1.083   .     S
C109   C113    1.387   .     A
C110   C114    1.387   .     A
C110   H112    1.083   .     S
C113   H115    1.083   .     S
C113   C117    1.404   .     A
C114   C118    1.403   .     A
C114   H116    1.083   .     S
C117   C364    1.471   1_545 S
C118   C363    1.471   .     S
C119   C135    1.420   .     A
C119   N159    1.439   .     S
C119   C121    1.415   .     A
C120   C136    1.420   .     A
C120   C122    1.415   .     A
C120   N162    1.439   .     S
C121   H123    1.079   .     S
C121   N125    1.366   .     A
C122   H124    1.080   .     S
C122   N126    1.366   .     A
N125   C127    1.364   .     A
N126   C128    1.364   .     A
C127   H129    1.081   .     S
C127   C131    1.407   .     A
C128   H130    1.080   .     S
C128   C132    1.406   .     A
C131   H133    1.083   .     S
C131   C135    1.409   .     A
C132   C136    1.409   .     A
C132   H134    1.083   .     S
C135   C628    1.514   1_554 S
C136   C627    1.514   .     S
C137   C142    1.407   .     A
C137   C384    1.407   1_545 S
C138   C139    1.398   .     A
C138   H143    1.081   .     S
C138   C383    1.407   .     S
C139   H144    1.083   .     S
C139   C140    1.397   .     A
C140   H145    1.082   .     S
C140   C387    1.397   .     S
C141   H146    1.083   .     S
C141   C142    1.398   .     A
C141   C386    1.397   1_545 S
C142   H147    1.083   .     S
C148   C153    1.407   .     A
C148   C395    1.407   .     S
C149   H154    1.081   .     S
C149   C150    1.398   .     A
C149   C394    1.407   1_545 S
C150   C151    1.397   .     A
C150   H155    1.082   .     S
C151   H156    1.082   .     S
C151   C398    1.397   1_545 S
C152   C153    1.398   .     A
C152   H157    1.082   .     S
C152   C397    1.397   .     S
C153   H158    1.083   .     S
N159   O161    1.302   .     A
N159   O160    1.301   .     A
N162   O164    1.302   .     A
N162   O655    1.301   .     S
O163   N654    1.301   1_554 S
O165   C169    1.291   .     A
O165   Cu177   1.954   .     S
O166   C170    1.292   .     A
O166   Cu178   1.954   .     S
O167   Cu178   1.953   .     S
O167   C169    1.292   .     A
O168   Cu177   1.953   .     S
O168   C170    1.293   .     A
C169   C189    1.457   .     S
C170   C190    1.459   .     S
O171   Cu177   1.956   .     S
O171   C175    1.285   .     A
O172   C176    1.285   .     A
O172   Cu178   1.956   .     S
O173   Cu178   1.958   .     S
O173   C175    1.286   .     A
O174   C176    1.286   .     A
O174   Cu177   1.958   .     S
C175   C179    1.433   .     S
C176   C180    1.433   .     S
Cu177  Cu178   2.674   .     S
Cu177  N208    2.009   .     S
Cu178  N207    2.009   .     S
C180   C15     1.334   1_655 S
C180   H18     1.087   1_655 S
H181   C15     1.087   1_655 S
C183   C185    1.399   .     A
C183   C219    1.488   .     S
C183   C199    1.419   .     A
C184   C230    1.488   .     S
C184   C186    1.399   .     A
C184   C200    1.419   .     A
C185   H187    1.084   .     S
C185   C189    1.400   .     A
C186   H188    1.084   .     S
C186   C190    1.401   .     A
C189   C191    1.397   .     A
C190   C192    1.398   .     A
C191   H193    1.083   .     S
C191   C195    1.387   .     A
C192   C196    1.387   .     A
C192   H194    1.083   .     S
C195   H197    1.083   .     S
C195   C199    1.404   .     A
C196   C200    1.403   .     A
C196   H198    1.083   .     S
C199   C446    1.471   1_545 S
C200   C445    1.471   .     S
C201   C217    1.420   .     A
C201   N241    1.439   .     S
C201   C203    1.415   .     A
C202   C218    1.420   .     A
C202   C204    1.415   .     A
C202   N244    1.439   .     S
C203   H205    1.079   .     S
C203   N207    1.366   .     A
C204   H206    1.080   .     S
C204   N208    1.366   .     A
N207   C209    1.364   .     A
N208   C210    1.364   .     A
C209   H211    1.081   .     S
C209   C213    1.407   .     A
C210   H212    1.080   .     S
C210   C214    1.406   .     A
C213   H215    1.083   .     S
C213   C217    1.409   .     A
C214   C218    1.409   .     A
C214   H216    1.083   .     S
C217   C710    1.514   1_554 S
C218   C709    1.514   .     S
C219   C224    1.407   .     A
C219   C466    1.407   1_545 S
C220   C221    1.398   .     A
C220   H225    1.081   .     S
C220   C465    1.407   .     S
C221   H226    1.083   .     S
C221   C222    1.397   .     A
C222   H227    1.082   .     S
C222   C469    1.397   .     S
C223   H228    1.083   .     S
C223   C224    1.398   .     A
C223   C468    1.397   1_545 S
C224   H229    1.083   .     S
C230   C235    1.407   .     A
C230   C477    1.407   .     S
C231   H236    1.081   .     S
C231   C232    1.398   .     A
C231   C476    1.407   1_545 S
C232   C233    1.397   .     A
C232   H237    1.082   .     S
C233   H238    1.082   .     S
C233   C480    1.397   1_545 S
C234   C235    1.398   .     A
C234   H239    1.082   .     S
C234   C479    1.397   .     S
C235   H240    1.083   .     S
N241   O243    1.302   .     A
N241   O242    1.301   .     A
N244   O246    1.302   .     A
N244   O737    1.301   .     S
O245   N736    1.301   1_554 S
O247   C251    1.291   .     A
O247   Cu259   1.954   .     S
O248   C252    1.292   .     A
O248   Cu260   1.954   .     S
O249   Cu260   1.953   .     S
O249   C251    1.292   .     A
O250   Cu259   1.953   .     S
O250   C252    1.293   .     A
C251   C271    1.457   .     S
C252   C272    1.459   .     S
O253   Cu259   1.956   .     S
O253   C257    1.285   .     A
O254   C258    1.285   .     A
O254   Cu260   1.956   .     S
O255   Cu260   1.958   .     S
O255   C257    1.286   .     A
O256   C258    1.286   .     A
O256   Cu259   1.958   .     S
C257   C261    1.433   .     S
C258   C262    1.433   .     S
Cu259  Cu260   2.674   .     S
Cu259  N290    2.009   .     S
Cu260  N289    2.009   .     S
C261   C426    1.334   1_455 S
C261   H427    1.087   1_455 S
C262   C343    1.334   .     S
C262   H346    1.087   .     S
H263   C343    1.087   .     S
H264   C426    1.087   1_455 S
C265   C267    1.399   .     A
C265   C301    1.488   .     S
C265   C281    1.419   .     A
C266   C312    1.488   .     S
C266   C268    1.399   .     A
C266   C282    1.419   .     A
C267   H269    1.084   .     S
C267   C271    1.400   .     A
C268   H270    1.084   .     S
C268   C272    1.401   .     A
C271   C273    1.397   .     A
C272   C274    1.398   .     A
C273   H275    1.083   .     S
C273   C277    1.387   .     A
C274   C278    1.387   .     A
C274   H276    1.083   .     S
C277   H279    1.083   .     S
C277   C281    1.404   .     A
C278   C282    1.403   .     A
C278   H280    1.083   .     S
C282   C35     1.471   1_565 S
C283   C299    1.420   .     A
C283   N323    1.439   .     S
C283   C285    1.415   .     A
C284   C300    1.420   .     A
C284   C286    1.415   .     A
C284   N326    1.439   .     S
C285   H287    1.079   .     S
C285   N289    1.366   .     A
C286   H288    1.080   .     S
C286   N290    1.366   .     A
N289   C291    1.364   .     A
N290   C292    1.364   .     A
C291   H293    1.081   .     S
C291   C295    1.407   .     A
C292   H294    1.080   .     S
C292   C296    1.406   .     A
C295   H297    1.083   .     S
C295   C299    1.409   .     A
C296   C300    1.409   .     A
C296   H298    1.083   .     S
C299   C792    1.514   1_554 S
C300   C791    1.514   .     S
C301   C306    1.407   .     A
C302   C303    1.398   .     A
C302   H307    1.081   .     S
C302   C55     1.407   1_565 S
C303   H308    1.083   .     S
C303   C304    1.397   .     A
C304   H309    1.082   .     S
C304   C59     1.397   1_565 S
C305   H310    1.083   .     S
C305   C306    1.398   .     A
C306   H311    1.083   .     S
C312   C317    1.407   .     A
C312   C67     1.407   1_565 S
C313   H318    1.081   .     S
C313   C314    1.398   .     A
C314   C315    1.397   .     A
C314   H319    1.082   .     S
C315   H320    1.082   .     S
C316   C317    1.398   .     A
C316   H321    1.082   .     S
C316   C69     1.397   1_565 S
C317   H322    1.083   .     S
N323   O325    1.302   .     A
N323   O324    1.301   .     A
N326   O328    1.302   .     A
N326   O819    1.301   .     S
O327   N818    1.301   1_554 S
O329   C333    1.291   .     A
O329   Cu341   1.954   .     S
O330   C334    1.292   .     A
O330   Cu342   1.954   .     S
O331   Cu342   1.953   .     S
O331   C333    1.292   .     A
O332   Cu341   1.953   .     S
O332   C334    1.293   .     A
C333   C353    1.457   .     S
C334   C354    1.459   .     S
O335   Cu341   1.956   .     S
O335   C339    1.285   .     A
O336   C340    1.285   .     A
O336   Cu342   1.956   .     S
O337   Cu342   1.958   .     S
O337   C339    1.286   .     A
O338   C340    1.286   .     A
O338   Cu341   1.958   .     S
C339   C343    1.433   .     S
C340   C344    1.433   .     S
Cu341  Cu342   2.674   .     S
Cu341  N372    2.009   .     S
Cu342  N371    2.009   .     S
C344   C425    1.334   .     S
C344   H428    1.087   .     S
H345   C425    1.087   .     S
C347   C349    1.399   .     A
C347   C383    1.488   .     S
C347   C363    1.419   .     A
C348   C394    1.488   .     S
C348   C350    1.399   .     A
C348   C364    1.419   .     A
C349   H351    1.084   .     S
C349   C353    1.400   .     A
C350   H352    1.084   .     S
C350   C354    1.401   .     A
C353   C355    1.397   .     A
C354   C356    1.398   .     A
C355   H357    1.083   .     S
C355   C359    1.387   .     A
C356   C360    1.387   .     A
C356   H358    1.083   .     S
C359   H361    1.083   .     S
C359   C363    1.404   .     A
C360   C364    1.403   .     A
C360   H362    1.083   .     S
C364   C117    1.471   1_565 S
C365   C381    1.420   .     A
C365   N405    1.439   .     S
C365   C367    1.415   .     A
C366   C382    1.420   .     A
C366   C368    1.415   .     A
C366   N408    1.439   .     S
C367   H369    1.079   .     S
C367   N371    1.366   .     A
C368   H370    1.080   .     S
C368   N372    1.366   .     A
N371   C373    1.364   .     A
N372   C374    1.364   .     A
C373   H375    1.081   .     S
C373   C377    1.407   .     A
C374   H376    1.080   .     S
C374   C378    1.406   .     A
C377   H379    1.083   .     S
C377   C381    1.409   .     A
C378   C382    1.409   .     A
C378   H380    1.083   .     S
C381   C874    1.514   1_554 S
C382   C873    1.514   .     S
C383   C388    1.407   .     A
C384   C385    1.398   .     A
C384   H389    1.081   .     S
C384   C137    1.407   1_565 S
C385   H390    1.083   .     S
C385   C386    1.397   .     A
C386   H391    1.082   .     S
C386   C141    1.397   1_565 S
C387   H392    1.083   .     S
C387   C388    1.398   .     A
C388   H393    1.083   .     S
C394   C399    1.407   .     A
C394   C149    1.407   1_565 S
C395   H400    1.081   .     S
C395   C396    1.398   .     A
C396   C397    1.397   .     A
C396   H401    1.082   .     S
C397   H402    1.082   .     S
C398   C399    1.398   .     A
C398   H403    1.082   .     S
C398   C151    1.397   1_565 S
C399   H404    1.083   .     S
N405   O407    1.302   .     A
N405   O406    1.301   .     A
N408   O410    1.302   .     A
N408   O901    1.301   .     S
O409   N900    1.301   1_554 S
O411   C415    1.291   .     A
O411   Cu423   1.954   .     S
O412   C416    1.292   .     A
O412   Cu424   1.954   .     S
O413   Cu424   1.953   .     S
O413   C415    1.292   .     A
O414   Cu423   1.953   .     S
O414   C416    1.293   .     A
C415   C435    1.457   .     S
C416   C436    1.459   .     S
O417   Cu423   1.956   .     S
O417   C421    1.285   .     A
O418   C422    1.285   .     A
O418   Cu424   1.956   .     S
O419   Cu424   1.958   .     S
O419   C421    1.286   .     A
O420   C422    1.286   .     A
O420   Cu423   1.958   .     S
C421   C425    1.433   .     S
C422   C426    1.433   .     S
Cu423  Cu424   2.674   .     S
Cu423  N454    2.009   .     S
Cu424  N453    2.009   .     S
C426   C261    1.334   1_655 S
C426   H264    1.087   1_655 S
H427   C261    1.087   1_655 S
C429   C431    1.399   .     A
C429   C465    1.488   .     S
C429   C445    1.419   .     A
C430   C476    1.488   .     S
C430   C432    1.399   .     A
C430   C446    1.419   .     A
C431   H433    1.084   .     S
C431   C435    1.400   .     A
C432   H434    1.084   .     S
C432   C436    1.401   .     A
C435   C437    1.397   .     A
C436   C438    1.398   .     A
C437   H439    1.083   .     S
C437   C441    1.387   .     A
C438   C442    1.387   .     A
C438   H440    1.083   .     S
C441   H443    1.083   .     S
C441   C445    1.404   .     A
C442   C446    1.403   .     A
C442   H444    1.083   .     S
C446   C199    1.471   1_565 S
C447   C463    1.420   .     A
C447   N487    1.439   .     S
C447   C449    1.415   .     A
C448   C464    1.420   .     A
C448   C450    1.415   .     A
C448   N490    1.439   .     S
C449   H451    1.079   .     S
C449   N453    1.366   .     A
C450   H452    1.080   .     S
C450   N454    1.366   .     A
N453   C455    1.364   .     A
N454   C456    1.364   .     A
C455   H457    1.081   .     S
C455   C459    1.407   .     A
C456   H458    1.080   .     S
C456   C460    1.406   .     A
C459   H461    1.083   .     S
C459   C463    1.409   .     A
C460   C464    1.409   .     A
C460   H462    1.083   .     S
C463   C956    1.514   1_554 S
C464   C955    1.514   .     S
C465   C470    1.407   .     A
C466   C467    1.398   .     A
C466   H471    1.081   .     S
C466   C219    1.407   1_565 S
C467   H472    1.083   .     S
C467   C468    1.397   .     A
C468   H473    1.082   .     S
C468   C223    1.397   1_565 S
C469   H474    1.083   .     S
C469   C470    1.398   .     A
C470   H475    1.083   .     S
C476   C481    1.407   .     A
C476   C231    1.407   1_565 S
C477   H482    1.081   .     S
C477   C478    1.398   .     A
C478   C479    1.397   .     A
C478   H483    1.082   .     S
C479   H484    1.082   .     S
C480   C481    1.398   .     A
C480   H485    1.082   .     S
C480   C233    1.397   1_565 S
C481   H486    1.083   .     S
N487   O489    1.302   .     A
N487   O488    1.301   .     A
N490   O492    1.302   .     A
N490   O983    1.301   .     S
O491   N982    1.301   1_554 S
O493   C497    1.291   .     A
O493   Cu505   1.954   .     S
O494   C498    1.292   .     A
O494   Cu506   1.954   .     S
O495   Cu506   1.953   .     S
O495   C497    1.292   .     A
O496   Cu505   1.953   .     S
O496   C498    1.293   .     A
C497   C517    1.457   .     S
C498   C518    1.459   .     S
O499   Cu505   1.956   .     S
O499   C503    1.285   .     A
O500   C504    1.285   .     A
O500   Cu506   1.956   .     S
O501   Cu506   1.958   .     S
O501   C503    1.286   .     A
O502   C504    1.286   .     A
O502   Cu505   1.958   .     S
C503   C507    1.433   .     S
C504   C508    1.433   .     S
Cu505  Cu506   2.674   .     S
Cu505  N536    2.009   .     S
Cu506  N535    2.009   .     S
C507   C672    1.334   1_455 S
C507   H673    1.087   1_455 S
C508   C589    1.334   .     S
C508   H592    1.087   .     S
H509   C589    1.087   .     S
H510   C672    1.087   1_455 S
C511   C513    1.399   .     A
C511   C547    1.488   .     S
C511   C527    1.419   .     A
C512   C558    1.488   .     S
C512   C514    1.399   .     A
C512   C528    1.419   .     A
C513   H515    1.084   .     S
C513   C517    1.400   .     A
C514   H516    1.084   .     S
C514   C518    1.401   .     A
C517   C519    1.397   .     A
C518   C520    1.398   .     A
C519   H521    1.083   .     S
C519   C523    1.387   .     A
C520   C524    1.387   .     A
C520   H522    1.083   .     S
C523   H525    1.083   .     S
C523   C527    1.404   .     A
C524   C528    1.403   .     A
C524   H526    1.083   .     S
C527   C774    1.471   1_545 S
C528   C773    1.471   .     S
C529   C545    1.420   .     A
C529   N569    1.439   .     S
C529   C531    1.415   .     A
C530   C546    1.420   .     A
C530   C532    1.415   .     A
C530   N572    1.439   .     S
C531   H533    1.079   .     S
C531   N535    1.366   .     A
C532   H534    1.080   .     S
C532   N536    1.366   .     A
N535   C537    1.364   .     A
N536   C538    1.364   .     A
C537   H539    1.081   .     S
C537   C541    1.407   .     A
C538   H540    1.080   .     S
C538   C542    1.406   .     A
C541   H543    1.083   .     S
C541   C545    1.409   .     A
C542   C546    1.409   .     A
C542   H544    1.083   .     S
C546   C53     1.514   1_556 S
C547   C552    1.407   .     A
C547   C794    1.407   1_545 S
C548   C549    1.398   .     A
C548   H553    1.081   .     S
C548   C793    1.407   .     S
C549   H554    1.083   .     S
C549   C550    1.397   .     A
C550   H555    1.082   .     S
C550   C797    1.397   .     S
C551   H556    1.083   .     S
C551   C552    1.398   .     A
C551   C796    1.397   1_545 S
C552   H557    1.083   .     S
C558   C563    1.407   .     A
C558   C805    1.407   .     S
C559   H564    1.081   .     S
C559   C560    1.398   .     A
C559   C804    1.407   1_545 S
C560   C561    1.397   .     A
C560   H565    1.082   .     S
C561   H566    1.082   .     S
C561   C808    1.397   1_545 S
C562   C563    1.398   .     A
C562   H567    1.082   .     S
C562   C807    1.397   .     S
C563   H568    1.083   .     S
N569   O571    1.302   .     A
N569   O570    1.301   .     A
N572   O574    1.302   .     A
N572   O81     1.301   1_556 S
O575   C579    1.291   .     A
O575   Cu587   1.954   .     S
O576   C580    1.292   .     A
O576   Cu588   1.954   .     S
O577   Cu588   1.953   .     S
O577   C579    1.292   .     A
O578   Cu587   1.953   .     S
O578   C580    1.293   .     A
C579   C599    1.457   .     S
C580   C600    1.459   .     S
O581   Cu587   1.956   .     S
O581   C585    1.285   .     A
O582   C586    1.285   .     A
O582   Cu588   1.956   .     S
O583   Cu588   1.958   .     S
O583   C585    1.286   .     A
O584   C586    1.286   .     A
O584   Cu587   1.958   .     S
C585   C589    1.433   .     S
C586   C590    1.433   .     S
Cu587  Cu588   2.674   .     S
Cu587  N618    2.009   .     S
Cu588  N617    2.009   .     S
C590   C671    1.334   .     S
C590   H674    1.087   .     S
H591   C671    1.087   .     S
C593   C595    1.399   .     A
C593   C629    1.488   .     S
C593   C609    1.419   .     A
C594   C640    1.488   .     S
C594   C596    1.399   .     A
C594   C610    1.419   .     A
C595   H597    1.084   .     S
C595   C599    1.400   .     A
C596   H598    1.084   .     S
C596   C600    1.401   .     A
C599   C601    1.397   .     A
C600   C602    1.398   .     A
C601   H603    1.083   .     S
C601   C605    1.387   .     A
C602   C606    1.387   .     A
C602   H604    1.083   .     S
C605   H607    1.083   .     S
C605   C609    1.404   .     A
C606   C610    1.403   .     A
C606   H608    1.083   .     S
C609   C856    1.471   1_545 S
C610   C855    1.471   .     S
C611   C627    1.420   .     A
C611   N651    1.439   .     S
C611   C613    1.415   .     A
C612   C628    1.420   .     A
C612   C614    1.415   .     A
C612   N654    1.439   .     S
C613   H615    1.079   .     S
C613   N617    1.366   .     A
C614   H616    1.080   .     S
C614   N618    1.366   .     A
N617   C619    1.364   .     A
N618   C620    1.364   .     A
C619   H621    1.081   .     S
C619   C623    1.407   .     A
C620   H622    1.080   .     S
C620   C624    1.406   .     A
C623   H625    1.083   .     S
C623   C627    1.409   .     A
C624   C628    1.409   .     A
C624   H626    1.083   .     S
C628   C135    1.514   1_556 S
C629   C634    1.407   .     A
C629   C876    1.407   1_545 S
C630   C631    1.398   .     A
C630   H635    1.081   .     S
C630   C875    1.407   .     S
C631   H636    1.083   .     S
C631   C632    1.397   .     A
C632   H637    1.082   .     S
C632   C879    1.397   .     S
C633   H638    1.083   .     S
C633   C634    1.398   .     A
C633   C878    1.397   1_545 S
C634   H639    1.083   .     S
C640   C645    1.407   .     A
C640   C887    1.407   .     S
C641   H646    1.081   .     S
C641   C642    1.398   .     A
C641   C886    1.407   1_545 S
C642   C643    1.397   .     A
C642   H647    1.082   .     S
C643   H648    1.082   .     S
C643   C890    1.397   1_545 S
C644   C645    1.398   .     A
C644   H649    1.082   .     S
C644   C889    1.397   .     S
C645   H650    1.083   .     S
N651   O653    1.302   .     A
N651   O652    1.301   .     A
N654   O656    1.302   .     A
N654   O163    1.301   1_556 S
O657   C661    1.291   .     A
O657   Cu669   1.954   .     S
O658   C662    1.292   .     A
O658   Cu670   1.954   .     S
O659   Cu670   1.953   .     S
O659   C661    1.292   .     A
O660   Cu669   1.953   .     S
O660   C662    1.293   .     A
C661   C681    1.457   .     S
C662   C682    1.459   .     S
O663   Cu669   1.956   .     S
O663   C667    1.285   .     A
O664   C668    1.285   .     A
O664   Cu670   1.956   .     S
O665   Cu670   1.958   .     S
O665   C667    1.286   .     A
O666   C668    1.286   .     A
O666   Cu669   1.958   .     S
C667   C671    1.433   .     S
C668   C672    1.433   .     S
Cu669  Cu670   2.674   .     S
Cu669  N700    2.009   .     S
Cu670  N699    2.009   .     S
C672   C507    1.334   1_655 S
C672   H510    1.087   1_655 S
H673   C507    1.087   1_655 S
C675   C677    1.399   .     A
C675   C711    1.488   .     S
C675   C691    1.419   .     A
C676   C722    1.488   .     S
C676   C678    1.399   .     A
C676   C692    1.419   .     A
C677   H679    1.084   .     S
C677   C681    1.400   .     A
C678   H680    1.084   .     S
C678   C682    1.401   .     A
C681   C683    1.397   .     A
C682   C684    1.398   .     A
C683   H685    1.083   .     S
C683   C687    1.387   .     A
C684   C688    1.387   .     A
C684   H686    1.083   .     S
C687   H689    1.083   .     S
C687   C691    1.404   .     A
C688   C692    1.403   .     A
C688   H690    1.083   .     S
C691   C938    1.471   1_545 S
C692   C937    1.471   .     S
C693   C709    1.420   .     A
C693   N733    1.439   .     S
C693   C695    1.415   .     A
C694   C710    1.420   .     A
C694   C696    1.415   .     A
C694   N736    1.439   .     S
C695   H697    1.079   .     S
C695   N699    1.366   .     A
C696   H698    1.080   .     S
C696   N700    1.366   .     A
N699   C701    1.364   .     A
N700   C702    1.364   .     A
C701   H703    1.081   .     S
C701   C705    1.407   .     A
C702   H704    1.080   .     S
C702   C706    1.406   .     A
C705   H707    1.083   .     S
C705   C709    1.409   .     A
C706   C710    1.409   .     A
C706   H708    1.083   .     S
C710   C217    1.514   1_556 S
C711   C716    1.407   .     A
C711   C958    1.407   1_545 S
C712   C713    1.398   .     A
C712   H717    1.081   .     S
C712   C957    1.407   .     S
C713   H718    1.083   .     S
C713   C714    1.397   .     A
C714   H719    1.082   .     S
C714   C961    1.397   .     S
C715   H720    1.083   .     S
C715   C716    1.398   .     A
C715   C960    1.397   1_545 S
C716   H721    1.083   .     S
C722   C727    1.407   .     A
C722   C969    1.407   .     S
C723   H728    1.081   .     S
C723   C724    1.398   .     A
C723   C968    1.407   1_545 S
C724   C725    1.397   .     A
C724   H729    1.082   .     S
C725   H730    1.082   .     S
C725   C972    1.397   1_545 S
C726   C727    1.398   .     A
C726   H731    1.082   .     S
C726   C971    1.397   .     S
C727   H732    1.083   .     S
N733   O735    1.302   .     A
N733   O734    1.301   .     A
N736   O738    1.302   .     A
N736   O245    1.301   1_556 S
O739   C743    1.291   .     A
O739   Cu751   1.954   .     S
O740   C744    1.292   .     A
O740   Cu752   1.954   .     S
O741   Cu752   1.953   .     S
O741   C743    1.292   .     A
O742   Cu751   1.953   .     S
O742   C744    1.293   .     A
C743   C763    1.457   .     S
C744   C764    1.459   .     S
O745   Cu751   1.956   .     S
O745   C749    1.285   .     A
O746   C750    1.285   .     A
O746   Cu752   1.956   .     S
O747   Cu752   1.958   .     S
O747   C749    1.286   .     A
O748   C750    1.286   .     A
O748   Cu751   1.958   .     S
C749   C753    1.433   .     S
C750   C754    1.433   .     S
Cu751  Cu752   2.674   .     S
Cu751  N782    2.009   .     S
Cu752  N781    2.009   .     S
C753   C918    1.334   1_455 S
C753   H919    1.087   1_455 S
C754   C835    1.334   .     S
C754   H838    1.087   .     S
H755   C835    1.087   .     S
H756   C918    1.087   1_455 S
C757   C759    1.399   .     A
C757   C793    1.488   .     S
C757   C773    1.419   .     A
C758   C804    1.488   .     S
C758   C760    1.399   .     A
C758   C774    1.419   .     A
C759   H761    1.084   .     S
C759   C763    1.400   .     A
C760   H762    1.084   .     S
C760   C764    1.401   .     A
C763   C765    1.397   .     A
C764   C766    1.398   .     A
C765   H767    1.083   .     S
C765   C769    1.387   .     A
C766   C770    1.387   .     A
C766   H768    1.083   .     S
C769   H771    1.083   .     S
C769   C773    1.404   .     A
C770   C774    1.403   .     A
C770   H772    1.083   .     S
C774   C527    1.471   1_565 S
C775   C791    1.420   .     A
C775   N815    1.439   .     S
C775   C777    1.415   .     A
C776   C792    1.420   .     A
C776   C778    1.415   .     A
C776   N818    1.439   .     S
C777   H779    1.079   .     S
C777   N781    1.366   .     A
C778   H780    1.080   .     S
C778   N782    1.366   .     A
N781   C783    1.364   .     A
N782   C784    1.364   .     A
C783   H785    1.081   .     S
C783   C787    1.407   .     A
C784   H786    1.080   .     S
C784   C788    1.406   .     A
C787   H789    1.083   .     S
C787   C791    1.409   .     A
C788   C792    1.409   .     A
C788   H790    1.083   .     S
C792   C299    1.514   1_556 S
C793   C798    1.407   .     A
C794   C795    1.398   .     A
C794   H799    1.081   .     S
C794   C547    1.407   1_565 S
C795   H800    1.083   .     S
C795   C796    1.397   .     A
C796   H801    1.082   .     S
C796   C551    1.397   1_565 S
C797   H802    1.083   .     S
C797   C798    1.398   .     A
C798   H803    1.083   .     S
C804   C809    1.407   .     A
C804   C559    1.407   1_565 S
C805   H810    1.081   .     S
C805   C806    1.398   .     A
C806   C807    1.397   .     A
C806   H811    1.082   .     S
C807   H812    1.082   .     S
C808   C809    1.398   .     A
C808   H813    1.082   .     S
C808   C561    1.397   1_565 S
C809   H814    1.083   .     S
N815   O817    1.302   .     A
N815   O816    1.301   .     A
N818   O820    1.302   .     A
N818   O327    1.301   1_556 S
O821   C825    1.291   .     A
O821   Cu833   1.954   .     S
O822   C826    1.292   .     A
O822   Cu834   1.954   .     S
O823   Cu834   1.953   .     S
O823   C825    1.292   .     A
O824   Cu833   1.953   .     S
O824   C826    1.293   .     A
C825   C845    1.457   .     S
C826   C846    1.459   .     S
O827   Cu833   1.956   .     S
O827   C831    1.285   .     A
O828   C832    1.285   .     A
O828   Cu834   1.956   .     S
O829   Cu834   1.958   .     S
O829   C831    1.286   .     A
O830   C832    1.286   .     A
O830   Cu833   1.958   .     S
C831   C835    1.433   .     S
C832   C836    1.433   .     S
Cu833  Cu834   2.674   .     S
Cu833  N864    2.009   .     S
Cu834  N863    2.009   .     S
C836   C917    1.334   .     S
C836   H920    1.087   .     S
H837   C917    1.087   .     S
C839   C841    1.399   .     A
C839   C875    1.488   .     S
C839   C855    1.419   .     A
C840   C886    1.488   .     S
C840   C842    1.399   .     A
C840   C856    1.419   .     A
C841   H843    1.084   .     S
C841   C845    1.400   .     A
C842   H844    1.084   .     S
C842   C846    1.401   .     A
C845   C847    1.397   .     A
C846   C848    1.398   .     A
C847   H849    1.083   .     S
C847   C851    1.387   .     A
C848   C852    1.387   .     A
C848   H850    1.083   .     S
C851   H853    1.083   .     S
C851   C855    1.404   .     A
C852   C856    1.403   .     A
C852   H854    1.083   .     S
C856   C609    1.471   1_565 S
C857   C873    1.420   .     A
C857   N897    1.439   .     S
C857   C859    1.415   .     A
C858   C874    1.420   .     A
C858   C860    1.415   .     A
C858   N900    1.439   .     S
C859   H861    1.079   .     S
C859   N863    1.366   .     A
C860   H862    1.080   .     S
C860   N864    1.366   .     A
N863   C865    1.364   .     A
N864   C866    1.364   .     A
C865   H867    1.081   .     S
C865   C869    1.407   .     A
C866   H868    1.080   .     S
C866   C870    1.406   .     A
C869   H871    1.083   .     S
C869   C873    1.409   .     A
C870   C874    1.409   .     A
C870   H872    1.083   .     S
C874   C381    1.514   1_556 S
C875   C880    1.407   .     A
C876   C877    1.398   .     A
C876   H881    1.081   .     S
C876   C629    1.407   1_565 S
C877   H882    1.083   .     S
C877   C878    1.397   .     A
C878   H883    1.082   .     S
C878   C633    1.397   1_565 S
C879   H884    1.083   .     S
C879   C880    1.398   .     A
C880   H885    1.083   .     S
C886   C891    1.407   .     A
C886   C641    1.407   1_565 S
C887   H892    1.081   .     S
C887   C888    1.398   .     A
C888   C889    1.397   .     A
C888   H893    1.082   .     S
C889   H894    1.082   .     S
C890   C891    1.398   .     A
C890   H895    1.082   .     S
C890   C643    1.397   1_565 S
C891   H896    1.083   .     S
N897   O899    1.302   .     A
N897   O898    1.301   .     A
N900   O902    1.302   .     A
N900   O409    1.301   1_556 S
O903   C907    1.291   .     A
O903   Cu915   1.954   .     S
O904   C908    1.292   .     A
O904   Cu916   1.954   .     S
O905   Cu916   1.953   .     S
O905   C907    1.292   .     A
O906   Cu915   1.953   .     S
O906   C908    1.293   .     A
C907   C927    1.457   .     S
C908   C928    1.459   .     S
O909   Cu915   1.956   .     S
O909   C913    1.285   .     A
O910   C914    1.285   .     A
O910   Cu916   1.956   .     S
O911   Cu916   1.958   .     S
O911   C913    1.286   .     A
O912   C914    1.286   .     A
O912   Cu915   1.958   .     S
C913   C917    1.433   .     S
C914   C918    1.433   .     S
Cu915  Cu916   2.674   .     S
Cu915  N946    2.009   .     S
Cu916  N945    2.009   .     S
C918   C753    1.334   1_655 S
C918   H756    1.087   1_655 S
H919   C753    1.087   1_655 S
C921   C923    1.399   .     A
C921   C957    1.488   .     S
C921   C937    1.419   .     A
C922   C968    1.488   .     S
C922   C924    1.399   .     A
C922   C938    1.419   .     A
C923   H925    1.084   .     S
C923   C927    1.400   .     A
C924   H926    1.084   .     S
C924   C928    1.401   .     A
C927   C929    1.397   .     A
C928   C930    1.398   .     A
C929   H931    1.083   .     S
C929   C933    1.387   .     A
C930   C934    1.387   .     A
C930   H932    1.083   .     S
C933   H935    1.083   .     S
C933   C937    1.404   .     A
C934   C938    1.403   .     A
C934   H936    1.083   .     S
C938   C691    1.471   1_565 S
C939   C955    1.420   .     A
C939   N979    1.439   .     S
C939   C941    1.415   .     A
C940   C956    1.420   .     A
C940   C942    1.415   .     A
C940   N982    1.439   .     S
C941   H943    1.079   .     S
C941   N945    1.366   .     A
C942   H944    1.080   .     S
C942   N946    1.366   .     A
N945   C947    1.364   .     A
N946   C948    1.364   .     A
C947   H949    1.081   .     S
C947   C951    1.407   .     A
C948   H950    1.080   .     S
C948   C952    1.406   .     A
C951   H953    1.083   .     S
C951   C955    1.409   .     A
C952   C956    1.409   .     A
C952   H954    1.083   .     S
C956   C463    1.514   1_556 S
C957   C962    1.407   .     A
C958   C959    1.398   .     A
C958   H963    1.081   .     S
C958   C711    1.407   1_565 S
C959   H964    1.083   .     S
C959   C960    1.397   .     A
C960   H965    1.082   .     S
C960   C715    1.397   1_565 S
C961   H966    1.083   .     S
C961   C962    1.398   .     A
C962   H967    1.083   .     S
C968   C973    1.407   .     A
C968   C723    1.407   1_565 S
C969   H974    1.081   .     S
C969   C970    1.398   .     A
C970   C971    1.397   .     A
C970   H975    1.082   .     S
C971   H976    1.082   .     S
C972   C973    1.398   .     A
C972   H977    1.082   .     S
C972   C725    1.397   1_565 S
C973   H978    1.083   .     S
N979   O981    1.302   .     A
N979   O980    1.301   .     A
N982   O984    1.302   .     A
N982   O491    1.301   1_556 S
