data_str_m2_o10_o17_pcu_sym.129
_audit_creation_date              2020-01-03
_audit_creation_method            'Materials Studio'
_symmetry_space_group_name_H-M    'P1'
_symmetry_Int_Tables_number       1
_symmetry_cell_setting            triclinic
loop_
_symmetry_equiv_pos_as_xyz
  x,y,z
_cell_length_a                    29.9528
_cell_length_b                    26.1096
_cell_length_c                    22.5016
_cell_angle_alpha                 103.3541
_cell_angle_beta                  94.5045
_cell_angle_gamma                 92.9048
loop_
_atom_site_label
_atom_site_type_symbol
_atom_site_fract_x
_atom_site_fract_y
_atom_site_fract_z
_atom_site_U_iso_or_equiv
_atom_site_adp_type
_atom_site_occupancy
C1     C     0.24857   0.06658   0.15101   0.00000  Uiso   1.00
C2     C     0.25143   0.26676   0.18233   0.00000  Uiso   1.00
C3     C     0.01722   0.07672   0.18325   0.00000  Uiso   1.00
C4     C     0.48278   0.25661   0.15008   0.00000  Uiso   1.00
C5     C     0.24773   0.01048   0.14238   0.00000  Uiso   1.00
C6     C     0.25227   0.32285   0.19095   0.00000  Uiso   1.00
C7     C     0.16467   0.16572   0.16718   0.00000  Uiso   1.00
C8     C     0.33533   0.16761   0.16616   0.00000  Uiso   1.00
C9     C     0.40819   0.21439   0.15703   0.00000  Uiso   1.00
C10    C     0.09181   0.11894   0.17631   0.00000  Uiso   1.00
C11    C     0.38345   0.16924   0.16486   0.00000  Uiso   1.00
C12    C     0.11655   0.16409   0.16848   0.00000  Uiso   1.00
C13    C     0.40435   0.12483   0.17340   0.00000  Uiso   1.00
C14    C     0.09565   0.20851   0.15994   0.00000  Uiso   1.00
C15    C     0.45054   0.12362   0.17405   0.00000  Uiso   1.00
C16    C     0.04946   0.20972   0.15929   0.00000  Uiso   1.00
C17    C     0.47648   0.16759   0.16614   0.00000  Uiso   1.00
C18    C     0.02352   0.16574   0.16719   0.00000  Uiso   1.00
C19    C     0.45555   0.21339   0.15758   0.00000  Uiso   1.00
C20    C     0.04445   0.11995   0.17575   0.00000  Uiso   1.00
C21    C     0.47100   0.07879   0.18267   0.00000  Uiso   1.00
C22    C     0.02900   0.25454   0.15066   0.00000  Uiso   1.00
Cu23   Cu    0.25501   0.17246   0.22813   0.00000  Uiso   1.00
Cu24   Cu    0.24500   0.16087   0.10521   0.00000  Uiso   1.00
H25    H     0.38427   0.09096   0.17956   0.00000  Uiso   1.00
H26    H     0.11573   0.24237   0.15377   0.00000  Uiso   1.00
H27    H     0.45105   0.04517   0.18907   0.00000  Uiso   1.00
H28    H     0.04895   0.28816   0.14426   0.00000  Uiso   1.00
H29    H     0.03079   0.04083   0.18978   0.00000  Uiso   1.00
H30    H     0.46921   0.29250   0.14355   0.00000  Uiso   1.00
H31    H     0.24329   0.31967   0.09571   0.00000  Uiso   1.00
H32    H     0.25671   0.01366   0.23763   0.00000  Uiso   1.00
N33    N     0.23745   0.15214   0.01284   0.00000  Uiso   1.00
N34    N     0.26256   0.18119   0.32049   0.00000  Uiso   1.00
O35    O     0.25326   0.09538   0.20659   0.00000  Uiso   1.00
O36    O     0.24675   0.23796   0.12674   0.00000  Uiso   1.00
O37    O     0.24480   0.08559   0.10279   0.00000  Uiso   1.00
O38    O     0.25520   0.24774   0.23055   0.00000  Uiso   1.00
O39    O     0.18936   0.17155   0.21857   0.00000  Uiso   1.00
O40    O     0.31065   0.16179   0.11476   0.00000  Uiso   1.00
O41    O     0.18090   0.16176   0.11477   0.00000  Uiso   1.00
O42    O     0.31910   0.17157   0.21857   0.00000  Uiso   1.00
C43    C     0.38411   0.26365   0.15228   0.00000  Uiso   1.00
C44    C     0.38495   0.30158   0.21518   0.00000  Uiso   1.00
H45    H     0.36618   0.28287   0.24622   0.00000  Uiso   1.00
H46    H     0.41998   0.31250   0.23598   0.00000  Uiso   1.00
H47    H     0.36871   0.00458   0.21051   0.00000  Uiso   1.00
H48    H     0.39840   0.28359   0.11889   0.00000  Uiso   1.00
H49    H     0.34857   0.25391   0.13385   0.00000  Uiso   1.00
C50    C     0.11589   0.06968   0.18105   0.00000  Uiso   1.00
C51    C     0.11505   0.03175   0.11816   0.00000  Uiso   1.00
H52    H     0.08002   0.02084   0.09735   0.00000  Uiso   1.00
H53    H     0.13382   0.05047   0.08711   0.00000  Uiso   1.00
H54    H     0.13129   0.32876   0.12282   0.00000  Uiso   1.00
H55    H     0.15143   0.07943   0.19948   0.00000  Uiso   1.00
H56    H     0.10160   0.04974   0.21445   0.00000  Uiso   1.00
N57    N     0.20537   0.11743   0.30755   0.00000  Uiso   1.00
H58    H     0.17419   0.12713   0.32297   0.00000  Uiso   1.00
H59    H     0.21070   0.07988   0.31428   0.00000  Uiso   1.00
N60    N     0.29464   0.21590   0.02579   0.00000  Uiso   1.00
H61    H     0.32581   0.20620   0.01036   0.00000  Uiso   1.00
H62    H     0.28930   0.25346   0.01905   0.00000  Uiso   1.00
C63    C     0.74857   0.06658   0.15101   0.00000  Uiso   1.00
C64    C     0.75143   0.26676   0.18233   0.00000  Uiso   1.00
C65    C     0.51722   0.07672   0.18325   0.00000  Uiso   1.00
C66    C     0.98278   0.25661   0.15008   0.00000  Uiso   1.00
C67    C     0.74773   0.01048   0.14238   0.00000  Uiso   1.00
C68    C     0.75227   0.32285   0.19095   0.00000  Uiso   1.00
C69    C     0.66467   0.16572   0.16718   0.00000  Uiso   1.00
C70    C     0.83533   0.16761   0.16616   0.00000  Uiso   1.00
C71    C     0.90819   0.21439   0.15703   0.00000  Uiso   1.00
C72    C     0.59181   0.11894   0.17631   0.00000  Uiso   1.00
C73    C     0.88345   0.16924   0.16486   0.00000  Uiso   1.00
C74    C     0.61655   0.16409   0.16848   0.00000  Uiso   1.00
C75    C     0.90435   0.12483   0.17340   0.00000  Uiso   1.00
C76    C     0.59565   0.20851   0.15994   0.00000  Uiso   1.00
C77    C     0.95054   0.12362   0.17405   0.00000  Uiso   1.00
C78    C     0.54946   0.20972   0.15929   0.00000  Uiso   1.00
C79    C     0.97648   0.16759   0.16614   0.00000  Uiso   1.00
C80    C     0.52352   0.16574   0.16719   0.00000  Uiso   1.00
C81    C     0.95555   0.21339   0.15758   0.00000  Uiso   1.00
C82    C     0.54445   0.11995   0.17575   0.00000  Uiso   1.00
C83    C     0.97100   0.07879   0.18267   0.00000  Uiso   1.00
C84    C     0.52900   0.25454   0.15066   0.00000  Uiso   1.00
Cu85   Cu    0.75501   0.17246   0.22813   0.00000  Uiso   1.00
Cu86   Cu    0.74500   0.16087   0.10521   0.00000  Uiso   1.00
H87    H     0.88427   0.09096   0.17956   0.00000  Uiso   1.00
H88    H     0.61573   0.24237   0.15377   0.00000  Uiso   1.00
H89    H     0.95105   0.04517   0.18907   0.00000  Uiso   1.00
H90    H     0.54895   0.28816   0.14426   0.00000  Uiso   1.00
H91    H     0.53079   0.04083   0.18978   0.00000  Uiso   1.00
H92    H     0.96921   0.29250   0.14355   0.00000  Uiso   1.00
H93    H     0.74329   0.31967   0.09571   0.00000  Uiso   1.00
H94    H     0.75671   0.01366   0.23763   0.00000  Uiso   1.00
N95    N     0.73745   0.15214   0.01284   0.00000  Uiso   1.00
N96    N     0.76256   0.18119   0.32049   0.00000  Uiso   1.00
O97    O     0.75326   0.09538   0.20659   0.00000  Uiso   1.00
O98    O     0.74675   0.23796   0.12674   0.00000  Uiso   1.00
O99    O     0.74480   0.08559   0.10279   0.00000  Uiso   1.00
O100   O     0.75520   0.24774   0.23055   0.00000  Uiso   1.00
O101   O     0.68936   0.17155   0.21857   0.00000  Uiso   1.00
O102   O     0.81065   0.16179   0.11476   0.00000  Uiso   1.00
O103   O     0.68090   0.16176   0.11477   0.00000  Uiso   1.00
O104   O     0.81910   0.17157   0.21857   0.00000  Uiso   1.00
C105   C     0.88411   0.26365   0.15228   0.00000  Uiso   1.00
C106   C     0.88495   0.30158   0.21518   0.00000  Uiso   1.00
H107   H     0.86618   0.28287   0.24622   0.00000  Uiso   1.00
H108   H     0.91998   0.31250   0.23598   0.00000  Uiso   1.00
H109   H     0.86871   0.00458   0.21051   0.00000  Uiso   1.00
H110   H     0.89840   0.28359   0.11889   0.00000  Uiso   1.00
H111   H     0.84857   0.25391   0.13385   0.00000  Uiso   1.00
C112   C     0.61589   0.06968   0.18105   0.00000  Uiso   1.00
C113   C     0.61505   0.03175   0.11816   0.00000  Uiso   1.00
H114   H     0.58002   0.02084   0.09735   0.00000  Uiso   1.00
H115   H     0.63382   0.05047   0.08711   0.00000  Uiso   1.00
H116   H     0.63129   0.32876   0.12282   0.00000  Uiso   1.00
H117   H     0.65143   0.07943   0.19948   0.00000  Uiso   1.00
H118   H     0.60160   0.04974   0.21445   0.00000  Uiso   1.00
N119   N     0.70537   0.11743   0.30755   0.00000  Uiso   1.00
H120   H     0.67419   0.12713   0.32297   0.00000  Uiso   1.00
H121   H     0.71070   0.07988   0.31428   0.00000  Uiso   1.00
N122   N     0.79464   0.21590   0.02579   0.00000  Uiso   1.00
H123   H     0.82581   0.20620   0.01036   0.00000  Uiso   1.00
H124   H     0.78930   0.25346   0.01905   0.00000  Uiso   1.00
C125   C     0.24857   0.39991   0.15101   0.00000  Uiso   1.00
C126   C     0.25143   0.60009   0.18233   0.00000  Uiso   1.00
C127   C     0.01722   0.41005   0.18325   0.00000  Uiso   1.00
C128   C     0.48278   0.58995   0.15008   0.00000  Uiso   1.00
C129   C     0.24773   0.34382   0.14238   0.00000  Uiso   1.00
C130   C     0.25227   0.65618   0.19095   0.00000  Uiso   1.00
C131   C     0.16467   0.49906   0.16718   0.00000  Uiso   1.00
C132   C     0.33533   0.50094   0.16616   0.00000  Uiso   1.00
C133   C     0.40819   0.54773   0.15703   0.00000  Uiso   1.00
C134   C     0.09181   0.45227   0.17631   0.00000  Uiso   1.00
C135   C     0.38345   0.50258   0.16486   0.00000  Uiso   1.00
C136   C     0.11655   0.49742   0.16848   0.00000  Uiso   1.00
C137   C     0.40435   0.45816   0.17340   0.00000  Uiso   1.00
C138   C     0.09565   0.54184   0.15994   0.00000  Uiso   1.00
C139   C     0.45054   0.45695   0.17405   0.00000  Uiso   1.00
C140   C     0.04946   0.54305   0.15929   0.00000  Uiso   1.00
C141   C     0.47648   0.50092   0.16614   0.00000  Uiso   1.00
C142   C     0.02352   0.49908   0.16719   0.00000  Uiso   1.00
C143   C     0.45555   0.54672   0.15758   0.00000  Uiso   1.00
C144   C     0.04445   0.45328   0.17575   0.00000  Uiso   1.00
C145   C     0.47100   0.41213   0.18267   0.00000  Uiso   1.00
C146   C     0.02900   0.58787   0.15066   0.00000  Uiso   1.00
Cu147  Cu    0.25501   0.50579   0.22813   0.00000  Uiso   1.00
Cu148  Cu    0.24500   0.49421   0.10521   0.00000  Uiso   1.00
H149   H     0.38427   0.42429   0.17956   0.00000  Uiso   1.00
H150   H     0.11573   0.57571   0.15377   0.00000  Uiso   1.00
H151   H     0.45105   0.37850   0.18907   0.00000  Uiso   1.00
H152   H     0.04895   0.62150   0.14426   0.00000  Uiso   1.00
H153   H     0.03079   0.37416   0.18978   0.00000  Uiso   1.00
H154   H     0.46921   0.62584   0.14355   0.00000  Uiso   1.00
H155   H     0.24329   0.65300   0.09571   0.00000  Uiso   1.00
H156   H     0.25671   0.34700   0.23763   0.00000  Uiso   1.00
N157   N     0.23745   0.48547   0.01284   0.00000  Uiso   1.00
N158   N     0.26256   0.51453   0.32049   0.00000  Uiso   1.00
O159   O     0.25326   0.42871   0.20659   0.00000  Uiso   1.00
O160   O     0.24675   0.57129   0.12674   0.00000  Uiso   1.00
O161   O     0.24480   0.41892   0.10279   0.00000  Uiso   1.00
O162   O     0.25520   0.58108   0.23055   0.00000  Uiso   1.00
O163   O     0.18936   0.50488   0.21857   0.00000  Uiso   1.00
O164   O     0.31065   0.49512   0.11476   0.00000  Uiso   1.00
O165   O     0.18090   0.49510   0.11477   0.00000  Uiso   1.00
O166   O     0.31910   0.50490   0.21857   0.00000  Uiso   1.00
C167   C     0.38411   0.59698   0.15228   0.00000  Uiso   1.00
C168   C     0.38495   0.63491   0.21518   0.00000  Uiso   1.00
H169   H     0.36618   0.61620   0.24622   0.00000  Uiso   1.00
H170   H     0.41998   0.64583   0.23598   0.00000  Uiso   1.00
H171   H     0.36871   0.33791   0.21051   0.00000  Uiso   1.00
H172   H     0.39840   0.61693   0.11889   0.00000  Uiso   1.00
H173   H     0.34857   0.58724   0.13385   0.00000  Uiso   1.00
C174   C     0.11589   0.40302   0.18105   0.00000  Uiso   1.00
C175   C     0.11505   0.36509   0.11816   0.00000  Uiso   1.00
H176   H     0.08002   0.35417   0.09735   0.00000  Uiso   1.00
H177   H     0.13382   0.38380   0.08711   0.00000  Uiso   1.00
H178   H     0.13129   0.66209   0.12282   0.00000  Uiso   1.00
H179   H     0.15143   0.41276   0.19948   0.00000  Uiso   1.00
H180   H     0.10160   0.38307   0.21445   0.00000  Uiso   1.00
N181   N     0.20537   0.45077   0.30755   0.00000  Uiso   1.00
H182   H     0.17419   0.46047   0.32297   0.00000  Uiso   1.00
H183   H     0.21070   0.41321   0.31428   0.00000  Uiso   1.00
N184   N     0.29464   0.54923   0.02579   0.00000  Uiso   1.00
H185   H     0.32581   0.53953   0.01036   0.00000  Uiso   1.00
H186   H     0.28930   0.58679   0.01905   0.00000  Uiso   1.00
C187   C     0.74857   0.39991   0.15101   0.00000  Uiso   1.00
C188   C     0.75143   0.60009   0.18233   0.00000  Uiso   1.00
C189   C     0.51722   0.41005   0.18325   0.00000  Uiso   1.00
C190   C     0.98278   0.58995   0.15008   0.00000  Uiso   1.00
C191   C     0.74773   0.34382   0.14238   0.00000  Uiso   1.00
C192   C     0.75227   0.65618   0.19095   0.00000  Uiso   1.00
C193   C     0.66467   0.49906   0.16718   0.00000  Uiso   1.00
C194   C     0.83533   0.50094   0.16616   0.00000  Uiso   1.00
C195   C     0.90819   0.54773   0.15703   0.00000  Uiso   1.00
C196   C     0.59181   0.45227   0.17631   0.00000  Uiso   1.00
C197   C     0.88345   0.50258   0.16486   0.00000  Uiso   1.00
C198   C     0.61655   0.49742   0.16848   0.00000  Uiso   1.00
C199   C     0.90435   0.45816   0.17340   0.00000  Uiso   1.00
C200   C     0.59565   0.54184   0.15994   0.00000  Uiso   1.00
C201   C     0.95054   0.45695   0.17405   0.00000  Uiso   1.00
C202   C     0.54946   0.54305   0.15929   0.00000  Uiso   1.00
C203   C     0.97648   0.50092   0.16614   0.00000  Uiso   1.00
C204   C     0.52352   0.49908   0.16719   0.00000  Uiso   1.00
C205   C     0.95555   0.54672   0.15758   0.00000  Uiso   1.00
C206   C     0.54445   0.45328   0.17575   0.00000  Uiso   1.00
C207   C     0.97100   0.41213   0.18267   0.00000  Uiso   1.00
C208   C     0.52900   0.58787   0.15066   0.00000  Uiso   1.00
Cu209  Cu    0.75501   0.50579   0.22813   0.00000  Uiso   1.00
Cu210  Cu    0.74500   0.49421   0.10521   0.00000  Uiso   1.00
H211   H     0.88427   0.42429   0.17956   0.00000  Uiso   1.00
H212   H     0.61573   0.57571   0.15377   0.00000  Uiso   1.00
H213   H     0.95105   0.37850   0.18907   0.00000  Uiso   1.00
H214   H     0.54895   0.62150   0.14426   0.00000  Uiso   1.00
H215   H     0.53079   0.37416   0.18978   0.00000  Uiso   1.00
H216   H     0.96921   0.62584   0.14355   0.00000  Uiso   1.00
H217   H     0.74329   0.65300   0.09571   0.00000  Uiso   1.00
H218   H     0.75671   0.34700   0.23763   0.00000  Uiso   1.00
N219   N     0.73745   0.48547   0.01284   0.00000  Uiso   1.00
N220   N     0.76256   0.51453   0.32049   0.00000  Uiso   1.00
O221   O     0.75326   0.42871   0.20659   0.00000  Uiso   1.00
O222   O     0.74675   0.57129   0.12674   0.00000  Uiso   1.00
O223   O     0.74480   0.41892   0.10279   0.00000  Uiso   1.00
O224   O     0.75520   0.58108   0.23055   0.00000  Uiso   1.00
O225   O     0.68936   0.50488   0.21857   0.00000  Uiso   1.00
O226   O     0.81065   0.49512   0.11476   0.00000  Uiso   1.00
O227   O     0.68090   0.49510   0.11477   0.00000  Uiso   1.00
O228   O     0.81910   0.50490   0.21857   0.00000  Uiso   1.00
C229   C     0.88411   0.59698   0.15228   0.00000  Uiso   1.00
C230   C     0.88495   0.63491   0.21518   0.00000  Uiso   1.00
H231   H     0.86618   0.61620   0.24622   0.00000  Uiso   1.00
H232   H     0.91998   0.64583   0.23598   0.00000  Uiso   1.00
H233   H     0.86871   0.33791   0.21051   0.00000  Uiso   1.00
H234   H     0.89840   0.61693   0.11889   0.00000  Uiso   1.00
H235   H     0.84857   0.58724   0.13385   0.00000  Uiso   1.00
C236   C     0.61589   0.40302   0.18105   0.00000  Uiso   1.00
C237   C     0.61505   0.36509   0.11816   0.00000  Uiso   1.00
H238   H     0.58002   0.35417   0.09735   0.00000  Uiso   1.00
H239   H     0.63382   0.38380   0.08711   0.00000  Uiso   1.00
H240   H     0.63129   0.66209   0.12282   0.00000  Uiso   1.00
H241   H     0.65143   0.41276   0.19948   0.00000  Uiso   1.00
H242   H     0.60160   0.38307   0.21445   0.00000  Uiso   1.00
N243   N     0.70537   0.45077   0.30755   0.00000  Uiso   1.00
H244   H     0.67419   0.46047   0.32297   0.00000  Uiso   1.00
H245   H     0.71070   0.41321   0.31428   0.00000  Uiso   1.00
N246   N     0.79464   0.54923   0.02579   0.00000  Uiso   1.00
H247   H     0.82581   0.53953   0.01036   0.00000  Uiso   1.00
H248   H     0.78930   0.58679   0.01905   0.00000  Uiso   1.00
C249   C     0.24857   0.73324   0.15101   0.00000  Uiso   1.00
C250   C     0.25143   0.93342   0.18233   0.00000  Uiso   1.00
C251   C     0.01722   0.74339   0.18325   0.00000  Uiso   1.00
C252   C     0.48278   0.92328   0.15008   0.00000  Uiso   1.00
C253   C     0.24773   0.67715   0.14238   0.00000  Uiso   1.00
C254   C     0.25227   0.98952   0.19095   0.00000  Uiso   1.00
C255   C     0.16467   0.83239   0.16718   0.00000  Uiso   1.00
C256   C     0.33533   0.83428   0.16616   0.00000  Uiso   1.00
C257   C     0.40819   0.88106   0.15703   0.00000  Uiso   1.00
C258   C     0.09181   0.78561   0.17631   0.00000  Uiso   1.00
C259   C     0.38345   0.83591   0.16486   0.00000  Uiso   1.00
C260   C     0.11655   0.83076   0.16848   0.00000  Uiso   1.00
C261   C     0.40435   0.79149   0.17340   0.00000  Uiso   1.00
C262   C     0.09565   0.87517   0.15994   0.00000  Uiso   1.00
C263   C     0.45054   0.79028   0.17405   0.00000  Uiso   1.00
C264   C     0.04946   0.87638   0.15929   0.00000  Uiso   1.00
C265   C     0.47648   0.83426   0.16614   0.00000  Uiso   1.00
C266   C     0.02352   0.83241   0.16719   0.00000  Uiso   1.00
C267   C     0.45555   0.88005   0.15758   0.00000  Uiso   1.00
C268   C     0.04445   0.78661   0.17575   0.00000  Uiso   1.00
C269   C     0.47100   0.74546   0.18267   0.00000  Uiso   1.00
C270   C     0.02900   0.92121   0.15066   0.00000  Uiso   1.00
Cu271  Cu    0.25501   0.83913   0.22813   0.00000  Uiso   1.00
Cu272  Cu    0.24500   0.82754   0.10521   0.00000  Uiso   1.00
H273   H     0.38427   0.75763   0.17956   0.00000  Uiso   1.00
H274   H     0.11573   0.90904   0.15377   0.00000  Uiso   1.00
H275   H     0.45105   0.71184   0.18907   0.00000  Uiso   1.00
H276   H     0.04895   0.95483   0.14426   0.00000  Uiso   1.00
H277   H     0.03079   0.70750   0.18978   0.00000  Uiso   1.00
H278   H     0.46921   0.95917   0.14355   0.00000  Uiso   1.00
H279   H     0.24329   0.98634   0.09571   0.00000  Uiso   1.00
H280   H     0.25671   0.68033   0.23763   0.00000  Uiso   1.00
N281   N     0.23745   0.81881   0.01284   0.00000  Uiso   1.00
N282   N     0.26256   0.84786   0.32049   0.00000  Uiso   1.00
O283   O     0.25326   0.76204   0.20659   0.00000  Uiso   1.00
O284   O     0.24675   0.90462   0.12674   0.00000  Uiso   1.00
O285   O     0.24480   0.75226   0.10279   0.00000  Uiso   1.00
O286   O     0.25520   0.91441   0.23055   0.00000  Uiso   1.00
O287   O     0.18936   0.83821   0.21857   0.00000  Uiso   1.00
O288   O     0.31065   0.82845   0.11476   0.00000  Uiso   1.00
O289   O     0.18090   0.82843   0.11477   0.00000  Uiso   1.00
O290   O     0.31910   0.83824   0.21857   0.00000  Uiso   1.00
C291   C     0.38411   0.93032   0.15228   0.00000  Uiso   1.00
C292   C     0.38495   0.96825   0.21518   0.00000  Uiso   1.00
H293   H     0.36618   0.94953   0.24622   0.00000  Uiso   1.00
H294   H     0.41998   0.97916   0.23598   0.00000  Uiso   1.00
H295   H     0.36871   0.67124   0.21051   0.00000  Uiso   1.00
H296   H     0.39840   0.95026   0.11889   0.00000  Uiso   1.00
H297   H     0.34857   0.92058   0.13385   0.00000  Uiso   1.00
C298   C     0.11589   0.73635   0.18105   0.00000  Uiso   1.00
C299   C     0.11505   0.69842   0.11816   0.00000  Uiso   1.00
H300   H     0.08002   0.68750   0.09735   0.00000  Uiso   1.00
H301   H     0.13382   0.71713   0.08711   0.00000  Uiso   1.00
H302   H     0.13129   0.99542   0.12282   0.00000  Uiso   1.00
H303   H     0.15143   0.74609   0.19948   0.00000  Uiso   1.00
H304   H     0.10160   0.71641   0.21445   0.00000  Uiso   1.00
N305   N     0.20537   0.78410   0.30755   0.00000  Uiso   1.00
H306   H     0.17419   0.79380   0.32297   0.00000  Uiso   1.00
H307   H     0.21070   0.74654   0.31428   0.00000  Uiso   1.00
N308   N     0.29464   0.88257   0.02579   0.00000  Uiso   1.00
H309   H     0.32581   0.87287   0.01036   0.00000  Uiso   1.00
H310   H     0.28930   0.92012   0.01905   0.00000  Uiso   1.00
C311   C     0.74857   0.73324   0.15101   0.00000  Uiso   1.00
C312   C     0.75143   0.93342   0.18233   0.00000  Uiso   1.00
C313   C     0.51722   0.74339   0.18325   0.00000  Uiso   1.00
C314   C     0.98278   0.92328   0.15008   0.00000  Uiso   1.00
C315   C     0.74773   0.67715   0.14238   0.00000  Uiso   1.00
C316   C     0.75227   0.98952   0.19095   0.00000  Uiso   1.00
C317   C     0.66467   0.83239   0.16718   0.00000  Uiso   1.00
C318   C     0.83533   0.83428   0.16616   0.00000  Uiso   1.00
C319   C     0.90819   0.88106   0.15703   0.00000  Uiso   1.00
C320   C     0.59181   0.78561   0.17631   0.00000  Uiso   1.00
C321   C     0.88345   0.83591   0.16486   0.00000  Uiso   1.00
C322   C     0.61655   0.83076   0.16848   0.00000  Uiso   1.00
C323   C     0.90435   0.79149   0.17340   0.00000  Uiso   1.00
C324   C     0.59565   0.87517   0.15994   0.00000  Uiso   1.00
C325   C     0.95054   0.79028   0.17405   0.00000  Uiso   1.00
C326   C     0.54946   0.87638   0.15929   0.00000  Uiso   1.00
C327   C     0.97648   0.83426   0.16614   0.00000  Uiso   1.00
C328   C     0.52352   0.83241   0.16719   0.00000  Uiso   1.00
C329   C     0.95555   0.88005   0.15758   0.00000  Uiso   1.00
C330   C     0.54445   0.78661   0.17575   0.00000  Uiso   1.00
C331   C     0.97100   0.74546   0.18267   0.00000  Uiso   1.00
C332   C     0.52900   0.92121   0.15066   0.00000  Uiso   1.00
Cu333  Cu    0.75501   0.83913   0.22813   0.00000  Uiso   1.00
Cu334  Cu    0.74500   0.82754   0.10521   0.00000  Uiso   1.00
H335   H     0.88427   0.75763   0.17956   0.00000  Uiso   1.00
H336   H     0.61573   0.90904   0.15377   0.00000  Uiso   1.00
H337   H     0.95105   0.71184   0.18907   0.00000  Uiso   1.00
H338   H     0.54895   0.95483   0.14426   0.00000  Uiso   1.00
H339   H     0.53079   0.70750   0.18978   0.00000  Uiso   1.00
H340   H     0.96921   0.95917   0.14355   0.00000  Uiso   1.00
H341   H     0.74329   0.98634   0.09571   0.00000  Uiso   1.00
H342   H     0.75671   0.68033   0.23763   0.00000  Uiso   1.00
N343   N     0.73745   0.81881   0.01284   0.00000  Uiso   1.00
N344   N     0.76256   0.84786   0.32049   0.00000  Uiso   1.00
O345   O     0.75326   0.76204   0.20659   0.00000  Uiso   1.00
O346   O     0.74675   0.90462   0.12674   0.00000  Uiso   1.00
O347   O     0.74480   0.75226   0.10279   0.00000  Uiso   1.00
O348   O     0.75520   0.91441   0.23055   0.00000  Uiso   1.00
O349   O     0.68936   0.83821   0.21857   0.00000  Uiso   1.00
O350   O     0.81065   0.82845   0.11476   0.00000  Uiso   1.00
O351   O     0.68090   0.82843   0.11477   0.00000  Uiso   1.00
O352   O     0.81910   0.83824   0.21857   0.00000  Uiso   1.00
C353   C     0.88411   0.93032   0.15228   0.00000  Uiso   1.00
C354   C     0.88495   0.96825   0.21518   0.00000  Uiso   1.00
H355   H     0.86618   0.94953   0.24622   0.00000  Uiso   1.00
H356   H     0.91998   0.97916   0.23598   0.00000  Uiso   1.00
H357   H     0.86871   0.67124   0.21051   0.00000  Uiso   1.00
H358   H     0.89840   0.95026   0.11889   0.00000  Uiso   1.00
H359   H     0.84857   0.92058   0.13385   0.00000  Uiso   1.00
C360   C     0.61589   0.73635   0.18105   0.00000  Uiso   1.00
C361   C     0.61505   0.69842   0.11816   0.00000  Uiso   1.00
H362   H     0.58002   0.68750   0.09735   0.00000  Uiso   1.00
H363   H     0.63382   0.71713   0.08711   0.00000  Uiso   1.00
H364   H     0.63129   0.99542   0.12282   0.00000  Uiso   1.00
H365   H     0.65143   0.74609   0.19948   0.00000  Uiso   1.00
H366   H     0.60160   0.71641   0.21445   0.00000  Uiso   1.00
N367   N     0.70537   0.78410   0.30755   0.00000  Uiso   1.00
H368   H     0.67419   0.79380   0.32297   0.00000  Uiso   1.00
H369   H     0.71070   0.74654   0.31428   0.00000  Uiso   1.00
N370   N     0.79464   0.88257   0.02579   0.00000  Uiso   1.00
H371   H     0.82581   0.87287   0.01036   0.00000  Uiso   1.00
H372   H     0.78930   0.92012   0.01905   0.00000  Uiso   1.00
C373   C     0.24857   0.06658   0.48434   0.00000  Uiso   1.00
C374   C     0.25143   0.26676   0.51566   0.00000  Uiso   1.00
C375   C     0.01722   0.07672   0.51658   0.00000  Uiso   1.00
C376   C     0.48278   0.25661   0.48342   0.00000  Uiso   1.00
C377   C     0.24773   0.01048   0.47572   0.00000  Uiso   1.00
C378   C     0.25227   0.32285   0.52428   0.00000  Uiso   1.00
C379   C     0.16467   0.16572   0.50051   0.00000  Uiso   1.00
C380   C     0.33533   0.16761   0.49949   0.00000  Uiso   1.00
C381   C     0.40819   0.21439   0.49036   0.00000  Uiso   1.00
C382   C     0.09181   0.11894   0.50964   0.00000  Uiso   1.00
C383   C     0.38345   0.16924   0.49819   0.00000  Uiso   1.00
C384   C     0.11655   0.16409   0.50181   0.00000  Uiso   1.00
C385   C     0.40435   0.12483   0.50673   0.00000  Uiso   1.00
C386   C     0.09565   0.20851   0.49327   0.00000  Uiso   1.00
C387   C     0.45054   0.12362   0.50738   0.00000  Uiso   1.00
C388   C     0.04946   0.20972   0.49262   0.00000  Uiso   1.00
C389   C     0.47648   0.16759   0.49947   0.00000  Uiso   1.00
C390   C     0.02352   0.16574   0.50053   0.00000  Uiso   1.00
C391   C     0.45555   0.21339   0.49092   0.00000  Uiso   1.00
C392   C     0.04445   0.11995   0.50909   0.00000  Uiso   1.00
C393   C     0.47100   0.07879   0.51601   0.00000  Uiso   1.00
C394   C     0.02900   0.25454   0.48399   0.00000  Uiso   1.00
Cu395  Cu    0.25501   0.17246   0.56146   0.00000  Uiso   1.00
Cu396  Cu    0.24500   0.16087   0.43854   0.00000  Uiso   1.00
H397   H     0.38427   0.09096   0.51289   0.00000  Uiso   1.00
H398   H     0.11573   0.24237   0.48711   0.00000  Uiso   1.00
H399   H     0.45105   0.04517   0.52241   0.00000  Uiso   1.00
H400   H     0.04895   0.28816   0.47759   0.00000  Uiso   1.00
H401   H     0.03079   0.04083   0.52312   0.00000  Uiso   1.00
H402   H     0.46921   0.29250   0.47688   0.00000  Uiso   1.00
H403   H     0.24329   0.31967   0.42904   0.00000  Uiso   1.00
H404   H     0.25671   0.01366   0.57096   0.00000  Uiso   1.00
N405   N     0.23745   0.15214   0.34617   0.00000  Uiso   1.00
N406   N     0.26256   0.18119   0.65383   0.00000  Uiso   1.00
O407   O     0.25326   0.09538   0.53992   0.00000  Uiso   1.00
O408   O     0.24675   0.23796   0.46008   0.00000  Uiso   1.00
O409   O     0.24480   0.08559   0.43612   0.00000  Uiso   1.00
O410   O     0.25520   0.24774   0.56388   0.00000  Uiso   1.00
O411   O     0.18936   0.17155   0.55191   0.00000  Uiso   1.00
O412   O     0.31065   0.16179   0.44809   0.00000  Uiso   1.00
O413   O     0.18090   0.16176   0.44810   0.00000  Uiso   1.00
O414   O     0.31910   0.17157   0.55190   0.00000  Uiso   1.00
C415   C     0.38411   0.26365   0.48561   0.00000  Uiso   1.00
C416   C     0.38495   0.30158   0.54851   0.00000  Uiso   1.00
H417   H     0.36618   0.28287   0.57955   0.00000  Uiso   1.00
H418   H     0.41998   0.31250   0.56931   0.00000  Uiso   1.00
H419   H     0.36871   0.00458   0.54385   0.00000  Uiso   1.00
H420   H     0.39840   0.28359   0.45222   0.00000  Uiso   1.00
H421   H     0.34857   0.25391   0.46718   0.00000  Uiso   1.00
C422   C     0.11589   0.06968   0.51439   0.00000  Uiso   1.00
C423   C     0.11505   0.03175   0.45149   0.00000  Uiso   1.00
H424   H     0.08002   0.02084   0.43069   0.00000  Uiso   1.00
H425   H     0.13382   0.05047   0.42045   0.00000  Uiso   1.00
H426   H     0.13129   0.32876   0.45615   0.00000  Uiso   1.00
H427   H     0.15143   0.07943   0.53282   0.00000  Uiso   1.00
H428   H     0.10160   0.04974   0.54778   0.00000  Uiso   1.00
N429   N     0.20537   0.11743   0.64088   0.00000  Uiso   1.00
H430   H     0.17419   0.12713   0.65630   0.00000  Uiso   1.00
H431   H     0.21070   0.07988   0.64761   0.00000  Uiso   1.00
N432   N     0.29464   0.21590   0.35912   0.00000  Uiso   1.00
H433   H     0.32581   0.20620   0.34370   0.00000  Uiso   1.00
H434   H     0.28930   0.25346   0.35239   0.00000  Uiso   1.00
C435   C     0.74857   0.06658   0.48434   0.00000  Uiso   1.00
C436   C     0.75143   0.26676   0.51566   0.00000  Uiso   1.00
C437   C     0.51722   0.07672   0.51658   0.00000  Uiso   1.00
C438   C     0.98278   0.25661   0.48342   0.00000  Uiso   1.00
C439   C     0.74773   0.01048   0.47572   0.00000  Uiso   1.00
C440   C     0.75227   0.32285   0.52428   0.00000  Uiso   1.00
C441   C     0.66467   0.16572   0.50051   0.00000  Uiso   1.00
C442   C     0.83533   0.16761   0.49949   0.00000  Uiso   1.00
C443   C     0.90819   0.21439   0.49036   0.00000  Uiso   1.00
C444   C     0.59181   0.11894   0.50964   0.00000  Uiso   1.00
C445   C     0.88345   0.16924   0.49819   0.00000  Uiso   1.00
C446   C     0.61655   0.16409   0.50181   0.00000  Uiso   1.00
C447   C     0.90435   0.12483   0.50673   0.00000  Uiso   1.00
C448   C     0.59565   0.20851   0.49327   0.00000  Uiso   1.00
C449   C     0.95054   0.12362   0.50738   0.00000  Uiso   1.00
C450   C     0.54946   0.20972   0.49262   0.00000  Uiso   1.00
C451   C     0.97648   0.16759   0.49947   0.00000  Uiso   1.00
C452   C     0.52352   0.16574   0.50053   0.00000  Uiso   1.00
C453   C     0.95555   0.21339   0.49092   0.00000  Uiso   1.00
C454   C     0.54445   0.11995   0.50909   0.00000  Uiso   1.00
C455   C     0.97100   0.07879   0.51601   0.00000  Uiso   1.00
C456   C     0.52900   0.25454   0.48399   0.00000  Uiso   1.00
Cu457  Cu    0.75501   0.17246   0.56146   0.00000  Uiso   1.00
Cu458  Cu    0.74500   0.16087   0.43854   0.00000  Uiso   1.00
H459   H     0.88427   0.09096   0.51289   0.00000  Uiso   1.00
H460   H     0.61573   0.24237   0.48711   0.00000  Uiso   1.00
H461   H     0.95105   0.04517   0.52241   0.00000  Uiso   1.00
H462   H     0.54895   0.28816   0.47759   0.00000  Uiso   1.00
H463   H     0.53079   0.04083   0.52312   0.00000  Uiso   1.00
H464   H     0.96921   0.29250   0.47688   0.00000  Uiso   1.00
H465   H     0.74329   0.31967   0.42904   0.00000  Uiso   1.00
H466   H     0.75671   0.01366   0.57096   0.00000  Uiso   1.00
N467   N     0.73745   0.15214   0.34617   0.00000  Uiso   1.00
N468   N     0.76256   0.18119   0.65383   0.00000  Uiso   1.00
O469   O     0.75326   0.09538   0.53992   0.00000  Uiso   1.00
O470   O     0.74675   0.23796   0.46008   0.00000  Uiso   1.00
O471   O     0.74480   0.08559   0.43612   0.00000  Uiso   1.00
O472   O     0.75520   0.24774   0.56388   0.00000  Uiso   1.00
O473   O     0.68936   0.17155   0.55191   0.00000  Uiso   1.00
O474   O     0.81065   0.16179   0.44809   0.00000  Uiso   1.00
O475   O     0.68090   0.16176   0.44810   0.00000  Uiso   1.00
O476   O     0.81910   0.17157   0.55190   0.00000  Uiso   1.00
C477   C     0.88411   0.26365   0.48561   0.00000  Uiso   1.00
C478   C     0.88495   0.30158   0.54851   0.00000  Uiso   1.00
H479   H     0.86618   0.28287   0.57955   0.00000  Uiso   1.00
H480   H     0.91998   0.31250   0.56931   0.00000  Uiso   1.00
H481   H     0.86871   0.00458   0.54385   0.00000  Uiso   1.00
H482   H     0.89840   0.28359   0.45222   0.00000  Uiso   1.00
H483   H     0.84857   0.25391   0.46718   0.00000  Uiso   1.00
C484   C     0.61589   0.06968   0.51439   0.00000  Uiso   1.00
C485   C     0.61505   0.03175   0.45149   0.00000  Uiso   1.00
H486   H     0.58002   0.02084   0.43069   0.00000  Uiso   1.00
H487   H     0.63382   0.05047   0.42045   0.00000  Uiso   1.00
H488   H     0.63129   0.32876   0.45615   0.00000  Uiso   1.00
H489   H     0.65143   0.07943   0.53282   0.00000  Uiso   1.00
H490   H     0.60160   0.04974   0.54778   0.00000  Uiso   1.00
N491   N     0.70537   0.11743   0.64088   0.00000  Uiso   1.00
H492   H     0.67419   0.12713   0.65630   0.00000  Uiso   1.00
H493   H     0.71070   0.07988   0.64761   0.00000  Uiso   1.00
N494   N     0.79464   0.21590   0.35912   0.00000  Uiso   1.00
H495   H     0.82581   0.20620   0.34370   0.00000  Uiso   1.00
H496   H     0.78930   0.25346   0.35239   0.00000  Uiso   1.00
C497   C     0.24857   0.39991   0.48434   0.00000  Uiso   1.00
C498   C     0.25143   0.60009   0.51566   0.00000  Uiso   1.00
C499   C     0.01722   0.41005   0.51658   0.00000  Uiso   1.00
C500   C     0.48278   0.58995   0.48342   0.00000  Uiso   1.00
C501   C     0.24773   0.34382   0.47572   0.00000  Uiso   1.00
C502   C     0.25227   0.65618   0.52428   0.00000  Uiso   1.00
C503   C     0.16467   0.49906   0.50051   0.00000  Uiso   1.00
C504   C     0.33533   0.50094   0.49949   0.00000  Uiso   1.00
C505   C     0.40819   0.54773   0.49036   0.00000  Uiso   1.00
C506   C     0.09181   0.45227   0.50964   0.00000  Uiso   1.00
C507   C     0.38345   0.50258   0.49819   0.00000  Uiso   1.00
C508   C     0.11655   0.49742   0.50181   0.00000  Uiso   1.00
C509   C     0.40435   0.45816   0.50673   0.00000  Uiso   1.00
C510   C     0.09565   0.54184   0.49327   0.00000  Uiso   1.00
C511   C     0.45054   0.45695   0.50738   0.00000  Uiso   1.00
C512   C     0.04946   0.54305   0.49262   0.00000  Uiso   1.00
C513   C     0.47648   0.50092   0.49947   0.00000  Uiso   1.00
C514   C     0.02352   0.49908   0.50053   0.00000  Uiso   1.00
C515   C     0.45555   0.54672   0.49092   0.00000  Uiso   1.00
C516   C     0.04445   0.45328   0.50909   0.00000  Uiso   1.00
C517   C     0.47100   0.41213   0.51601   0.00000  Uiso   1.00
C518   C     0.02900   0.58787   0.48399   0.00000  Uiso   1.00
Cu519  Cu    0.25501   0.50579   0.56146   0.00000  Uiso   1.00
Cu520  Cu    0.24500   0.49421   0.43854   0.00000  Uiso   1.00
H521   H     0.38427   0.42429   0.51289   0.00000  Uiso   1.00
H522   H     0.11573   0.57571   0.48711   0.00000  Uiso   1.00
H523   H     0.45105   0.37850   0.52241   0.00000  Uiso   1.00
H524   H     0.04895   0.62150   0.47759   0.00000  Uiso   1.00
H525   H     0.03079   0.37416   0.52312   0.00000  Uiso   1.00
H526   H     0.46921   0.62584   0.47688   0.00000  Uiso   1.00
H527   H     0.24329   0.65300   0.42904   0.00000  Uiso   1.00
H528   H     0.25671   0.34700   0.57096   0.00000  Uiso   1.00
N529   N     0.23745   0.48547   0.34617   0.00000  Uiso   1.00
N530   N     0.26256   0.51453   0.65383   0.00000  Uiso   1.00
O531   O     0.25326   0.42871   0.53992   0.00000  Uiso   1.00
O532   O     0.24675   0.57129   0.46008   0.00000  Uiso   1.00
O533   O     0.24480   0.41892   0.43612   0.00000  Uiso   1.00
O534   O     0.25520   0.58108   0.56388   0.00000  Uiso   1.00
O535   O     0.18936   0.50488   0.55191   0.00000  Uiso   1.00
O536   O     0.31065   0.49512   0.44809   0.00000  Uiso   1.00
O537   O     0.18090   0.49510   0.44810   0.00000  Uiso   1.00
O538   O     0.31910   0.50490   0.55190   0.00000  Uiso   1.00
C539   C     0.38411   0.59698   0.48561   0.00000  Uiso   1.00
C540   C     0.38495   0.63491   0.54851   0.00000  Uiso   1.00
H541   H     0.36618   0.61620   0.57955   0.00000  Uiso   1.00
H542   H     0.41998   0.64583   0.56931   0.00000  Uiso   1.00
H543   H     0.36871   0.33791   0.54385   0.00000  Uiso   1.00
H544   H     0.39840   0.61693   0.45222   0.00000  Uiso   1.00
H545   H     0.34857   0.58724   0.46718   0.00000  Uiso   1.00
C546   C     0.11589   0.40302   0.51439   0.00000  Uiso   1.00
C547   C     0.11505   0.36509   0.45149   0.00000  Uiso   1.00
H548   H     0.08002   0.35417   0.43069   0.00000  Uiso   1.00
H549   H     0.13382   0.38380   0.42045   0.00000  Uiso   1.00
H550   H     0.13129   0.66209   0.45615   0.00000  Uiso   1.00
H551   H     0.15143   0.41276   0.53282   0.00000  Uiso   1.00
H552   H     0.10160   0.38307   0.54778   0.00000  Uiso   1.00
N553   N     0.20537   0.45077   0.64088   0.00000  Uiso   1.00
H554   H     0.17419   0.46047   0.65630   0.00000  Uiso   1.00
H555   H     0.21070   0.41321   0.64761   0.00000  Uiso   1.00
N556   N     0.29464   0.54923   0.35912   0.00000  Uiso   1.00
H557   H     0.32581   0.53953   0.34370   0.00000  Uiso   1.00
H558   H     0.28930   0.58679   0.35239   0.00000  Uiso   1.00
C559   C     0.74857   0.39991   0.48434   0.00000  Uiso   1.00
C560   C     0.75143   0.60009   0.51566   0.00000  Uiso   1.00
C561   C     0.51722   0.41005   0.51658   0.00000  Uiso   1.00
C562   C     0.98278   0.58995   0.48342   0.00000  Uiso   1.00
C563   C     0.74773   0.34382   0.47572   0.00000  Uiso   1.00
C564   C     0.75227   0.65618   0.52428   0.00000  Uiso   1.00
C565   C     0.66467   0.49906   0.50051   0.00000  Uiso   1.00
C566   C     0.83533   0.50094   0.49949   0.00000  Uiso   1.00
C567   C     0.90819   0.54773   0.49036   0.00000  Uiso   1.00
C568   C     0.59181   0.45227   0.50964   0.00000  Uiso   1.00
C569   C     0.88345   0.50258   0.49819   0.00000  Uiso   1.00
C570   C     0.61655   0.49742   0.50181   0.00000  Uiso   1.00
C571   C     0.90435   0.45816   0.50673   0.00000  Uiso   1.00
C572   C     0.59565   0.54184   0.49327   0.00000  Uiso   1.00
C573   C     0.95054   0.45695   0.50738   0.00000  Uiso   1.00
C574   C     0.54946   0.54305   0.49262   0.00000  Uiso   1.00
C575   C     0.97648   0.50092   0.49947   0.00000  Uiso   1.00
C576   C     0.52352   0.49908   0.50053   0.00000  Uiso   1.00
C577   C     0.95555   0.54672   0.49092   0.00000  Uiso   1.00
C578   C     0.54445   0.45328   0.50909   0.00000  Uiso   1.00
C579   C     0.97100   0.41213   0.51601   0.00000  Uiso   1.00
C580   C     0.52900   0.58787   0.48399   0.00000  Uiso   1.00
Cu581  Cu    0.75501   0.50579   0.56146   0.00000  Uiso   1.00
Cu582  Cu    0.74500   0.49421   0.43854   0.00000  Uiso   1.00
H583   H     0.88427   0.42429   0.51289   0.00000  Uiso   1.00
H584   H     0.61573   0.57571   0.48711   0.00000  Uiso   1.00
H585   H     0.95105   0.37850   0.52241   0.00000  Uiso   1.00
H586   H     0.54895   0.62150   0.47759   0.00000  Uiso   1.00
H587   H     0.53079   0.37416   0.52312   0.00000  Uiso   1.00
H588   H     0.96921   0.62584   0.47688   0.00000  Uiso   1.00
H589   H     0.74329   0.65300   0.42904   0.00000  Uiso   1.00
H590   H     0.75671   0.34700   0.57096   0.00000  Uiso   1.00
N591   N     0.73745   0.48547   0.34617   0.00000  Uiso   1.00
N592   N     0.76256   0.51453   0.65383   0.00000  Uiso   1.00
O593   O     0.75326   0.42871   0.53992   0.00000  Uiso   1.00
O594   O     0.74675   0.57129   0.46008   0.00000  Uiso   1.00
O595   O     0.74480   0.41892   0.43612   0.00000  Uiso   1.00
O596   O     0.75520   0.58108   0.56388   0.00000  Uiso   1.00
O597   O     0.68936   0.50488   0.55191   0.00000  Uiso   1.00
O598   O     0.81065   0.49512   0.44809   0.00000  Uiso   1.00
O599   O     0.68090   0.49510   0.44810   0.00000  Uiso   1.00
O600   O     0.81910   0.50490   0.55190   0.00000  Uiso   1.00
C601   C     0.88411   0.59698   0.48561   0.00000  Uiso   1.00
C602   C     0.88495   0.63491   0.54851   0.00000  Uiso   1.00
H603   H     0.86618   0.61620   0.57955   0.00000  Uiso   1.00
H604   H     0.91998   0.64583   0.56931   0.00000  Uiso   1.00
H605   H     0.86871   0.33791   0.54385   0.00000  Uiso   1.00
H606   H     0.89840   0.61693   0.45222   0.00000  Uiso   1.00
H607   H     0.84857   0.58724   0.46718   0.00000  Uiso   1.00
C608   C     0.61589   0.40302   0.51439   0.00000  Uiso   1.00
C609   C     0.61505   0.36509   0.45149   0.00000  Uiso   1.00
H610   H     0.58002   0.35417   0.43069   0.00000  Uiso   1.00
H611   H     0.63382   0.38380   0.42045   0.00000  Uiso   1.00
H612   H     0.63129   0.66209   0.45615   0.00000  Uiso   1.00
H613   H     0.65143   0.41276   0.53282   0.00000  Uiso   1.00
H614   H     0.60160   0.38307   0.54778   0.00000  Uiso   1.00
N615   N     0.70537   0.45077   0.64088   0.00000  Uiso   1.00
H616   H     0.67419   0.46047   0.65630   0.00000  Uiso   1.00
H617   H     0.71070   0.41321   0.64761   0.00000  Uiso   1.00
N618   N     0.79464   0.54923   0.35912   0.00000  Uiso   1.00
H619   H     0.82581   0.53953   0.34370   0.00000  Uiso   1.00
H620   H     0.78930   0.58679   0.35239   0.00000  Uiso   1.00
C621   C     0.24857   0.73324   0.48434   0.00000  Uiso   1.00
C622   C     0.25143   0.93342   0.51566   0.00000  Uiso   1.00
C623   C     0.01722   0.74339   0.51658   0.00000  Uiso   1.00
C624   C     0.48278   0.92328   0.48342   0.00000  Uiso   1.00
C625   C     0.24773   0.67715   0.47572   0.00000  Uiso   1.00
C626   C     0.25227   0.98952   0.52428   0.00000  Uiso   1.00
C627   C     0.16467   0.83239   0.50051   0.00000  Uiso   1.00
C628   C     0.33533   0.83428   0.49949   0.00000  Uiso   1.00
C629   C     0.40819   0.88106   0.49036   0.00000  Uiso   1.00
C630   C     0.09181   0.78561   0.50964   0.00000  Uiso   1.00
C631   C     0.38345   0.83591   0.49819   0.00000  Uiso   1.00
C632   C     0.11655   0.83076   0.50181   0.00000  Uiso   1.00
C633   C     0.40435   0.79149   0.50673   0.00000  Uiso   1.00
C634   C     0.09565   0.87517   0.49327   0.00000  Uiso   1.00
C635   C     0.45054   0.79028   0.50738   0.00000  Uiso   1.00
C636   C     0.04946   0.87638   0.49262   0.00000  Uiso   1.00
C637   C     0.47648   0.83426   0.49947   0.00000  Uiso   1.00
C638   C     0.02352   0.83241   0.50053   0.00000  Uiso   1.00
C639   C     0.45555   0.88005   0.49092   0.00000  Uiso   1.00
C640   C     0.04445   0.78661   0.50909   0.00000  Uiso   1.00
C641   C     0.47100   0.74546   0.51601   0.00000  Uiso   1.00
C642   C     0.02900   0.92121   0.48399   0.00000  Uiso   1.00
Cu643  Cu    0.25501   0.83913   0.56146   0.00000  Uiso   1.00
Cu644  Cu    0.24500   0.82754   0.43854   0.00000  Uiso   1.00
H645   H     0.38427   0.75763   0.51289   0.00000  Uiso   1.00
H646   H     0.11573   0.90904   0.48711   0.00000  Uiso   1.00
H647   H     0.45105   0.71184   0.52241   0.00000  Uiso   1.00
H648   H     0.04895   0.95483   0.47759   0.00000  Uiso   1.00
H649   H     0.03079   0.70750   0.52312   0.00000  Uiso   1.00
H650   H     0.46921   0.95917   0.47688   0.00000  Uiso   1.00
H651   H     0.24329   0.98634   0.42904   0.00000  Uiso   1.00
H652   H     0.25671   0.68033   0.57096   0.00000  Uiso   1.00
N653   N     0.23745   0.81881   0.34617   0.00000  Uiso   1.00
N654   N     0.26256   0.84786   0.65383   0.00000  Uiso   1.00
O655   O     0.25326   0.76204   0.53992   0.00000  Uiso   1.00
O656   O     0.24675   0.90462   0.46008   0.00000  Uiso   1.00
O657   O     0.24480   0.75226   0.43612   0.00000  Uiso   1.00
O658   O     0.25520   0.91441   0.56388   0.00000  Uiso   1.00
O659   O     0.18936   0.83821   0.55191   0.00000  Uiso   1.00
O660   O     0.31065   0.82845   0.44809   0.00000  Uiso   1.00
O661   O     0.18090   0.82843   0.44810   0.00000  Uiso   1.00
O662   O     0.31910   0.83824   0.55190   0.00000  Uiso   1.00
C663   C     0.38411   0.93032   0.48561   0.00000  Uiso   1.00
C664   C     0.38495   0.96825   0.54851   0.00000  Uiso   1.00
H665   H     0.36618   0.94953   0.57955   0.00000  Uiso   1.00
H666   H     0.41998   0.97916   0.56931   0.00000  Uiso   1.00
H667   H     0.36871   0.67124   0.54385   0.00000  Uiso   1.00
H668   H     0.39840   0.95026   0.45222   0.00000  Uiso   1.00
H669   H     0.34857   0.92058   0.46718   0.00000  Uiso   1.00
C670   C     0.11589   0.73635   0.51439   0.00000  Uiso   1.00
C671   C     0.11505   0.69842   0.45149   0.00000  Uiso   1.00
H672   H     0.08002   0.68750   0.43069   0.00000  Uiso   1.00
H673   H     0.13382   0.71713   0.42045   0.00000  Uiso   1.00
H674   H     0.13129   0.99542   0.45615   0.00000  Uiso   1.00
H675   H     0.15143   0.74609   0.53282   0.00000  Uiso   1.00
H676   H     0.10160   0.71641   0.54778   0.00000  Uiso   1.00
N677   N     0.20537   0.78410   0.64088   0.00000  Uiso   1.00
H678   H     0.17419   0.79380   0.65630   0.00000  Uiso   1.00
H679   H     0.21070   0.74654   0.64761   0.00000  Uiso   1.00
N680   N     0.29464   0.88257   0.35912   0.00000  Uiso   1.00
H681   H     0.32581   0.87287   0.34370   0.00000  Uiso   1.00
H682   H     0.28930   0.92012   0.35239   0.00000  Uiso   1.00
C683   C     0.74857   0.73324   0.48434   0.00000  Uiso   1.00
C684   C     0.75143   0.93342   0.51566   0.00000  Uiso   1.00
C685   C     0.51722   0.74339   0.51658   0.00000  Uiso   1.00
C686   C     0.98278   0.92328   0.48342   0.00000  Uiso   1.00
C687   C     0.74773   0.67715   0.47572   0.00000  Uiso   1.00
C688   C     0.75227   0.98952   0.52428   0.00000  Uiso   1.00
C689   C     0.66467   0.83239   0.50051   0.00000  Uiso   1.00
C690   C     0.83533   0.83428   0.49949   0.00000  Uiso   1.00
C691   C     0.90819   0.88106   0.49036   0.00000  Uiso   1.00
C692   C     0.59181   0.78561   0.50964   0.00000  Uiso   1.00
C693   C     0.88345   0.83591   0.49819   0.00000  Uiso   1.00
C694   C     0.61655   0.83076   0.50181   0.00000  Uiso   1.00
C695   C     0.90435   0.79149   0.50673   0.00000  Uiso   1.00
C696   C     0.59565   0.87517   0.49327   0.00000  Uiso   1.00
C697   C     0.95054   0.79028   0.50738   0.00000  Uiso   1.00
C698   C     0.54946   0.87638   0.49262   0.00000  Uiso   1.00
C699   C     0.97648   0.83426   0.49947   0.00000  Uiso   1.00
C700   C     0.52352   0.83241   0.50053   0.00000  Uiso   1.00
C701   C     0.95555   0.88005   0.49092   0.00000  Uiso   1.00
C702   C     0.54445   0.78661   0.50909   0.00000  Uiso   1.00
C703   C     0.97100   0.74546   0.51601   0.00000  Uiso   1.00
C704   C     0.52900   0.92121   0.48399   0.00000  Uiso   1.00
Cu705  Cu    0.75501   0.83913   0.56146   0.00000  Uiso   1.00
Cu706  Cu    0.74500   0.82754   0.43854   0.00000  Uiso   1.00
H707   H     0.88427   0.75763   0.51289   0.00000  Uiso   1.00
H708   H     0.61573   0.90904   0.48711   0.00000  Uiso   1.00
H709   H     0.95105   0.71184   0.52241   0.00000  Uiso   1.00
H710   H     0.54895   0.95483   0.47759   0.00000  Uiso   1.00
H711   H     0.53079   0.70750   0.52312   0.00000  Uiso   1.00
H712   H     0.96921   0.95917   0.47688   0.00000  Uiso   1.00
H713   H     0.74329   0.98634   0.42904   0.00000  Uiso   1.00
H714   H     0.75671   0.68033   0.57096   0.00000  Uiso   1.00
N715   N     0.73745   0.81881   0.34617   0.00000  Uiso   1.00
N716   N     0.76256   0.84786   0.65383   0.00000  Uiso   1.00
O717   O     0.75326   0.76204   0.53992   0.00000  Uiso   1.00
O718   O     0.74675   0.90462   0.46008   0.00000  Uiso   1.00
O719   O     0.74480   0.75226   0.43612   0.00000  Uiso   1.00
O720   O     0.75520   0.91441   0.56388   0.00000  Uiso   1.00
O721   O     0.68936   0.83821   0.55191   0.00000  Uiso   1.00
O722   O     0.81065   0.82845   0.44809   0.00000  Uiso   1.00
O723   O     0.68090   0.82843   0.44810   0.00000  Uiso   1.00
O724   O     0.81910   0.83824   0.55190   0.00000  Uiso   1.00
C725   C     0.88411   0.93032   0.48561   0.00000  Uiso   1.00
C726   C     0.88495   0.96825   0.54851   0.00000  Uiso   1.00
H727   H     0.86618   0.94953   0.57955   0.00000  Uiso   1.00
H728   H     0.91998   0.97916   0.56931   0.00000  Uiso   1.00
H729   H     0.86871   0.67124   0.54385   0.00000  Uiso   1.00
H730   H     0.89840   0.95026   0.45222   0.00000  Uiso   1.00
H731   H     0.84857   0.92058   0.46718   0.00000  Uiso   1.00
C732   C     0.61589   0.73635   0.51439   0.00000  Uiso   1.00
C733   C     0.61505   0.69842   0.45149   0.00000  Uiso   1.00
H734   H     0.58002   0.68750   0.43069   0.00000  Uiso   1.00
H735   H     0.63382   0.71713   0.42045   0.00000  Uiso   1.00
H736   H     0.63129   0.99542   0.45615   0.00000  Uiso   1.00
H737   H     0.65143   0.74609   0.53282   0.00000  Uiso   1.00
H738   H     0.60160   0.71641   0.54778   0.00000  Uiso   1.00
N739   N     0.70537   0.78410   0.64088   0.00000  Uiso   1.00
H740   H     0.67419   0.79380   0.65630   0.00000  Uiso   1.00
H741   H     0.71070   0.74654   0.64761   0.00000  Uiso   1.00
N742   N     0.79464   0.88257   0.35912   0.00000  Uiso   1.00
H743   H     0.82581   0.87287   0.34370   0.00000  Uiso   1.00
H744   H     0.78930   0.92012   0.35239   0.00000  Uiso   1.00
C745   C     0.24857   0.06658   0.81767   0.00000  Uiso   1.00
C746   C     0.25143   0.26676   0.84899   0.00000  Uiso   1.00
C747   C     0.01722   0.07672   0.84992   0.00000  Uiso   1.00
C748   C     0.48278   0.25661   0.81675   0.00000  Uiso   1.00
C749   C     0.24773   0.01048   0.80905   0.00000  Uiso   1.00
C750   C     0.25227   0.32285   0.85762   0.00000  Uiso   1.00
C751   C     0.16467   0.16572   0.83384   0.00000  Uiso   1.00
C752   C     0.33533   0.16761   0.83282   0.00000  Uiso   1.00
C753   C     0.40819   0.21439   0.82369   0.00000  Uiso   1.00
C754   C     0.09181   0.11894   0.84297   0.00000  Uiso   1.00
C755   C     0.38345   0.16924   0.83152   0.00000  Uiso   1.00
C756   C     0.11655   0.16409   0.83514   0.00000  Uiso   1.00
C757   C     0.40435   0.12483   0.84006   0.00000  Uiso   1.00
C758   C     0.09565   0.20851   0.82660   0.00000  Uiso   1.00
C759   C     0.45054   0.12362   0.84071   0.00000  Uiso   1.00
C760   C     0.04946   0.20972   0.82595   0.00000  Uiso   1.00
C761   C     0.47648   0.16759   0.83281   0.00000  Uiso   1.00
C762   C     0.02352   0.16574   0.83386   0.00000  Uiso   1.00
C763   C     0.45555   0.21339   0.82425   0.00000  Uiso   1.00
C764   C     0.04445   0.11995   0.84242   0.00000  Uiso   1.00
C765   C     0.47100   0.07879   0.84934   0.00000  Uiso   1.00
C766   C     0.02900   0.25454   0.81733   0.00000  Uiso   1.00
Cu767  Cu    0.25501   0.17246   0.89479   0.00000  Uiso   1.00
Cu768  Cu    0.24500   0.16087   0.77187   0.00000  Uiso   1.00
H769   H     0.38427   0.09096   0.84623   0.00000  Uiso   1.00
H770   H     0.11573   0.24237   0.82044   0.00000  Uiso   1.00
H771   H     0.45105   0.04517   0.85574   0.00000  Uiso   1.00
H772   H     0.04895   0.28816   0.81093   0.00000  Uiso   1.00
H773   H     0.03079   0.04083   0.85645   0.00000  Uiso   1.00
H774   H     0.46921   0.29250   0.81022   0.00000  Uiso   1.00
H775   H     0.24329   0.31967   0.76237   0.00000  Uiso   1.00
H776   H     0.25671   0.01366   0.90429   0.00000  Uiso   1.00
N777   N     0.23745   0.15214   0.67951   0.00000  Uiso   1.00
N778   N     0.26256   0.18119   0.98716   0.00000  Uiso   1.00
O779   O     0.25326   0.09538   0.87326   0.00000  Uiso   1.00
O780   O     0.24675   0.23796   0.79341   0.00000  Uiso   1.00
O781   O     0.24480   0.08559   0.76945   0.00000  Uiso   1.00
O782   O     0.25520   0.24774   0.89721   0.00000  Uiso   1.00
O783   O     0.18936   0.17155   0.88524   0.00000  Uiso   1.00
O784   O     0.31065   0.16179   0.78143   0.00000  Uiso   1.00
O785   O     0.18090   0.16176   0.78143   0.00000  Uiso   1.00
O786   O     0.31910   0.17157   0.88523   0.00000  Uiso   1.00
C787   C     0.38411   0.26365   0.81895   0.00000  Uiso   1.00
C788   C     0.38495   0.30158   0.88184   0.00000  Uiso   1.00
H789   H     0.36618   0.28287   0.91289   0.00000  Uiso   1.00
H790   H     0.41998   0.31250   0.90265   0.00000  Uiso   1.00
H791   H     0.36871   0.00458   0.87718   0.00000  Uiso   1.00
H792   H     0.39840   0.28359   0.78555   0.00000  Uiso   1.00
H793   H     0.34857   0.25391   0.80052   0.00000  Uiso   1.00
C794   C     0.11589   0.06968   0.84772   0.00000  Uiso   1.00
C795   C     0.11505   0.03175   0.78483   0.00000  Uiso   1.00
H796   H     0.08002   0.02084   0.76402   0.00000  Uiso   1.00
H797   H     0.13382   0.05047   0.75378   0.00000  Uiso   1.00
H798   H     0.13129   0.32876   0.78949   0.00000  Uiso   1.00
H799   H     0.15143   0.07943   0.86615   0.00000  Uiso   1.00
H800   H     0.10160   0.04974   0.88111   0.00000  Uiso   1.00
N801   N     0.20537   0.11743   0.97422   0.00000  Uiso   1.00
H802   H     0.17419   0.12713   0.98964   0.00000  Uiso   1.00
H803   H     0.21070   0.07988   0.98095   0.00000  Uiso   1.00
N804   N     0.29464   0.21590   0.69245   0.00000  Uiso   1.00
H805   H     0.32581   0.20620   0.67703   0.00000  Uiso   1.00
H806   H     0.28930   0.25346   0.68572   0.00000  Uiso   1.00
C807   C     0.74857   0.06658   0.81767   0.00000  Uiso   1.00
C808   C     0.75143   0.26676   0.84899   0.00000  Uiso   1.00
C809   C     0.51722   0.07672   0.84992   0.00000  Uiso   1.00
C810   C     0.98278   0.25661   0.81675   0.00000  Uiso   1.00
C811   C     0.74773   0.01048   0.80905   0.00000  Uiso   1.00
C812   C     0.75227   0.32285   0.85762   0.00000  Uiso   1.00
C813   C     0.66467   0.16572   0.83384   0.00000  Uiso   1.00
C814   C     0.83533   0.16761   0.83282   0.00000  Uiso   1.00
C815   C     0.90819   0.21439   0.82369   0.00000  Uiso   1.00
C816   C     0.59181   0.11894   0.84297   0.00000  Uiso   1.00
C817   C     0.88345   0.16924   0.83152   0.00000  Uiso   1.00
C818   C     0.61655   0.16409   0.83514   0.00000  Uiso   1.00
C819   C     0.90435   0.12483   0.84006   0.00000  Uiso   1.00
C820   C     0.59565   0.20851   0.82660   0.00000  Uiso   1.00
C821   C     0.95054   0.12362   0.84071   0.00000  Uiso   1.00
C822   C     0.54946   0.20972   0.82595   0.00000  Uiso   1.00
C823   C     0.97648   0.16759   0.83281   0.00000  Uiso   1.00
C824   C     0.52352   0.16574   0.83386   0.00000  Uiso   1.00
C825   C     0.95555   0.21339   0.82425   0.00000  Uiso   1.00
C826   C     0.54445   0.11995   0.84242   0.00000  Uiso   1.00
C827   C     0.97100   0.07879   0.84934   0.00000  Uiso   1.00
C828   C     0.52900   0.25454   0.81733   0.00000  Uiso   1.00
Cu829  Cu    0.75501   0.17246   0.89479   0.00000  Uiso   1.00
Cu830  Cu    0.74500   0.16087   0.77187   0.00000  Uiso   1.00
H831   H     0.88427   0.09096   0.84623   0.00000  Uiso   1.00
H832   H     0.61573   0.24237   0.82044   0.00000  Uiso   1.00
H833   H     0.95105   0.04517   0.85574   0.00000  Uiso   1.00
H834   H     0.54895   0.28816   0.81093   0.00000  Uiso   1.00
H835   H     0.53079   0.04083   0.85645   0.00000  Uiso   1.00
H836   H     0.96921   0.29250   0.81022   0.00000  Uiso   1.00
H837   H     0.74329   0.31967   0.76237   0.00000  Uiso   1.00
H838   H     0.75671   0.01366   0.90429   0.00000  Uiso   1.00
N839   N     0.73745   0.15214   0.67951   0.00000  Uiso   1.00
N840   N     0.76256   0.18119   0.98716   0.00000  Uiso   1.00
O841   O     0.75326   0.09538   0.87326   0.00000  Uiso   1.00
O842   O     0.74675   0.23796   0.79341   0.00000  Uiso   1.00
O843   O     0.74480   0.08559   0.76945   0.00000  Uiso   1.00
O844   O     0.75520   0.24774   0.89721   0.00000  Uiso   1.00
O845   O     0.68936   0.17155   0.88524   0.00000  Uiso   1.00
O846   O     0.81065   0.16179   0.78143   0.00000  Uiso   1.00
O847   O     0.68090   0.16176   0.78143   0.00000  Uiso   1.00
O848   O     0.81910   0.17157   0.88523   0.00000  Uiso   1.00
C849   C     0.88411   0.26365   0.81895   0.00000  Uiso   1.00
C850   C     0.88495   0.30158   0.88184   0.00000  Uiso   1.00
H851   H     0.86618   0.28287   0.91289   0.00000  Uiso   1.00
H852   H     0.91998   0.31250   0.90265   0.00000  Uiso   1.00
H853   H     0.86871   0.00458   0.87718   0.00000  Uiso   1.00
H854   H     0.89840   0.28359   0.78555   0.00000  Uiso   1.00
H855   H     0.84857   0.25391   0.80052   0.00000  Uiso   1.00
C856   C     0.61589   0.06968   0.84772   0.00000  Uiso   1.00
C857   C     0.61505   0.03175   0.78483   0.00000  Uiso   1.00
H858   H     0.58002   0.02084   0.76402   0.00000  Uiso   1.00
H859   H     0.63382   0.05047   0.75378   0.00000  Uiso   1.00
H860   H     0.63129   0.32876   0.78949   0.00000  Uiso   1.00
H861   H     0.65143   0.07943   0.86615   0.00000  Uiso   1.00
H862   H     0.60160   0.04974   0.88111   0.00000  Uiso   1.00
N863   N     0.70537   0.11743   0.97422   0.00000  Uiso   1.00
H864   H     0.67419   0.12713   0.98964   0.00000  Uiso   1.00
H865   H     0.71070   0.07988   0.98095   0.00000  Uiso   1.00
N866   N     0.79464   0.21590   0.69245   0.00000  Uiso   1.00
H867   H     0.82581   0.20620   0.67703   0.00000  Uiso   1.00
H868   H     0.78930   0.25346   0.68572   0.00000  Uiso   1.00
C869   C     0.24857   0.39991   0.81767   0.00000  Uiso   1.00
C870   C     0.25143   0.60009   0.84899   0.00000  Uiso   1.00
C871   C     0.01722   0.41005   0.84992   0.00000  Uiso   1.00
C872   C     0.48278   0.58995   0.81675   0.00000  Uiso   1.00
C873   C     0.24773   0.34382   0.80905   0.00000  Uiso   1.00
C874   C     0.25227   0.65618   0.85762   0.00000  Uiso   1.00
C875   C     0.16467   0.49906   0.83384   0.00000  Uiso   1.00
C876   C     0.33533   0.50094   0.83282   0.00000  Uiso   1.00
C877   C     0.40819   0.54773   0.82369   0.00000  Uiso   1.00
C878   C     0.09181   0.45227   0.84297   0.00000  Uiso   1.00
C879   C     0.38345   0.50258   0.83152   0.00000  Uiso   1.00
C880   C     0.11655   0.49742   0.83514   0.00000  Uiso   1.00
C881   C     0.40435   0.45816   0.84006   0.00000  Uiso   1.00
C882   C     0.09565   0.54184   0.82660   0.00000  Uiso   1.00
C883   C     0.45054   0.45695   0.84071   0.00000  Uiso   1.00
C884   C     0.04946   0.54305   0.82595   0.00000  Uiso   1.00
C885   C     0.47648   0.50092   0.83281   0.00000  Uiso   1.00
C886   C     0.02352   0.49908   0.83386   0.00000  Uiso   1.00
C887   C     0.45555   0.54672   0.82425   0.00000  Uiso   1.00
C888   C     0.04445   0.45328   0.84242   0.00000  Uiso   1.00
C889   C     0.47100   0.41213   0.84934   0.00000  Uiso   1.00
C890   C     0.02900   0.58787   0.81733   0.00000  Uiso   1.00
Cu891  Cu    0.25501   0.50579   0.89479   0.00000  Uiso   1.00
Cu892  Cu    0.24500   0.49421   0.77187   0.00000  Uiso   1.00
H893   H     0.38427   0.42429   0.84623   0.00000  Uiso   1.00
H894   H     0.11573   0.57571   0.82044   0.00000  Uiso   1.00
H895   H     0.45105   0.37850   0.85574   0.00000  Uiso   1.00
H896   H     0.04895   0.62150   0.81093   0.00000  Uiso   1.00
H897   H     0.03079   0.37416   0.85645   0.00000  Uiso   1.00
H898   H     0.46921   0.62584   0.81022   0.00000  Uiso   1.00
H899   H     0.24329   0.65300   0.76237   0.00000  Uiso   1.00
H900   H     0.25671   0.34700   0.90429   0.00000  Uiso   1.00
N901   N     0.23745   0.48547   0.67951   0.00000  Uiso   1.00
N902   N     0.26256   0.51453   0.98716   0.00000  Uiso   1.00
O903   O     0.25326   0.42871   0.87326   0.00000  Uiso   1.00
O904   O     0.24675   0.57129   0.79341   0.00000  Uiso   1.00
O905   O     0.24480   0.41892   0.76945   0.00000  Uiso   1.00
O906   O     0.25520   0.58108   0.89721   0.00000  Uiso   1.00
O907   O     0.18936   0.50488   0.88524   0.00000  Uiso   1.00
O908   O     0.31065   0.49512   0.78143   0.00000  Uiso   1.00
O909   O     0.18090   0.49510   0.78143   0.00000  Uiso   1.00
O910   O     0.31910   0.50490   0.88523   0.00000  Uiso   1.00
C911   C     0.38411   0.59698   0.81895   0.00000  Uiso   1.00
C912   C     0.38495   0.63491   0.88184   0.00000  Uiso   1.00
H913   H     0.36618   0.61620   0.91289   0.00000  Uiso   1.00
H914   H     0.41998   0.64583   0.90265   0.00000  Uiso   1.00
H915   H     0.36871   0.33791   0.87718   0.00000  Uiso   1.00
H916   H     0.39840   0.61693   0.78555   0.00000  Uiso   1.00
H917   H     0.34857   0.58724   0.80052   0.00000  Uiso   1.00
C918   C     0.11589   0.40302   0.84772   0.00000  Uiso   1.00
C919   C     0.11505   0.36509   0.78483   0.00000  Uiso   1.00
H920   H     0.08002   0.35417   0.76402   0.00000  Uiso   1.00
H921   H     0.13382   0.38380   0.75378   0.00000  Uiso   1.00
H922   H     0.13129   0.66209   0.78949   0.00000  Uiso   1.00
H923   H     0.15143   0.41276   0.86615   0.00000  Uiso   1.00
H924   H     0.10160   0.38307   0.88111   0.00000  Uiso   1.00
N925   N     0.20537   0.45077   0.97422   0.00000  Uiso   1.00
H926   H     0.17419   0.46047   0.98964   0.00000  Uiso   1.00
H927   H     0.21070   0.41321   0.98095   0.00000  Uiso   1.00
N928   N     0.29464   0.54923   0.69245   0.00000  Uiso   1.00
H929   H     0.32581   0.53953   0.67703   0.00000  Uiso   1.00
H930   H     0.28930   0.58679   0.68572   0.00000  Uiso   1.00
C931   C     0.74857   0.39991   0.81767   0.00000  Uiso   1.00
C932   C     0.75143   0.60009   0.84899   0.00000  Uiso   1.00
C933   C     0.51722   0.41005   0.84992   0.00000  Uiso   1.00
C934   C     0.98278   0.58995   0.81675   0.00000  Uiso   1.00
C935   C     0.74773   0.34382   0.80905   0.00000  Uiso   1.00
C936   C     0.75227   0.65618   0.85762   0.00000  Uiso   1.00
C937   C     0.66467   0.49906   0.83384   0.00000  Uiso   1.00
C938   C     0.83533   0.50094   0.83282   0.00000  Uiso   1.00
C939   C     0.90819   0.54773   0.82369   0.00000  Uiso   1.00
C940   C     0.59181   0.45227   0.84297   0.00000  Uiso   1.00
C941   C     0.88345   0.50258   0.83152   0.00000  Uiso   1.00
C942   C     0.61655   0.49742   0.83514   0.00000  Uiso   1.00
C943   C     0.90435   0.45816   0.84006   0.00000  Uiso   1.00
C944   C     0.59565   0.54184   0.82660   0.00000  Uiso   1.00
C945   C     0.95054   0.45695   0.84071   0.00000  Uiso   1.00
C946   C     0.54946   0.54305   0.82595   0.00000  Uiso   1.00
C947   C     0.97648   0.50092   0.83281   0.00000  Uiso   1.00
C948   C     0.52352   0.49908   0.83386   0.00000  Uiso   1.00
C949   C     0.95555   0.54672   0.82425   0.00000  Uiso   1.00
C950   C     0.54445   0.45328   0.84242   0.00000  Uiso   1.00
C951   C     0.97100   0.41213   0.84934   0.00000  Uiso   1.00
C952   C     0.52900   0.58787   0.81733   0.00000  Uiso   1.00
Cu953  Cu    0.75501   0.50579   0.89479   0.00000  Uiso   1.00
Cu954  Cu    0.74500   0.49421   0.77187   0.00000  Uiso   1.00
H955   H     0.88427   0.42429   0.84623   0.00000  Uiso   1.00
H956   H     0.61573   0.57571   0.82044   0.00000  Uiso   1.00
H957   H     0.95105   0.37850   0.85574   0.00000  Uiso   1.00
H958   H     0.54895   0.62150   0.81093   0.00000  Uiso   1.00
H959   H     0.53079   0.37416   0.85645   0.00000  Uiso   1.00
H960   H     0.96921   0.62584   0.81022   0.00000  Uiso   1.00
H961   H     0.74329   0.65300   0.76237   0.00000  Uiso   1.00
H962   H     0.75671   0.34700   0.90429   0.00000  Uiso   1.00
N963   N     0.73745   0.48547   0.67951   0.00000  Uiso   1.00
N964   N     0.76256   0.51453   0.98716   0.00000  Uiso   1.00
O965   O     0.75326   0.42871   0.87326   0.00000  Uiso   1.00
O966   O     0.74675   0.57129   0.79341   0.00000  Uiso   1.00
O967   O     0.74480   0.41892   0.76945   0.00000  Uiso   1.00
O968   O     0.75520   0.58108   0.89721   0.00000  Uiso   1.00
O969   O     0.68936   0.50488   0.88524   0.00000  Uiso   1.00
O970   O     0.81065   0.49512   0.78143   0.00000  Uiso   1.00
O971   O     0.68090   0.49510   0.78143   0.00000  Uiso   1.00
O972   O     0.81910   0.50490   0.88523   0.00000  Uiso   1.00
C973   C     0.88411   0.59698   0.81895   0.00000  Uiso   1.00
C974   C     0.88495   0.63491   0.88184   0.00000  Uiso   1.00
H975   H     0.86618   0.61620   0.91289   0.00000  Uiso   1.00
H976   H     0.91998   0.64583   0.90265   0.00000  Uiso   1.00
H977   H     0.86871   0.33791   0.87718   0.00000  Uiso   1.00
H978   H     0.89840   0.61693   0.78555   0.00000  Uiso   1.00
H979   H     0.84857   0.58724   0.80052   0.00000  Uiso   1.00
C980   C     0.61589   0.40302   0.84772   0.00000  Uiso   1.00
C981   C     0.61505   0.36509   0.78483   0.00000  Uiso   1.00
H982   H     0.58002   0.35417   0.76402   0.00000  Uiso   1.00
H983   H     0.63382   0.38380   0.75378   0.00000  Uiso   1.00
H984   H     0.63129   0.66209   0.78949   0.00000  Uiso   1.00
H985   H     0.65143   0.41276   0.86615   0.00000  Uiso   1.00
H986   H     0.60160   0.38307   0.88111   0.00000  Uiso   1.00
N987   N     0.70537   0.45077   0.97422   0.00000  Uiso   1.00
H988   H     0.67419   0.46047   0.98964   0.00000  Uiso   1.00
H989   H     0.71070   0.41321   0.98095   0.00000  Uiso   1.00
N990   N     0.79464   0.54923   0.69245   0.00000  Uiso   1.00
H991   H     0.82581   0.53953   0.67703   0.00000  Uiso   1.00
H992   H     0.78930   0.58679   0.68572   0.00000  Uiso   1.00
C993   C     0.24857   0.73324   0.81767   0.00000  Uiso   1.00
C994   C     0.25143   0.93342   0.84899   0.00000  Uiso   1.00
C995   C     0.01722   0.74339   0.84992   0.00000  Uiso   1.00
C996   C     0.48278   0.92328   0.81675   0.00000  Uiso   1.00
C997   C     0.24773   0.67715   0.80905   0.00000  Uiso   1.00
C998   C     0.25227   0.98952   0.85762   0.00000  Uiso   1.00
C999   C     0.16467   0.83239   0.83384   0.00000  Uiso   1.00
C1000  C     0.33533   0.83428   0.83282   0.00000  Uiso   1.00
C1001  C     0.40819   0.88106   0.82369   0.00000  Uiso   1.00
C1002  C     0.09181   0.78561   0.84297   0.00000  Uiso   1.00
C1003  C     0.38345   0.83591   0.83152   0.00000  Uiso   1.00
C1004  C     0.11655   0.83076   0.83514   0.00000  Uiso   1.00
C1005  C     0.40435   0.79149   0.84006   0.00000  Uiso   1.00
C1006  C     0.09565   0.87517   0.82660   0.00000  Uiso   1.00
C1007  C     0.45054   0.79028   0.84071   0.00000  Uiso   1.00
C1008  C     0.04946   0.87638   0.82595   0.00000  Uiso   1.00
C1009  C     0.47648   0.83426   0.83281   0.00000  Uiso   1.00
C1010  C     0.02352   0.83241   0.83386   0.00000  Uiso   1.00
C1011  C     0.45555   0.88005   0.82425   0.00000  Uiso   1.00
C1012  C     0.04445   0.78661   0.84242   0.00000  Uiso   1.00
C1013  C     0.47100   0.74546   0.84934   0.00000  Uiso   1.00
C1014  C     0.02900   0.92121   0.81733   0.00000  Uiso   1.00
Cu1015 Cu    0.25501   0.83913   0.89479   0.00000  Uiso   1.00
Cu1016 Cu    0.24500   0.82754   0.77187   0.00000  Uiso   1.00
H1017  H     0.38427   0.75763   0.84623   0.00000  Uiso   1.00
H1018  H     0.11573   0.90904   0.82044   0.00000  Uiso   1.00
H1019  H     0.45105   0.71184   0.85574   0.00000  Uiso   1.00
H1020  H     0.04895   0.95483   0.81093   0.00000  Uiso   1.00
H1021  H     0.03079   0.70750   0.85645   0.00000  Uiso   1.00
H1022  H     0.46921   0.95917   0.81022   0.00000  Uiso   1.00
H1023  H     0.24329   0.98634   0.76237   0.00000  Uiso   1.00
H1024  H     0.25671   0.68033   0.90429   0.00000  Uiso   1.00
N1025  N     0.23745   0.81881   0.67951   0.00000  Uiso   1.00
N1026  N     0.26256   0.84786   0.98716   0.00000  Uiso   1.00
O1027  O     0.25326   0.76204   0.87326   0.00000  Uiso   1.00
O1028  O     0.24675   0.90462   0.79341   0.00000  Uiso   1.00
O1029  O     0.24480   0.75226   0.76945   0.00000  Uiso   1.00
O1030  O     0.25520   0.91441   0.89721   0.00000  Uiso   1.00
O1031  O     0.18936   0.83821   0.88524   0.00000  Uiso   1.00
O1032  O     0.31065   0.82845   0.78143   0.00000  Uiso   1.00
O1033  O     0.18090   0.82843   0.78143   0.00000  Uiso   1.00
O1034  O     0.31910   0.83824   0.88523   0.00000  Uiso   1.00
C1035  C     0.38411   0.93032   0.81895   0.00000  Uiso   1.00
C1036  C     0.38495   0.96825   0.88184   0.00000  Uiso   1.00
H1037  H     0.36618   0.94953   0.91289   0.00000  Uiso   1.00
H1038  H     0.41998   0.97916   0.90265   0.00000  Uiso   1.00
H1039  H     0.36871   0.67124   0.87718   0.00000  Uiso   1.00
H1040  H     0.39840   0.95026   0.78555   0.00000  Uiso   1.00
H1041  H     0.34857   0.92058   0.80052   0.00000  Uiso   1.00
C1042  C     0.11589   0.73635   0.84772   0.00000  Uiso   1.00
C1043  C     0.11505   0.69842   0.78483   0.00000  Uiso   1.00
H1044  H     0.08002   0.68750   0.76402   0.00000  Uiso   1.00
H1045  H     0.13382   0.71713   0.75378   0.00000  Uiso   1.00
H1046  H     0.13129   0.99542   0.78949   0.00000  Uiso   1.00
H1047  H     0.15143   0.74609   0.86615   0.00000  Uiso   1.00
H1048  H     0.10160   0.71641   0.88111   0.00000  Uiso   1.00
N1049  N     0.20537   0.78410   0.97422   0.00000  Uiso   1.00
H1050  H     0.17419   0.79380   0.98964   0.00000  Uiso   1.00
H1051  H     0.21070   0.74654   0.98095   0.00000  Uiso   1.00
N1052  N     0.29464   0.88257   0.69245   0.00000  Uiso   1.00
H1053  H     0.32581   0.87287   0.67703   0.00000  Uiso   1.00
H1054  H     0.28930   0.92012   0.68572   0.00000  Uiso   1.00
C1055  C     0.74857   0.73324   0.81767   0.00000  Uiso   1.00
C1056  C     0.75143   0.93342   0.84899   0.00000  Uiso   1.00
C1057  C     0.51722   0.74339   0.84992   0.00000  Uiso   1.00
C1058  C     0.98278   0.92328   0.81675   0.00000  Uiso   1.00
C1059  C     0.74773   0.67715   0.80905   0.00000  Uiso   1.00
C1060  C     0.75227   0.98952   0.85762   0.00000  Uiso   1.00
C1061  C     0.66467   0.83239   0.83384   0.00000  Uiso   1.00
C1062  C     0.83533   0.83428   0.83282   0.00000  Uiso   1.00
C1063  C     0.90819   0.88106   0.82369   0.00000  Uiso   1.00
C1064  C     0.59181   0.78561   0.84297   0.00000  Uiso   1.00
C1065  C     0.88345   0.83591   0.83152   0.00000  Uiso   1.00
C1066  C     0.61655   0.83076   0.83514   0.00000  Uiso   1.00
C1067  C     0.90435   0.79149   0.84006   0.00000  Uiso   1.00
C1068  C     0.59565   0.87517   0.82660   0.00000  Uiso   1.00
C1069  C     0.95054   0.79028   0.84071   0.00000  Uiso   1.00
C1070  C     0.54946   0.87638   0.82595   0.00000  Uiso   1.00
C1071  C     0.97648   0.83426   0.83281   0.00000  Uiso   1.00
C1072  C     0.52352   0.83241   0.83386   0.00000  Uiso   1.00
C1073  C     0.95555   0.88005   0.82425   0.00000  Uiso   1.00
C1074  C     0.54445   0.78661   0.84242   0.00000  Uiso   1.00
C1075  C     0.97100   0.74546   0.84934   0.00000  Uiso   1.00
C1076  C     0.52900   0.92121   0.81733   0.00000  Uiso   1.00
Cu1077 Cu    0.75501   0.83913   0.89479   0.00000  Uiso   1.00
Cu1078 Cu    0.74500   0.82754   0.77187   0.00000  Uiso   1.00
H1079  H     0.88427   0.75763   0.84623   0.00000  Uiso   1.00
H1080  H     0.61573   0.90904   0.82044   0.00000  Uiso   1.00
H1081  H     0.95105   0.71184   0.85574   0.00000  Uiso   1.00
H1082  H     0.54895   0.95483   0.81093   0.00000  Uiso   1.00
H1083  H     0.53079   0.70750   0.85645   0.00000  Uiso   1.00
H1084  H     0.96921   0.95917   0.81022   0.00000  Uiso   1.00
H1085  H     0.74329   0.98634   0.76237   0.00000  Uiso   1.00
H1086  H     0.75671   0.68033   0.90429   0.00000  Uiso   1.00
N1087  N     0.73745   0.81881   0.67951   0.00000  Uiso   1.00
N1088  N     0.76256   0.84786   0.98716   0.00000  Uiso   1.00
O1089  O     0.75326   0.76204   0.87326   0.00000  Uiso   1.00
O1090  O     0.74675   0.90462   0.79341   0.00000  Uiso   1.00
O1091  O     0.74480   0.75226   0.76945   0.00000  Uiso   1.00
O1092  O     0.75520   0.91441   0.89721   0.00000  Uiso   1.00
O1093  O     0.68936   0.83821   0.88524   0.00000  Uiso   1.00
O1094  O     0.81065   0.82845   0.78143   0.00000  Uiso   1.00
O1095  O     0.68090   0.82843   0.78143   0.00000  Uiso   1.00
O1096  O     0.81910   0.83824   0.88523   0.00000  Uiso   1.00
C1097  C     0.88411   0.93032   0.81895   0.00000  Uiso   1.00
C1098  C     0.88495   0.96825   0.88184   0.00000  Uiso   1.00
H1099  H     0.86618   0.94953   0.91289   0.00000  Uiso   1.00
H1100  H     0.91998   0.97916   0.90265   0.00000  Uiso   1.00
H1101  H     0.86871   0.67124   0.87718   0.00000  Uiso   1.00
H1102  H     0.89840   0.95026   0.78555   0.00000  Uiso   1.00
H1103  H     0.84857   0.92058   0.80052   0.00000  Uiso   1.00
C1104  C     0.61589   0.73635   0.84772   0.00000  Uiso   1.00
C1105  C     0.61505   0.69842   0.78483   0.00000  Uiso   1.00
H1106  H     0.58002   0.68750   0.76402   0.00000  Uiso   1.00
H1107  H     0.63382   0.71713   0.75378   0.00000  Uiso   1.00
H1108  H     0.63129   0.99542   0.78949   0.00000  Uiso   1.00
H1109  H     0.65143   0.74609   0.86615   0.00000  Uiso   1.00
H1110  H     0.60160   0.71641   0.88111   0.00000  Uiso   1.00
N1111  N     0.70537   0.78410   0.97422   0.00000  Uiso   1.00
H1112  H     0.67419   0.79380   0.98964   0.00000  Uiso   1.00
H1113  H     0.71070   0.74654   0.98095   0.00000  Uiso   1.00
N1114  N     0.79464   0.88257   0.69245   0.00000  Uiso   1.00
H1115  H     0.82581   0.87287   0.67703   0.00000  Uiso   1.00
H1116  H     0.78930   0.92012   0.68572   0.00000  Uiso   1.00
loop_
_geom_bond_atom_site_label_1
_geom_bond_atom_site_label_2
_geom_bond_distance
_geom_bond_site_symmetry_2
_ccdc_geom_bond_type
C1     O37     1.293   .     A
C1     C5      1.431   .     S
C1     O35     1.295   .     A
C2     O38     1.293   .     A
C2     O36     1.295   .     A
C2     C6      1.431   .     S
C3     C20     1.408   .     A
C3     H29     1.076   .     S
C3     C83     1.387   1_455 S
C4     H30     1.076   .     S
C4     C19     1.408   .     A
C4     C84     1.387   .     S
C5     C254    1.332   1_545 S
C5     H279    1.087   1_545 S
C6     C129    1.332   .     S
C6     H156    1.087   .     S
C7     O41     1.295   .     A
C7     C12     1.443   .     S
C7     O39     1.296   .     A
C8     C11     1.443   .     S
C8     O42     1.295   .     A
C8     O40     1.296   .     A
C9     C11     1.413   .     A
C9     C43     1.527   .     S
C9     C19     1.419   .     A
C10    C12     1.413   .     A
C10    C50     1.527   .     S
C10    C20     1.419   .     A
C11    C13     1.390   .     A
C12    C14     1.390   .     A
C13    C15     1.384   .     A
C13    H25     1.086   .     S
C14    C16     1.384   .     A
C14    H26     1.086   .     S
C15    C21     1.393   .     A
C15    C17     1.407   .     A
C16    C22     1.393   .     A
C16    C18     1.407   .     A
C17    C19     1.422   .     A
C17    C80     1.411   .     S
C18    C20     1.422   .     A
C18    C79     1.411   1_455 S
C21    H27     1.080   .     S
C21    C65     1.387   .     S
C22    H28     1.080   .     S
C22    C66     1.387   1_455 S
Cu23   Cu24    2.703   .     S
Cu23   O38     1.953   .     S
Cu23   O35     1.955   .     S
Cu23   N34     2.031   .     S
Cu23   O42     1.949   .     S
Cu23   O39     1.960   .     S
Cu24   O37     1.953   .     S
Cu24   O41     1.949   .     S
Cu24   O36     1.955   .     S
Cu24   O40     1.960   .     S
Cu24   N33     2.031   .     S
H31    C129    1.087   .     S
H32    C254    1.087   1_545 S
N33    N778    1.299   1_554 S
N33    N801    1.384   1_554 S
N34    N405    1.299   .     S
N34    N432    1.384   .     S
C43    H48     1.108   .     S
C43    C44     1.526   .     S
C43    H49     1.107   .     S
C44    H45     1.111   .     S
C44    H46     1.110   .     S
C44    H171    1.110   .     S
H47    C292    1.110   1_545 S
C50    H55     1.107   .     S
C50    C51     1.526   .     S
C50    H56     1.108   .     S
C51    H52     1.110   .     S
C51    H53     1.111   .     S
C51    H302    1.110   1_545 S
H54    C175    1.110   .     S
N57    H58     1.044   .     S
N57    H59     1.044   .     S
N57    N405    1.384   .     S
N60    H62     1.044   .     S
N60    H61     1.044   .     S
N60    N778    1.384   1_554 S
C63    O99     1.293   .     A
C63    C67     1.431   .     S
C63    O97     1.295   .     A
C64    O100    1.293   .     A
C64    O98     1.295   .     A
C64    C68     1.431   .     S
C65    C82     1.408   .     A
C65    H91     1.076   .     S
C66    H92     1.076   .     S
C66    C81     1.408   .     A
C66    C22     1.387   1_655 S
C67    C316    1.332   1_545 S
C67    H341    1.087   1_545 S
C68    C191    1.332   .     S
C68    H218    1.087   .     S
C69    O103    1.295   .     A
C69    C74     1.443   .     S
C69    O101    1.296   .     A
C70    C73     1.443   .     S
C70    O104    1.295   .     A
C70    O102    1.296   .     A
C71    C73     1.413   .     A
C71    C105    1.527   .     S
C71    C81     1.419   .     A
C72    C74     1.413   .     A
C72    C112    1.527   .     S
C72    C82     1.419   .     A
C73    C75     1.390   .     A
C74    C76     1.390   .     A
C75    C77     1.384   .     A
C75    H87     1.086   .     S
C76    C78     1.384   .     A
C76    H88     1.086   .     S
C77    C83     1.393   .     A
C77    C79     1.407   .     A
C78    C84     1.393   .     A
C78    C80     1.407   .     A
C79    C81     1.422   .     A
C79    C18     1.411   1_655 S
C80    C82     1.422   .     A
C83    H89     1.080   .     S
C83    C3      1.387   1_655 S
C84    H90     1.080   .     S
Cu85   Cu86    2.703   .     S
Cu85   O100    1.953   .     S
Cu85   O97     1.955   .     S
Cu85   N96     2.031   .     S
Cu85   O104    1.949   .     S
Cu85   O101    1.960   .     S
Cu86   O99     1.953   .     S
Cu86   O103    1.949   .     S
Cu86   O98     1.955   .     S
Cu86   O102    1.960   .     S
Cu86   N95     2.031   .     S
H93    C191    1.087   .     S
H94    C316    1.087   1_545 S
N95    N840    1.299   1_554 S
N95    N863    1.384   1_554 S
N96    N467    1.299   .     S
N96    N494    1.384   .     S
C105   H110    1.108   .     S
C105   C106    1.526   .     S
C105   H111    1.107   .     S
C106   H107    1.111   .     S
C106   H108    1.110   .     S
C106   H233    1.110   .     S
H109   C354    1.110   1_545 S
C112   H117    1.107   .     S
C112   C113    1.526   .     S
C112   H118    1.108   .     S
C113   H114    1.110   .     S
C113   H115    1.111   .     S
C113   H364    1.110   1_545 S
H116   C237    1.110   .     S
N119   H120    1.044   .     S
N119   H121    1.044   .     S
N119   N467    1.384   .     S
N122   H124    1.044   .     S
N122   H123    1.044   .     S
N122   N840    1.384   1_554 S
C125   O161    1.293   .     A
C125   C129    1.431   .     S
C125   O159    1.295   .     A
C126   O162    1.293   .     A
C126   O160    1.295   .     A
C126   C130    1.431   .     S
C127   C144    1.408   .     A
C127   H153    1.076   .     S
C127   C207    1.387   1_455 S
C128   H154    1.076   .     S
C128   C143    1.408   .     A
C128   C208    1.387   .     S
C130   C253    1.332   .     S
C130   H280    1.087   .     S
C131   O165    1.295   .     A
C131   C136    1.443   .     S
C131   O163    1.296   .     A
C132   C135    1.443   .     S
C132   O166    1.295   .     A
C132   O164    1.296   .     A
C133   C135    1.413   .     A
C133   C167    1.527   .     S
C133   C143    1.419   .     A
C134   C136    1.413   .     A
C134   C174    1.527   .     S
C134   C144    1.419   .     A
C135   C137    1.390   .     A
C136   C138    1.390   .     A
C137   C139    1.384   .     A
C137   H149    1.086   .     S
C138   C140    1.384   .     A
C138   H150    1.086   .     S
C139   C145    1.393   .     A
C139   C141    1.407   .     A
C140   C146    1.393   .     A
C140   C142    1.407   .     A
C141   C143    1.422   .     A
C141   C204    1.411   .     S
C142   C144    1.422   .     A
C142   C203    1.411   1_455 S
C145   H151    1.080   .     S
C145   C189    1.387   .     S
C146   H152    1.080   .     S
C146   C190    1.387   1_455 S
Cu147  Cu148   2.703   .     S
Cu147  O162    1.953   .     S
Cu147  O159    1.955   .     S
Cu147  N158    2.031   .     S
Cu147  O166    1.949   .     S
Cu147  O163    1.960   .     S
Cu148  O161    1.953   .     S
Cu148  O165    1.949   .     S
Cu148  O160    1.955   .     S
Cu148  O164    1.960   .     S
Cu148  N157    2.031   .     S
H155   C253    1.087   .     S
N157   N902    1.299   1_554 S
N157   N925    1.384   1_554 S
N158   N529    1.299   .     S
N158   N556    1.384   .     S
C167   H172    1.108   .     S
C167   C168    1.526   .     S
C167   H173    1.107   .     S
C168   H169    1.111   .     S
C168   H170    1.110   .     S
C168   H295    1.110   .     S
C174   H179    1.107   .     S
C174   C175    1.526   .     S
C174   H180    1.108   .     S
C175   H176    1.110   .     S
C175   H177    1.111   .     S
H178   C299    1.110   .     S
N181   H182    1.044   .     S
N181   H183    1.044   .     S
N181   N529    1.384   .     S
N184   H186    1.044   .     S
N184   H185    1.044   .     S
N184   N902    1.384   1_554 S
C187   O223    1.293   .     A
C187   C191    1.431   .     S
C187   O221    1.295   .     A
C188   O224    1.293   .     A
C188   O222    1.295   .     A
C188   C192    1.431   .     S
C189   C206    1.408   .     A
C189   H215    1.076   .     S
C190   H216    1.076   .     S
C190   C205    1.408   .     A
C190   C146    1.387   1_655 S
C192   C315    1.332   .     S
C192   H342    1.087   .     S
C193   O227    1.295   .     A
C193   C198    1.443   .     S
C193   O225    1.296   .     A
C194   C197    1.443   .     S
C194   O228    1.295   .     A
C194   O226    1.296   .     A
C195   C197    1.413   .     A
C195   C229    1.527   .     S
C195   C205    1.419   .     A
C196   C198    1.413   .     A
C196   C236    1.527   .     S
C196   C206    1.419   .     A
C197   C199    1.390   .     A
C198   C200    1.390   .     A
C199   C201    1.384   .     A
C199   H211    1.086   .     S
C200   C202    1.384   .     A
C200   H212    1.086   .     S
C201   C207    1.393   .     A
C201   C203    1.407   .     A
C202   C208    1.393   .     A
C202   C204    1.407   .     A
C203   C205    1.422   .     A
C203   C142    1.411   1_655 S
C204   C206    1.422   .     A
C207   H213    1.080   .     S
C207   C127    1.387   1_655 S
C208   H214    1.080   .     S
Cu209  Cu210   2.703   .     S
Cu209  O224    1.953   .     S
Cu209  O221    1.955   .     S
Cu209  N220    2.031   .     S
Cu209  O228    1.949   .     S
Cu209  O225    1.960   .     S
Cu210  O223    1.953   .     S
Cu210  O227    1.949   .     S
Cu210  O222    1.955   .     S
Cu210  O226    1.960   .     S
Cu210  N219    2.031   .     S
H217   C315    1.087   .     S
N219   N964    1.299   1_554 S
N219   N987    1.384   1_554 S
N220   N591    1.299   .     S
N220   N618    1.384   .     S
C229   H234    1.108   .     S
C229   C230    1.526   .     S
C229   H235    1.107   .     S
C230   H231    1.111   .     S
C230   H232    1.110   .     S
C230   H357    1.110   .     S
C236   H241    1.107   .     S
C236   C237    1.526   .     S
C236   H242    1.108   .     S
C237   H238    1.110   .     S
C237   H239    1.111   .     S
H240   C361    1.110   .     S
N243   H244    1.044   .     S
N243   H245    1.044   .     S
N243   N591    1.384   .     S
N246   H248    1.044   .     S
N246   H247    1.044   .     S
N246   N964    1.384   1_554 S
C249   O285    1.293   .     A
C249   C253    1.431   .     S
C249   O283    1.295   .     A
C250   O286    1.293   .     A
C250   O284    1.295   .     A
C250   C254    1.431   .     S
C251   C268    1.408   .     A
C251   H277    1.076   .     S
C251   C331    1.387   1_455 S
C252   H278    1.076   .     S
C252   C267    1.408   .     A
C252   C332    1.387   .     S
C254   C5      1.332   1_565 S
C254   H32     1.087   1_565 S
C255   O289    1.295   .     A
C255   C260    1.443   .     S
C255   O287    1.296   .     A
C256   C259    1.443   .     S
C256   O290    1.295   .     A
C256   O288    1.296   .     A
C257   C259    1.413   .     A
C257   C291    1.527   .     S
C257   C267    1.419   .     A
C258   C260    1.413   .     A
C258   C298    1.527   .     S
C258   C268    1.419   .     A
C259   C261    1.390   .     A
C260   C262    1.390   .     A
C261   C263    1.384   .     A
C261   H273    1.086   .     S
C262   C264    1.384   .     A
C262   H274    1.086   .     S
C263   C269    1.393   .     A
C263   C265    1.407   .     A
C264   C270    1.393   .     A
C264   C266    1.407   .     A
C265   C267    1.422   .     A
C265   C328    1.411   .     S
C266   C268    1.422   .     A
C266   C327    1.411   1_455 S
C269   H275    1.080   .     S
C269   C313    1.387   .     S
C270   H276    1.080   .     S
C270   C314    1.387   1_455 S
Cu271  Cu272   2.703   .     S
Cu271  O286    1.953   .     S
Cu271  O283    1.955   .     S
Cu271  N282    2.031   .     S
Cu271  O290    1.949   .     S
Cu271  O287    1.960   .     S
Cu272  O285    1.953   .     S
Cu272  O289    1.949   .     S
Cu272  O284    1.955   .     S
Cu272  O288    1.960   .     S
Cu272  N281    2.031   .     S
H279   C5      1.087   1_565 S
N281   N1026   1.299   1_554 S
N281   N1049   1.384   1_554 S
N282   N653    1.299   .     S
N282   N680    1.384   .     S
C291   H296    1.108   .     S
C291   C292    1.526   .     S
C291   H297    1.107   .     S
C292   H293    1.111   .     S
C292   H294    1.110   .     S
C292   H47     1.110   1_565 S
C298   H303    1.107   .     S
C298   C299    1.526   .     S
C298   H304    1.108   .     S
C299   H300    1.110   .     S
C299   H301    1.111   .     S
H302   C51     1.110   1_565 S
N305   H306    1.044   .     S
N305   H307    1.044   .     S
N305   N653    1.384   .     S
N308   H310    1.044   .     S
N308   H309    1.044   .     S
N308   N1026   1.384   1_554 S
C311   O347    1.293   .     A
C311   C315    1.431   .     S
C311   O345    1.295   .     A
C312   O348    1.293   .     A
C312   O346    1.295   .     A
C312   C316    1.431   .     S
C313   C330    1.408   .     A
C313   H339    1.076   .     S
C314   H340    1.076   .     S
C314   C329    1.408   .     A
C314   C270    1.387   1_655 S
C316   C67     1.332   1_565 S
C316   H94     1.087   1_565 S
C317   O351    1.295   .     A
C317   C322    1.443   .     S
C317   O349    1.296   .     A
C318   C321    1.443   .     S
C318   O352    1.295   .     A
C318   O350    1.296   .     A
C319   C321    1.413   .     A
C319   C353    1.527   .     S
C319   C329    1.419   .     A
C320   C322    1.413   .     A
C320   C360    1.527   .     S
C320   C330    1.419   .     A
C321   C323    1.390   .     A
C322   C324    1.390   .     A
C323   C325    1.384   .     A
C323   H335    1.086   .     S
C324   C326    1.384   .     A
C324   H336    1.086   .     S
C325   C331    1.393   .     A
C325   C327    1.407   .     A
C326   C332    1.393   .     A
C326   C328    1.407   .     A
C327   C329    1.422   .     A
C327   C266    1.411   1_655 S
C328   C330    1.422   .     A
C331   H337    1.080   .     S
C331   C251    1.387   1_655 S
C332   H338    1.080   .     S
Cu333  Cu334   2.703   .     S
Cu333  O348    1.953   .     S
Cu333  O345    1.955   .     S
Cu333  N344    2.031   .     S
Cu333  O352    1.949   .     S
Cu333  O349    1.960   .     S
Cu334  O347    1.953   .     S
Cu334  O351    1.949   .     S
Cu334  O346    1.955   .     S
Cu334  O350    1.960   .     S
Cu334  N343    2.031   .     S
H341   C67     1.087   1_565 S
N343   N1088   1.299   1_554 S
N343   N1111   1.384   1_554 S
N344   N715    1.299   .     S
N344   N742    1.384   .     S
C353   H358    1.108   .     S
C353   C354    1.526   .     S
C353   H359    1.107   .     S
C354   H355    1.111   .     S
C354   H356    1.110   .     S
C354   H109    1.110   1_565 S
C360   H365    1.107   .     S
C360   C361    1.526   .     S
C360   H366    1.108   .     S
C361   H362    1.110   .     S
C361   H363    1.111   .     S
H364   C113    1.110   1_565 S
N367   H368    1.044   .     S
N367   H369    1.044   .     S
N367   N715    1.384   .     S
N370   H372    1.044   .     S
N370   H371    1.044   .     S
N370   N1088   1.384   1_554 S
C373   O409    1.293   .     A
C373   C377    1.431   .     S
C373   O407    1.295   .     A
C374   O410    1.293   .     A
C374   O408    1.295   .     A
C374   C378    1.431   .     S
C375   C392    1.408   .     A
C375   H401    1.076   .     S
C375   C455    1.387   1_455 S
C376   H402    1.076   .     S
C376   C391    1.408   .     A
C376   C456    1.387   .     S
C377   C626    1.332   1_545 S
C377   H651    1.087   1_545 S
C378   C501    1.332   .     S
C378   H528    1.087   .     S
C379   O413    1.295   .     A
C379   C384    1.443   .     S
C379   O411    1.296   .     A
C380   C383    1.443   .     S
C380   O414    1.295   .     A
C380   O412    1.296   .     A
C381   C383    1.413   .     A
C381   C415    1.527   .     S
C381   C391    1.419   .     A
C382   C384    1.413   .     A
C382   C422    1.527   .     S
C382   C392    1.419   .     A
C383   C385    1.390   .     A
C384   C386    1.390   .     A
C385   C387    1.384   .     A
C385   H397    1.086   .     S
C386   C388    1.384   .     A
C386   H398    1.086   .     S
C387   C393    1.393   .     A
C387   C389    1.407   .     A
C388   C394    1.393   .     A
C388   C390    1.407   .     A
C389   C391    1.422   .     A
C389   C452    1.411   .     S
C390   C392    1.422   .     A
C390   C451    1.411   1_455 S
C393   H399    1.080   .     S
C393   C437    1.387   .     S
C394   H400    1.080   .     S
C394   C438    1.387   1_455 S
Cu395  Cu396   2.703   .     S
Cu395  O410    1.953   .     S
Cu395  O407    1.955   .     S
Cu395  N406    2.031   .     S
Cu395  O414    1.949   .     S
Cu395  O411    1.960   .     S
Cu396  O409    1.953   .     S
Cu396  O413    1.949   .     S
Cu396  O408    1.955   .     S
Cu396  O412    1.960   .     S
Cu396  N405    2.031   .     S
H403   C501    1.087   .     S
H404   C626    1.087   1_545 S
N406   N777    1.299   .     S
N406   N804    1.384   .     S
C415   H420    1.108   .     S
C415   C416    1.526   .     S
C415   H421    1.107   .     S
C416   H417    1.111   .     S
C416   H418    1.110   .     S
C416   H543    1.110   .     S
H419   C664    1.110   1_545 S
C422   H427    1.107   .     S
C422   C423    1.526   .     S
C422   H428    1.108   .     S
C423   H424    1.110   .     S
C423   H425    1.111   .     S
C423   H674    1.110   1_545 S
H426   C547    1.110   .     S
N429   H430    1.044   .     S
N429   H431    1.044   .     S
N429   N777    1.384   .     S
N432   H434    1.044   .     S
N432   H433    1.044   .     S
C435   O471    1.293   .     A
C435   C439    1.431   .     S
C435   O469    1.295   .     A
C436   O472    1.293   .     A
C436   O470    1.295   .     A
C436   C440    1.431   .     S
C437   C454    1.408   .     A
C437   H463    1.076   .     S
C438   H464    1.076   .     S
C438   C453    1.408   .     A
C438   C394    1.387   1_655 S
C439   C688    1.332   1_545 S
C439   H713    1.087   1_545 S
C440   C563    1.332   .     S
C440   H590    1.087   .     S
C441   O475    1.295   .     A
C441   C446    1.443   .     S
C441   O473    1.296   .     A
C442   C445    1.443   .     S
C442   O476    1.295   .     A
C442   O474    1.296   .     A
C443   C445    1.413   .     A
C443   C477    1.527   .     S
C443   C453    1.419   .     A
C444   C446    1.413   .     A
C444   C484    1.527   .     S
C444   C454    1.419   .     A
C445   C447    1.390   .     A
C446   C448    1.390   .     A
C447   C449    1.384   .     A
C447   H459    1.086   .     S
C448   C450    1.384   .     A
C448   H460    1.086   .     S
C449   C455    1.393   .     A
C449   C451    1.407   .     A
C450   C456    1.393   .     A
C450   C452    1.407   .     A
C451   C453    1.422   .     A
C451   C390    1.411   1_655 S
C452   C454    1.422   .     A
C455   H461    1.080   .     S
C455   C375    1.387   1_655 S
C456   H462    1.080   .     S
Cu457  Cu458   2.703   .     S
Cu457  O472    1.953   .     S
Cu457  O469    1.955   .     S
Cu457  N468    2.031   .     S
Cu457  O476    1.949   .     S
Cu457  O473    1.960   .     S
Cu458  O471    1.953   .     S
Cu458  O475    1.949   .     S
Cu458  O470    1.955   .     S
Cu458  O474    1.960   .     S
Cu458  N467    2.031   .     S
H465   C563    1.087   .     S
H466   C688    1.087   1_545 S
N468   N839    1.299   .     S
N468   N866    1.384   .     S
C477   H482    1.108   .     S
C477   C478    1.526   .     S
C477   H483    1.107   .     S
C478   H479    1.111   .     S
C478   H480    1.110   .     S
C478   H605    1.110   .     S
H481   C726    1.110   1_545 S
C484   H489    1.107   .     S
C484   C485    1.526   .     S
C484   H490    1.108   .     S
C485   H486    1.110   .     S
C485   H487    1.111   .     S
C485   H736    1.110   1_545 S
H488   C609    1.110   .     S
N491   H492    1.044   .     S
N491   H493    1.044   .     S
N491   N839    1.384   .     S
N494   H496    1.044   .     S
N494   H495    1.044   .     S
C497   O533    1.293   .     A
C497   C501    1.431   .     S
C497   O531    1.295   .     A
C498   O534    1.293   .     A
C498   O532    1.295   .     A
C498   C502    1.431   .     S
C499   C516    1.408   .     A
C499   H525    1.076   .     S
C499   C579    1.387   1_455 S
C500   H526    1.076   .     S
C500   C515    1.408   .     A
C500   C580    1.387   .     S
C502   C625    1.332   .     S
C502   H652    1.087   .     S
C503   O537    1.295   .     A
C503   C508    1.443   .     S
C503   O535    1.296   .     A
C504   C507    1.443   .     S
C504   O538    1.295   .     A
C504   O536    1.296   .     A
C505   C507    1.413   .     A
C505   C539    1.527   .     S
C505   C515    1.419   .     A
C506   C508    1.413   .     A
C506   C546    1.527   .     S
C506   C516    1.419   .     A
C507   C509    1.390   .     A
C508   C510    1.390   .     A
C509   C511    1.384   .     A
C509   H521    1.086   .     S
C510   C512    1.384   .     A
C510   H522    1.086   .     S
C511   C517    1.393   .     A
C511   C513    1.407   .     A
C512   C518    1.393   .     A
C512   C514    1.407   .     A
C513   C515    1.422   .     A
C513   C576    1.411   .     S
C514   C516    1.422   .     A
C514   C575    1.411   1_455 S
C517   H523    1.080   .     S
C517   C561    1.387   .     S
C518   H524    1.080   .     S
C518   C562    1.387   1_455 S
Cu519  Cu520   2.703   .     S
Cu519  O534    1.953   .     S
Cu519  O531    1.955   .     S
Cu519  N530    2.031   .     S
Cu519  O538    1.949   .     S
Cu519  O535    1.960   .     S
Cu520  O533    1.953   .     S
Cu520  O537    1.949   .     S
Cu520  O532    1.955   .     S
Cu520  O536    1.960   .     S
Cu520  N529    2.031   .     S
H527   C625    1.087   .     S
N530   N901    1.299   .     S
N530   N928    1.384   .     S
C539   H544    1.108   .     S
C539   C540    1.526   .     S
C539   H545    1.107   .     S
C540   H541    1.111   .     S
C540   H542    1.110   .     S
C540   H667    1.110   .     S
C546   H551    1.107   .     S
C546   C547    1.526   .     S
C546   H552    1.108   .     S
C547   H548    1.110   .     S
C547   H549    1.111   .     S
H550   C671    1.110   .     S
N553   H554    1.044   .     S
N553   H555    1.044   .     S
N553   N901    1.384   .     S
N556   H558    1.044   .     S
N556   H557    1.044   .     S
C559   O595    1.293   .     A
C559   C563    1.431   .     S
C559   O593    1.295   .     A
C560   O596    1.293   .     A
C560   O594    1.295   .     A
C560   C564    1.431   .     S
C561   C578    1.408   .     A
C561   H587    1.076   .     S
C562   H588    1.076   .     S
C562   C577    1.408   .     A
C562   C518    1.387   1_655 S
C564   C687    1.332   .     S
C564   H714    1.087   .     S
C565   O599    1.295   .     A
C565   C570    1.443   .     S
C565   O597    1.296   .     A
C566   C569    1.443   .     S
C566   O600    1.295   .     A
C566   O598    1.296   .     A
C567   C569    1.413   .     A
C567   C601    1.527   .     S
C567   C577    1.419   .     A
C568   C570    1.413   .     A
C568   C608    1.527   .     S
C568   C578    1.419   .     A
C569   C571    1.390   .     A
C570   C572    1.390   .     A
C571   C573    1.384   .     A
C571   H583    1.086   .     S
C572   C574    1.384   .     A
C572   H584    1.086   .     S
C573   C579    1.393   .     A
C573   C575    1.407   .     A
C574   C580    1.393   .     A
C574   C576    1.407   .     A
C575   C577    1.422   .     A
C575   C514    1.411   1_655 S
C576   C578    1.422   .     A
C579   H585    1.080   .     S
C579   C499    1.387   1_655 S
C580   H586    1.080   .     S
Cu581  Cu582   2.703   .     S
Cu581  O596    1.953   .     S
Cu581  O593    1.955   .     S
Cu581  N592    2.031   .     S
Cu581  O600    1.949   .     S
Cu581  O597    1.960   .     S
Cu582  O595    1.953   .     S
Cu582  O599    1.949   .     S
Cu582  O594    1.955   .     S
Cu582  O598    1.960   .     S
Cu582  N591    2.031   .     S
H589   C687    1.087   .     S
N592   N963    1.299   .     S
N592   N990    1.384   .     S
C601   H606    1.108   .     S
C601   C602    1.526   .     S
C601   H607    1.107   .     S
C602   H603    1.111   .     S
C602   H604    1.110   .     S
C602   H729    1.110   .     S
C608   H613    1.107   .     S
C608   C609    1.526   .     S
C608   H614    1.108   .     S
C609   H610    1.110   .     S
C609   H611    1.111   .     S
H612   C733    1.110   .     S
N615   H616    1.044   .     S
N615   H617    1.044   .     S
N615   N963    1.384   .     S
N618   H620    1.044   .     S
N618   H619    1.044   .     S
C621   O657    1.293   .     A
C621   C625    1.431   .     S
C621   O655    1.295   .     A
C622   O658    1.293   .     A
C622   O656    1.295   .     A
C622   C626    1.431   .     S
C623   C640    1.408   .     A
C623   H649    1.076   .     S
C623   C703    1.387   1_455 S
C624   H650    1.076   .     S
C624   C639    1.408   .     A
C624   C704    1.387   .     S
C626   C377    1.332   1_565 S
C626   H404    1.087   1_565 S
C627   O661    1.295   .     A
C627   C632    1.443   .     S
C627   O659    1.296   .     A
C628   C631    1.443   .     S
C628   O662    1.295   .     A
C628   O660    1.296   .     A
C629   C631    1.413   .     A
C629   C663    1.527   .     S
C629   C639    1.419   .     A
C630   C632    1.413   .     A
C630   C670    1.527   .     S
C630   C640    1.419   .     A
C631   C633    1.390   .     A
C632   C634    1.390   .     A
C633   C635    1.384   .     A
C633   H645    1.086   .     S
C634   C636    1.384   .     A
C634   H646    1.086   .     S
C635   C641    1.393   .     A
C635   C637    1.407   .     A
C636   C642    1.393   .     A
C636   C638    1.407   .     A
C637   C639    1.422   .     A
C637   C700    1.411   .     S
C638   C640    1.422   .     A
C638   C699    1.411   1_455 S
C641   H647    1.080   .     S
C641   C685    1.387   .     S
C642   H648    1.080   .     S
C642   C686    1.387   1_455 S
Cu643  Cu644   2.703   .     S
Cu643  O658    1.953   .     S
Cu643  O655    1.955   .     S
Cu643  N654    2.031   .     S
Cu643  O662    1.949   .     S
Cu643  O659    1.960   .     S
Cu644  O657    1.953   .     S
Cu644  O661    1.949   .     S
Cu644  O656    1.955   .     S
Cu644  O660    1.960   .     S
Cu644  N653    2.031   .     S
H651   C377    1.087   1_565 S
N654   N1025   1.299   .     S
N654   N1052   1.384   .     S
C663   H668    1.108   .     S
C663   C664    1.526   .     S
C663   H669    1.107   .     S
C664   H665    1.111   .     S
C664   H666    1.110   .     S
C664   H419    1.110   1_565 S
C670   H675    1.107   .     S
C670   C671    1.526   .     S
C670   H676    1.108   .     S
C671   H672    1.110   .     S
C671   H673    1.111   .     S
H674   C423    1.110   1_565 S
N677   H678    1.044   .     S
N677   H679    1.044   .     S
N677   N1025   1.384   .     S
N680   H682    1.044   .     S
N680   H681    1.044   .     S
C683   O719    1.293   .     A
C683   C687    1.431   .     S
C683   O717    1.295   .     A
C684   O720    1.293   .     A
C684   O718    1.295   .     A
C684   C688    1.431   .     S
C685   C702    1.408   .     A
C685   H711    1.076   .     S
C686   H712    1.076   .     S
C686   C701    1.408   .     A
C686   C642    1.387   1_655 S
C688   C439    1.332   1_565 S
C688   H466    1.087   1_565 S
C689   O723    1.295   .     A
C689   C694    1.443   .     S
C689   O721    1.296   .     A
C690   C693    1.443   .     S
C690   O724    1.295   .     A
C690   O722    1.296   .     A
C691   C693    1.413   .     A
C691   C725    1.527   .     S
C691   C701    1.419   .     A
C692   C694    1.413   .     A
C692   C732    1.527   .     S
C692   C702    1.419   .     A
C693   C695    1.390   .     A
C694   C696    1.390   .     A
C695   C697    1.384   .     A
C695   H707    1.086   .     S
C696   C698    1.384   .     A
C696   H708    1.086   .     S
C697   C703    1.393   .     A
C697   C699    1.407   .     A
C698   C704    1.393   .     A
C698   C700    1.407   .     A
C699   C701    1.422   .     A
C699   C638    1.411   1_655 S
C700   C702    1.422   .     A
C703   H709    1.080   .     S
C703   C623    1.387   1_655 S
C704   H710    1.080   .     S
Cu705  Cu706   2.703   .     S
Cu705  O720    1.953   .     S
Cu705  O717    1.955   .     S
Cu705  N716    2.031   .     S
Cu705  O724    1.949   .     S
Cu705  O721    1.960   .     S
Cu706  O719    1.953   .     S
Cu706  O723    1.949   .     S
Cu706  O718    1.955   .     S
Cu706  O722    1.960   .     S
Cu706  N715    2.031   .     S
H713   C439    1.087   1_565 S
N716   N1087   1.299   .     S
N716   N1114   1.384   .     S
C725   H730    1.108   .     S
C725   C726    1.526   .     S
C725   H731    1.107   .     S
C726   H727    1.111   .     S
C726   H728    1.110   .     S
C726   H481    1.110   1_565 S
C732   H737    1.107   .     S
C732   C733    1.526   .     S
C732   H738    1.108   .     S
C733   H734    1.110   .     S
C733   H735    1.111   .     S
H736   C485    1.110   1_565 S
N739   H740    1.044   .     S
N739   H741    1.044   .     S
N739   N1087   1.384   .     S
N742   H744    1.044   .     S
N742   H743    1.044   .     S
C745   O781    1.293   .     A
C745   C749    1.431   .     S
C745   O779    1.295   .     A
C746   O782    1.293   .     A
C746   O780    1.295   .     A
C746   C750    1.431   .     S
C747   C764    1.408   .     A
C747   H773    1.076   .     S
C747   C827    1.387   1_455 S
C748   H774    1.076   .     S
C748   C763    1.408   .     A
C748   C828    1.387   .     S
C749   C998    1.332   1_545 S
C749   H1023   1.087   1_545 S
C750   C873    1.332   .     S
C750   H900    1.087   .     S
C751   O785    1.295   .     A
C751   C756    1.443   .     S
C751   O783    1.296   .     A
C752   C755    1.443   .     S
C752   O786    1.295   .     A
C752   O784    1.296   .     A
C753   C755    1.413   .     A
C753   C787    1.527   .     S
C753   C763    1.419   .     A
C754   C756    1.413   .     A
C754   C794    1.527   .     S
C754   C764    1.419   .     A
C755   C757    1.390   .     A
C756   C758    1.390   .     A
C757   C759    1.384   .     A
C757   H769    1.086   .     S
C758   C760    1.384   .     A
C758   H770    1.086   .     S
C759   C765    1.393   .     A
C759   C761    1.407   .     A
C760   C766    1.393   .     A
C760   C762    1.407   .     A
C761   C763    1.422   .     A
C761   C824    1.411   .     S
C762   C764    1.422   .     A
C762   C823    1.411   1_455 S
C765   H771    1.080   .     S
C765   C809    1.387   .     S
C766   H772    1.080   .     S
C766   C810    1.387   1_455 S
Cu767  Cu768   2.703   .     S
Cu767  O782    1.953   .     S
Cu767  O779    1.955   .     S
Cu767  N778    2.031   .     S
Cu767  O786    1.949   .     S
Cu767  O783    1.960   .     S
Cu768  O781    1.953   .     S
Cu768  O785    1.949   .     S
Cu768  O780    1.955   .     S
Cu768  O784    1.960   .     S
Cu768  N777    2.031   .     S
H775   C873    1.087   .     S
H776   C998    1.087   1_545 S
N778   N33     1.299   1_556 S
N778   N60     1.384   1_556 S
C787   H792    1.108   .     S
C787   C788    1.526   .     S
C787   H793    1.107   .     S
C788   H789    1.111   .     S
C788   H790    1.110   .     S
C788   H915    1.110   .     S
H791   C1036   1.110   1_545 S
C794   H799    1.107   .     S
C794   C795    1.526   .     S
C794   H800    1.108   .     S
C795   H796    1.110   .     S
C795   H797    1.111   .     S
C795   H1046   1.110   1_545 S
H798   C919    1.110   .     S
N801   H802    1.044   .     S
N801   H803    1.044   .     S
N801   N33     1.384   1_556 S
N804   H806    1.044   .     S
N804   H805    1.044   .     S
C807   O843    1.293   .     A
C807   C811    1.431   .     S
C807   O841    1.295   .     A
C808   O844    1.293   .     A
C808   O842    1.295   .     A
C808   C812    1.431   .     S
C809   C826    1.408   .     A
C809   H835    1.076   .     S
C810   H836    1.076   .     S
C810   C825    1.408   .     A
C810   C766    1.387   1_655 S
C811   C1060   1.332   1_545 S
C811   H1085   1.087   1_545 S
C812   C935    1.332   .     S
C812   H962    1.087   .     S
C813   O847    1.295   .     A
C813   C818    1.443   .     S
C813   O845    1.296   .     A
C814   C817    1.443   .     S
C814   O848    1.295   .     A
C814   O846    1.296   .     A
C815   C817    1.413   .     A
C815   C849    1.527   .     S
C815   C825    1.419   .     A
C816   C818    1.413   .     A
C816   C856    1.527   .     S
C816   C826    1.419   .     A
C817   C819    1.390   .     A
C818   C820    1.390   .     A
C819   C821    1.384   .     A
C819   H831    1.086   .     S
C820   C822    1.384   .     A
C820   H832    1.086   .     S
C821   C827    1.393   .     A
C821   C823    1.407   .     A
C822   C828    1.393   .     A
C822   C824    1.407   .     A
C823   C825    1.422   .     A
C823   C762    1.411   1_655 S
C824   C826    1.422   .     A
C827   H833    1.080   .     S
C827   C747    1.387   1_655 S
C828   H834    1.080   .     S
Cu829  Cu830   2.703   .     S
Cu829  O844    1.953   .     S
Cu829  O841    1.955   .     S
Cu829  N840    2.031   .     S
Cu829  O848    1.949   .     S
Cu829  O845    1.960   .     S
Cu830  O843    1.953   .     S
Cu830  O847    1.949   .     S
Cu830  O842    1.955   .     S
Cu830  O846    1.960   .     S
Cu830  N839    2.031   .     S
H837   C935    1.087   .     S
H838   C1060   1.087   1_545 S
N840   N95     1.299   1_556 S
N840   N122    1.384   1_556 S
C849   H854    1.108   .     S
C849   C850    1.526   .     S
C849   H855    1.107   .     S
C850   H851    1.111   .     S
C850   H852    1.110   .     S
C850   H977    1.110   .     S
H853   C1098   1.110   1_545 S
C856   H861    1.107   .     S
C856   C857    1.526   .     S
C856   H862    1.108   .     S
C857   H858    1.110   .     S
C857   H859    1.111   .     S
C857   H1108   1.110   1_545 S
H860   C981    1.110   .     S
N863   H864    1.044   .     S
N863   H865    1.044   .     S
N863   N95     1.384   1_556 S
N866   H868    1.044   .     S
N866   H867    1.044   .     S
C869   O905    1.293   .     A
C869   C873    1.431   .     S
C869   O903    1.295   .     A
C870   O906    1.293   .     A
C870   O904    1.295   .     A
C870   C874    1.431   .     S
C871   C888    1.408   .     A
C871   H897    1.076   .     S
C871   C951    1.387   1_455 S
C872   H898    1.076   .     S
C872   C887    1.408   .     A
C872   C952    1.387   .     S
C874   C997    1.332   .     S
C874   H1024   1.087   .     S
C875   O909    1.295   .     A
C875   C880    1.443   .     S
C875   O907    1.296   .     A
C876   C879    1.443   .     S
C876   O910    1.295   .     A
C876   O908    1.296   .     A
C877   C879    1.413   .     A
C877   C911    1.527   .     S
C877   C887    1.419   .     A
C878   C880    1.413   .     A
C878   C918    1.527   .     S
C878   C888    1.419   .     A
C879   C881    1.390   .     A
C880   C882    1.390   .     A
C881   C883    1.384   .     A
C881   H893    1.086   .     S
C882   C884    1.384   .     A
C882   H894    1.086   .     S
C883   C889    1.393   .     A
C883   C885    1.407   .     A
C884   C890    1.393   .     A
C884   C886    1.407   .     A
C885   C887    1.422   .     A
C885   C948    1.411   .     S
C886   C888    1.422   .     A
C886   C947    1.411   1_455 S
C889   H895    1.080   .     S
C889   C933    1.387   .     S
C890   H896    1.080   .     S
C890   C934    1.387   1_455 S
Cu891  Cu892   2.703   .     S
Cu891  O906    1.953   .     S
Cu891  O903    1.955   .     S
Cu891  N902    2.031   .     S
Cu891  O910    1.949   .     S
Cu891  O907    1.960   .     S
Cu892  O905    1.953   .     S
Cu892  O909    1.949   .     S
Cu892  O904    1.955   .     S
Cu892  O908    1.960   .     S
Cu892  N901    2.031   .     S
H899   C997    1.087   .     S
N902   N157    1.299   1_556 S
N902   N184    1.384   1_556 S
C911   H916    1.108   .     S
C911   C912    1.526   .     S
C911   H917    1.107   .     S
C912   H913    1.111   .     S
C912   H914    1.110   .     S
C912   H1039   1.110   .     S
C918   H923    1.107   .     S
C918   C919    1.526   .     S
C918   H924    1.108   .     S
C919   H920    1.110   .     S
C919   H921    1.111   .     S
H922   C1043   1.110   .     S
N925   H926    1.044   .     S
N925   H927    1.044   .     S
N925   N157    1.384   1_556 S
N928   H930    1.044   .     S
N928   H929    1.044   .     S
C931   O967    1.293   .     A
C931   C935    1.431   .     S
C931   O965    1.295   .     A
C932   O968    1.293   .     A
C932   O966    1.295   .     A
C932   C936    1.431   .     S
C933   C950    1.408   .     A
C933   H959    1.076   .     S
C934   H960    1.076   .     S
C934   C949    1.408   .     A
C934   C890    1.387   1_655 S
C936   C1059   1.332   .     S
C936   H1086   1.087   .     S
C937   O971    1.295   .     A
C937   C942    1.443   .     S
C937   O969    1.296   .     A
C938   C941    1.443   .     S
C938   O972    1.295   .     A
C938   O970    1.296   .     A
C939   C941    1.413   .     A
C939   C973    1.527   .     S
C939   C949    1.419   .     A
C940   C942    1.413   .     A
C940   C980    1.527   .     S
C940   C950    1.419   .     A
C941   C943    1.390   .     A
C942   C944    1.390   .     A
C943   C945    1.384   .     A
C943   H955    1.086   .     S
C944   C946    1.384   .     A
C944   H956    1.086   .     S
C945   C951    1.393   .     A
C945   C947    1.407   .     A
C946   C952    1.393   .     A
C946   C948    1.407   .     A
C947   C949    1.422   .     A
C947   C886    1.411   1_655 S
C948   C950    1.422   .     A
C951   H957    1.080   .     S
C951   C871    1.387   1_655 S
C952   H958    1.080   .     S
Cu953  Cu954   2.703   .     S
Cu953  O968    1.953   .     S
Cu953  O965    1.955   .     S
Cu953  N964    2.031   .     S
Cu953  O972    1.949   .     S
Cu953  O969    1.960   .     S
Cu954  O967    1.953   .     S
Cu954  O971    1.949   .     S
Cu954  O966    1.955   .     S
Cu954  O970    1.960   .     S
Cu954  N963    2.031   .     S
H961   C1059   1.087   .     S
N964   N219    1.299   1_556 S
N964   N246    1.384   1_556 S
C973   H978    1.108   .     S
C973   C974    1.526   .     S
C973   H979    1.107   .     S
C974   H975    1.111   .     S
C974   H976    1.110   .     S
C974   H1101   1.110   .     S
C980   H985    1.107   .     S
C980   C981    1.526   .     S
C980   H986    1.108   .     S
C981   H982    1.110   .     S
C981   H983    1.111   .     S
H984   C1105   1.110   .     S
N987   H988    1.044   .     S
N987   H989    1.044   .     S
N987   N219    1.384   1_556 S
N990   H992    1.044   .     S
N990   H991    1.044   .     S
C993   O1029   1.293   .     A
C993   C997    1.431   .     S
C993   O1027   1.295   .     A
C994   O1030   1.293   .     A
C994   O1028   1.295   .     A
C994   C998    1.431   .     S
C995   C1012   1.408   .     A
C995   H1021   1.076   .     S
C995   C1075   1.387   1_455 S
C996   H1022   1.076   .     S
C996   C1011   1.408   .     A
C996   C1076   1.387   .     S
C998   C749    1.332   1_565 S
C998   H776    1.087   1_565 S
C999   O1033   1.295   .     A
C999   C1004   1.443   .     S
C999   O1031   1.296   .     A
C1000  C1003   1.443   .     S
C1000  O1034   1.295   .     A
C1000  O1032   1.296   .     A
C1001  C1003   1.413   .     A
C1001  C1035   1.527   .     S
C1001  C1011   1.419   .     A
C1002  C1004   1.413   .     A
C1002  C1042   1.527   .     S
C1002  C1012   1.419   .     A
C1003  C1005   1.390   .     A
C1004  C1006   1.390   .     A
C1005  C1007   1.384   .     A
C1005  H1017   1.086   .     S
C1006  C1008   1.384   .     A
C1006  H1018   1.086   .     S
C1007  C1013   1.393   .     A
C1007  C1009   1.407   .     A
C1008  C1014   1.393   .     A
C1008  C1010   1.407   .     A
C1009  C1011   1.422   .     A
C1009  C1072   1.411   .     S
C1010  C1012   1.422   .     A
C1010  C1071   1.411   1_455 S
C1013  H1019   1.080   .     S
C1013  C1057   1.387   .     S
C1014  H1020   1.080   .     S
C1014  C1058   1.387   1_455 S
Cu1015 Cu1016  2.703   .     S
Cu1015 O1030   1.953   .     S
Cu1015 O1027   1.955   .     S
Cu1015 N1026   2.031   .     S
Cu1015 O1034   1.949   .     S
Cu1015 O1031   1.960   .     S
Cu1016 O1029   1.953   .     S
Cu1016 O1033   1.949   .     S
Cu1016 O1028   1.955   .     S
Cu1016 O1032   1.960   .     S
Cu1016 N1025   2.031   .     S
H1023  C749    1.087   1_565 S
N1026  N281    1.299   1_556 S
N1026  N308    1.384   1_556 S
C1035  H1040   1.108   .     S
C1035  C1036   1.526   .     S
C1035  H1041   1.107   .     S
C1036  H1037   1.111   .     S
C1036  H1038   1.110   .     S
C1036  H791    1.110   1_565 S
C1042  H1047   1.107   .     S
C1042  C1043   1.526   .     S
C1042  H1048   1.108   .     S
C1043  H1044   1.110   .     S
C1043  H1045   1.111   .     S
H1046  C795    1.110   1_565 S
N1049  H1050   1.044   .     S
N1049  H1051   1.044   .     S
N1049  N281    1.384   1_556 S
N1052  H1054   1.044   .     S
N1052  H1053   1.044   .     S
C1055  O1091   1.293   .     A
C1055  C1059   1.431   .     S
C1055  O1089   1.295   .     A
C1056  O1092   1.293   .     A
C1056  O1090   1.295   .     A
C1056  C1060   1.431   .     S
C1057  C1074   1.408   .     A
C1057  H1083   1.076   .     S
C1058  H1084   1.076   .     S
C1058  C1073   1.408   .     A
C1058  C1014   1.387   1_655 S
C1060  C811    1.332   1_565 S
C1060  H838    1.087   1_565 S
C1061  O1095   1.295   .     A
C1061  C1066   1.443   .     S
C1061  O1093   1.296   .     A
C1062  C1065   1.443   .     S
C1062  O1096   1.295   .     A
C1062  O1094   1.296   .     A
C1063  C1065   1.413   .     A
C1063  C1097   1.527   .     S
C1063  C1073   1.419   .     A
C1064  C1066   1.413   .     A
C1064  C1104   1.527   .     S
C1064  C1074   1.419   .     A
C1065  C1067   1.390   .     A
C1066  C1068   1.390   .     A
C1067  C1069   1.384   .     A
C1067  H1079   1.086   .     S
C1068  C1070   1.384   .     A
C1068  H1080   1.086   .     S
C1069  C1075   1.393   .     A
C1069  C1071   1.407   .     A
C1070  C1076   1.393   .     A
C1070  C1072   1.407   .     A
C1071  C1073   1.422   .     A
C1071  C1010   1.411   1_655 S
C1072  C1074   1.422   .     A
C1075  H1081   1.080   .     S
C1075  C995    1.387   1_655 S
C1076  H1082   1.080   .     S
Cu1077 Cu1078  2.703   .     S
Cu1077 O1092   1.953   .     S
Cu1077 O1089   1.955   .     S
Cu1077 N1088   2.031   .     S
Cu1077 O1096   1.949   .     S
Cu1077 O1093   1.960   .     S
Cu1078 O1091   1.953   .     S
Cu1078 O1095   1.949   .     S
Cu1078 O1090   1.955   .     S
Cu1078 O1094   1.960   .     S
Cu1078 N1087   2.031   .     S
H1085  C811    1.087   1_565 S
N1088  N343    1.299   1_556 S
N1088  N370    1.384   1_556 S
C1097  H1102   1.108   .     S
C1097  C1098   1.526   .     S
C1097  H1103   1.107   .     S
C1098  H1099   1.111   .     S
C1098  H1100   1.110   .     S
C1098  H853    1.110   1_565 S
C1104  H1109   1.107   .     S
C1104  C1105   1.526   .     S
C1104  H1110   1.108   .     S
C1105  H1106   1.110   .     S
C1105  H1107   1.111   .     S
H1108  C857    1.110   1_565 S
N1111  H1112   1.044   .     S
N1111  H1113   1.044   .     S
N1111  N343    1.384   1_556 S
N1114  H1116   1.044   .     S
N1114  H1115   1.044   .     S
