data_str_m2_o2_o10_pcu_sym.243
_audit_creation_date              2020-01-03
_audit_creation_method            'Materials Studio'
_symmetry_space_group_name_H-M    'P1'
_symmetry_Int_Tables_number       1
_symmetry_cell_setting            triclinic
loop_
_symmetry_equiv_pos_as_xyz
  x,y,z
_cell_length_a                    26.4879
_cell_length_b                    30.3301
_cell_length_c                    27.7286
_cell_angle_alpha                 89.3863
_cell_angle_beta                  97.5399
_cell_angle_gamma                 89.3829
loop_
_atom_site_label
_atom_site_type_symbol
_atom_site_fract_x
_atom_site_fract_y
_atom_site_fract_z
_atom_site_U_iso_or_equiv
_atom_site_adp_type
_atom_site_occupancy
C1     C     0.16637   0.16509   0.25022   0.00000  Uiso   1.00
C2     C     0.16648   0.33505   0.24977   0.00000  Uiso   1.00
C3     C     0.18252   0.28278   0.05240   0.00000  Uiso   1.00
C4     C     0.18651   0.21873   0.45213   0.00000  Uiso   1.00
C5     C     0.19035   0.28171   0.10387   0.00000  Uiso   1.00
C6     C     0.19376   0.22007   0.40252   0.00000  Uiso   1.00
C7     C     0.13805   0.21861   0.10366   0.00000  Uiso   1.00
C8     C     0.13672   0.28091   0.38909   0.00000  Uiso   1.00
C9     C     0.13261   0.21737   0.05216   0.00000  Uiso   1.00
C10    C     0.13063   0.28159   0.43908   0.00000  Uiso   1.00
C11    C     0.15492   0.25026   0.02580   0.00000  Uiso   1.00
C12    C     0.15514   0.24936   0.47131   0.00000  Uiso   1.00
C13    C     0.06817   0.25013   0.23779   0.00000  Uiso   1.00
C14    C     0.26512   0.25051   0.26208   0.00000  Uiso   1.00
C15    C     0.01369   0.24617   0.23130   0.00000  Uiso   1.00
C16    C     0.31938   0.25593   0.26790   0.00000  Uiso   1.00
C17    C     0.13045   0.04766   0.27688   0.00000  Uiso   1.00
C18    C     0.14002   0.45393   0.20934   0.00000  Uiso   1.00
C19    C     0.13004   0.09417   0.27508   0.00000  Uiso   1.00
C20    C     0.13852   0.40751   0.21049   0.00000  Uiso   1.00
C21    C     0.16603   0.11677   0.25096   0.00000  Uiso   1.00
C22    C     0.16657   0.38359   0.24943   0.00000  Uiso   1.00
C23    C     0.20278   0.09318   0.22891   0.00000  Uiso   1.00
C24    C     0.19537   0.40621   0.28783   0.00000  Uiso   1.00
C25    C     0.20225   0.04712   0.22894   0.00000  Uiso   1.00
C26    C     0.19402   0.45232   0.28847   0.00000  Uiso   1.00
C27    C     0.16531   0.02451   0.25146   0.00000  Uiso   1.00
C28    C     0.16543   0.47599   0.25008   0.00000  Uiso   1.00
Cu29   Cu    0.16667   0.25000   0.29821   0.00000  Uiso   1.00
Cu30   Cu    0.16667   0.25001   0.20178   0.00000  Uiso   1.00
H31    H     0.19954   0.30833   0.03252   0.00000  Uiso   1.00
H32    H     0.20736   0.19471   0.47652   0.00000  Uiso   1.00
H33    H     0.11886   0.19425   0.12324   0.00000  Uiso   1.00
H34    H     0.11770   0.30572   0.36476   0.00000  Uiso   1.00
N35    N     0.16667   0.25001   0.12934   0.00000  Uiso   1.00
N36    N     0.16667   0.24999   0.37065   0.00000  Uiso   1.00
O37    O     0.16667   0.18573   0.29071   0.00000  Uiso   1.00
O38    O     0.16666   0.31428   0.20928   0.00000  Uiso   1.00
O39    O     0.16667   0.18573   0.20928   0.00000  Uiso   1.00
O40    O     0.16666   0.31427   0.29072   0.00000  Uiso   1.00
O41    O     0.09161   0.25000   0.28132   0.00000  Uiso   1.00
O42    O     0.24172   0.25001   0.21868   0.00000  Uiso   1.00
O43    O     0.09161   0.25000   0.19988   0.00000  Uiso   1.00
O44    O     0.24172   0.25000   0.30011   0.00000  Uiso   1.00
C45    C     0.32535   0.22840   0.18466   0.00000  Uiso   1.00
N46    N     0.30863   0.21443   0.14734   0.00000  Uiso   1.00
C47    C     0.00677   0.27697   0.31285   0.00000  Uiso   1.00
N48    N     0.02192   0.29404   0.34886   0.00000  Uiso   1.00
C49    C     0.09702   0.02355   0.30934   0.00000  Uiso   1.00
C50    C     0.04200   0.01884   0.28558   0.00000  Uiso   1.00
H51    H     0.02746   0.04959   0.26627   0.00000  Uiso   1.00
H52    H     0.03922   0.49102   0.25982   0.00000  Uiso   1.00
H53    H     0.01735   0.01115   0.31394   0.00000  Uiso   1.00
H54    H     0.11222   0.49026   0.32038   0.00000  Uiso   1.00
H55    H     0.09740   0.04160   0.34406   0.00000  Uiso   1.00
C56    C     0.11811   0.47920   0.16319   0.00000  Uiso   1.00
C57    C     0.06245   0.49237   0.16314   0.00000  Uiso   1.00
H58    H     0.04013   0.46422   0.17458   0.00000  Uiso   1.00
H59    H     0.05961   0.02072   0.18754   0.00000  Uiso   1.00
H60    H     0.04591   0.00293   0.12588   0.00000  Uiso   1.00
H61    H     0.14027   0.00918   0.15764   0.00000  Uiso   1.00
H62    H     0.12159   0.45900   0.13057   0.00000  Uiso   1.00
C63    C     0.09230   0.11884   0.29766   0.00000  Uiso   1.00
N64    N     0.06220   0.13854   0.31559   0.00000  Uiso   1.00
C65    C     0.10670   0.38462   0.17228   0.00000  Uiso   1.00
N66    N     0.08132   0.36639   0.14182   0.00000  Uiso   1.00
C67    C     0.24272   0.11593   0.20800   0.00000  Uiso   1.00
N68    N     0.27493   0.13361   0.19138   0.00000  Uiso   1.00
C69    C     0.22771   0.38239   0.32607   0.00000  Uiso   1.00
N70    N     0.25348   0.36345   0.35655   0.00000  Uiso   1.00
C71    C     0.24032   0.02266   0.20646   0.00000  Uiso   1.00
N72    N     0.27055   0.00313   0.18856   0.00000  Uiso   1.00
C73    C     0.22307   0.47575   0.32813   0.00000  Uiso   1.00
N74    N     0.24619   0.49446   0.35966   0.00000  Uiso   1.00
C75    C     0.22394   0.31732   0.12879   0.00000  Uiso   1.00
C76    C     0.27381   0.32387   0.10721   0.00000  Uiso   1.00
H77    H     0.29163   0.29172   0.10022   0.00000  Uiso   1.00
H78    H     0.26712   0.34333   0.07280   0.00000  Uiso   1.00
H79    H     0.30095   0.34254   0.13309   0.00000  Uiso   1.00
H80    H     0.20233   0.34904   0.12631   0.00000  Uiso   1.00
H81    H     0.23556   0.30968   0.16723   0.00000  Uiso   1.00
C82    C     0.23392   0.18886   0.38786   0.00000  Uiso   1.00
C83    C     0.28724   0.20159   0.41120   0.00000  Uiso   1.00
H84    H     0.29512   0.23631   0.40181   0.00000  Uiso   1.00
H85    H     0.31609   0.17988   0.39745   0.00000  Uiso   1.00
H86    H     0.29111   0.19777   0.45138   0.00000  Uiso   1.00
H87    H     0.22573   0.15472   0.39929   0.00000  Uiso   1.00
H88    H     0.23506   0.18791   0.34871   0.00000  Uiso   1.00
C89    C     0.10299   0.18289   0.02718   0.00000  Uiso   1.00
N90    N     0.07921   0.15526   0.00708   0.00000  Uiso   1.00
C91    C     0.09886   0.31530   0.45634   0.00000  Uiso   1.00
N92    N     0.07336   0.34232   0.47021   0.00000  Uiso   1.00
C93    C     0.49970   0.16509   0.25022   0.00000  Uiso   1.00
C94    C     0.49981   0.33505   0.24977   0.00000  Uiso   1.00
C95    C     0.51585   0.28278   0.05240   0.00000  Uiso   1.00
C96    C     0.51984   0.21873   0.45213   0.00000  Uiso   1.00
C97    C     0.52368   0.28171   0.10387   0.00000  Uiso   1.00
C98    C     0.52709   0.22007   0.40252   0.00000  Uiso   1.00
C99    C     0.47138   0.21861   0.10366   0.00000  Uiso   1.00
C100   C     0.47005   0.28091   0.38909   0.00000  Uiso   1.00
C101   C     0.46594   0.21737   0.05216   0.00000  Uiso   1.00
C102   C     0.46396   0.28159   0.43908   0.00000  Uiso   1.00
C103   C     0.48826   0.25026   0.02580   0.00000  Uiso   1.00
C104   C     0.48847   0.24936   0.47131   0.00000  Uiso   1.00
C105   C     0.40150   0.25013   0.23779   0.00000  Uiso   1.00
C106   C     0.59845   0.25051   0.26208   0.00000  Uiso   1.00
C107   C     0.34702   0.24617   0.23130   0.00000  Uiso   1.00
C108   C     0.65271   0.25593   0.26790   0.00000  Uiso   1.00
C109   C     0.46378   0.04766   0.27688   0.00000  Uiso   1.00
C110   C     0.47335   0.45393   0.20934   0.00000  Uiso   1.00
C111   C     0.46338   0.09417   0.27508   0.00000  Uiso   1.00
C112   C     0.47185   0.40751   0.21049   0.00000  Uiso   1.00
C113   C     0.49937   0.11677   0.25096   0.00000  Uiso   1.00
C114   C     0.49991   0.38359   0.24943   0.00000  Uiso   1.00
C115   C     0.53611   0.09318   0.22891   0.00000  Uiso   1.00
C116   C     0.52870   0.40621   0.28783   0.00000  Uiso   1.00
C117   C     0.53558   0.04712   0.22894   0.00000  Uiso   1.00
C118   C     0.52736   0.45232   0.28847   0.00000  Uiso   1.00
C119   C     0.49865   0.02451   0.25146   0.00000  Uiso   1.00
C120   C     0.49876   0.47599   0.25008   0.00000  Uiso   1.00
Cu121  Cu    0.50000   0.25000   0.29821   0.00000  Uiso   1.00
Cu122  Cu    0.50000   0.25001   0.20178   0.00000  Uiso   1.00
H123   H     0.53287   0.30833   0.03252   0.00000  Uiso   1.00
H124   H     0.54069   0.19471   0.47652   0.00000  Uiso   1.00
H125   H     0.45219   0.19425   0.12324   0.00000  Uiso   1.00
H126   H     0.45103   0.30572   0.36476   0.00000  Uiso   1.00
N127   N     0.50000   0.25001   0.12934   0.00000  Uiso   1.00
N128   N     0.50000   0.24999   0.37065   0.00000  Uiso   1.00
O129   O     0.50000   0.18573   0.29071   0.00000  Uiso   1.00
O130   O     0.50000   0.31428   0.20928   0.00000  Uiso   1.00
O131   O     0.50000   0.18573   0.20928   0.00000  Uiso   1.00
O132   O     0.50000   0.31427   0.29072   0.00000  Uiso   1.00
O133   O     0.42495   0.25000   0.28132   0.00000  Uiso   1.00
O134   O     0.57505   0.25001   0.21868   0.00000  Uiso   1.00
O135   O     0.42495   0.25000   0.19988   0.00000  Uiso   1.00
O136   O     0.57505   0.25000   0.30011   0.00000  Uiso   1.00
C137   C     0.65869   0.22840   0.18466   0.00000  Uiso   1.00
N138   N     0.64196   0.21443   0.14734   0.00000  Uiso   1.00
C139   C     0.34011   0.27697   0.31285   0.00000  Uiso   1.00
N140   N     0.35525   0.29404   0.34886   0.00000  Uiso   1.00
C141   C     0.43035   0.02355   0.30934   0.00000  Uiso   1.00
C142   C     0.37533   0.01884   0.28558   0.00000  Uiso   1.00
H143   H     0.36080   0.04959   0.26627   0.00000  Uiso   1.00
H144   H     0.37255   0.49102   0.25982   0.00000  Uiso   1.00
H145   H     0.35069   0.01115   0.31394   0.00000  Uiso   1.00
H146   H     0.44555   0.49026   0.32038   0.00000  Uiso   1.00
H147   H     0.43073   0.04160   0.34406   0.00000  Uiso   1.00
C148   C     0.45144   0.47920   0.16319   0.00000  Uiso   1.00
C149   C     0.39578   0.49237   0.16314   0.00000  Uiso   1.00
H150   H     0.37346   0.46422   0.17458   0.00000  Uiso   1.00
H151   H     0.39294   0.02072   0.18754   0.00000  Uiso   1.00
H152   H     0.37925   0.00293   0.12588   0.00000  Uiso   1.00
H153   H     0.47360   0.00918   0.15764   0.00000  Uiso   1.00
H154   H     0.45492   0.45900   0.13057   0.00000  Uiso   1.00
C155   C     0.42563   0.11884   0.29766   0.00000  Uiso   1.00
N156   N     0.39553   0.13854   0.31559   0.00000  Uiso   1.00
C157   C     0.44003   0.38462   0.17228   0.00000  Uiso   1.00
N158   N     0.41465   0.36639   0.14182   0.00000  Uiso   1.00
C159   C     0.57605   0.11593   0.20800   0.00000  Uiso   1.00
N160   N     0.60827   0.13361   0.19138   0.00000  Uiso   1.00
C161   C     0.56104   0.38239   0.32607   0.00000  Uiso   1.00
N162   N     0.58681   0.36345   0.35655   0.00000  Uiso   1.00
C163   C     0.57365   0.02266   0.20646   0.00000  Uiso   1.00
N164   N     0.60389   0.00313   0.18856   0.00000  Uiso   1.00
C165   C     0.55640   0.47575   0.32813   0.00000  Uiso   1.00
N166   N     0.57952   0.49446   0.35966   0.00000  Uiso   1.00
C167   C     0.55727   0.31732   0.12879   0.00000  Uiso   1.00
C168   C     0.60714   0.32387   0.10721   0.00000  Uiso   1.00
H169   H     0.62496   0.29172   0.10022   0.00000  Uiso   1.00
H170   H     0.60046   0.34333   0.07280   0.00000  Uiso   1.00
H171   H     0.63428   0.34254   0.13309   0.00000  Uiso   1.00
H172   H     0.53566   0.34904   0.12631   0.00000  Uiso   1.00
H173   H     0.56890   0.30968   0.16723   0.00000  Uiso   1.00
C174   C     0.56725   0.18886   0.38786   0.00000  Uiso   1.00
C175   C     0.62057   0.20159   0.41120   0.00000  Uiso   1.00
H176   H     0.62845   0.23631   0.40181   0.00000  Uiso   1.00
H177   H     0.64942   0.17988   0.39745   0.00000  Uiso   1.00
H178   H     0.62444   0.19777   0.45138   0.00000  Uiso   1.00
H179   H     0.55907   0.15472   0.39929   0.00000  Uiso   1.00
H180   H     0.56840   0.18791   0.34871   0.00000  Uiso   1.00
C181   C     0.43633   0.18289   0.02718   0.00000  Uiso   1.00
N182   N     0.41254   0.15526   0.00708   0.00000  Uiso   1.00
C183   C     0.43220   0.31530   0.45634   0.00000  Uiso   1.00
N184   N     0.40669   0.34232   0.47021   0.00000  Uiso   1.00
C185   C     0.83304   0.16509   0.25022   0.00000  Uiso   1.00
C186   C     0.83314   0.33505   0.24977   0.00000  Uiso   1.00
C187   C     0.84918   0.28278   0.05240   0.00000  Uiso   1.00
C188   C     0.85317   0.21873   0.45213   0.00000  Uiso   1.00
C189   C     0.85702   0.28171   0.10387   0.00000  Uiso   1.00
C190   C     0.86042   0.22007   0.40252   0.00000  Uiso   1.00
C191   C     0.80471   0.21861   0.10366   0.00000  Uiso   1.00
C192   C     0.80338   0.28091   0.38909   0.00000  Uiso   1.00
C193   C     0.79928   0.21737   0.05216   0.00000  Uiso   1.00
C194   C     0.79730   0.28159   0.43908   0.00000  Uiso   1.00
C195   C     0.82159   0.25026   0.02580   0.00000  Uiso   1.00
C196   C     0.82181   0.24936   0.47131   0.00000  Uiso   1.00
C197   C     0.73484   0.25013   0.23779   0.00000  Uiso   1.00
C198   C     0.93179   0.25051   0.26208   0.00000  Uiso   1.00
C199   C     0.68035   0.24617   0.23130   0.00000  Uiso   1.00
C200   C     0.98604   0.25593   0.26790   0.00000  Uiso   1.00
C201   C     0.79711   0.04766   0.27688   0.00000  Uiso   1.00
C202   C     0.80669   0.45393   0.20934   0.00000  Uiso   1.00
C203   C     0.79671   0.09417   0.27508   0.00000  Uiso   1.00
C204   C     0.80518   0.40751   0.21049   0.00000  Uiso   1.00
C205   C     0.83270   0.11677   0.25096   0.00000  Uiso   1.00
C206   C     0.83324   0.38359   0.24943   0.00000  Uiso   1.00
C207   C     0.86944   0.09318   0.22891   0.00000  Uiso   1.00
C208   C     0.86203   0.40621   0.28783   0.00000  Uiso   1.00
C209   C     0.86891   0.04712   0.22894   0.00000  Uiso   1.00
C210   C     0.86069   0.45232   0.28847   0.00000  Uiso   1.00
C211   C     0.83198   0.02451   0.25146   0.00000  Uiso   1.00
C212   C     0.83209   0.47599   0.25008   0.00000  Uiso   1.00
Cu213  Cu    0.83333   0.25000   0.29821   0.00000  Uiso   1.00
Cu214  Cu    0.83333   0.25001   0.20178   0.00000  Uiso   1.00
H215   H     0.86620   0.30833   0.03252   0.00000  Uiso   1.00
H216   H     0.87402   0.19471   0.47652   0.00000  Uiso   1.00
H217   H     0.78553   0.19425   0.12324   0.00000  Uiso   1.00
H218   H     0.78436   0.30572   0.36476   0.00000  Uiso   1.00
N219   N     0.83333   0.25001   0.12934   0.00000  Uiso   1.00
N220   N     0.83333   0.24999   0.37065   0.00000  Uiso   1.00
O221   O     0.83334   0.18573   0.29071   0.00000  Uiso   1.00
O222   O     0.83333   0.31428   0.20928   0.00000  Uiso   1.00
O223   O     0.83334   0.18573   0.20928   0.00000  Uiso   1.00
O224   O     0.83333   0.31427   0.29072   0.00000  Uiso   1.00
O225   O     0.75828   0.25000   0.28132   0.00000  Uiso   1.00
O226   O     0.90839   0.25001   0.21868   0.00000  Uiso   1.00
O227   O     0.75828   0.25000   0.19988   0.00000  Uiso   1.00
O228   O     0.90839   0.25000   0.30011   0.00000  Uiso   1.00
C229   C     0.99202   0.22840   0.18466   0.00000  Uiso   1.00
N230   N     0.97529   0.21443   0.14734   0.00000  Uiso   1.00
C231   C     0.67344   0.27697   0.31285   0.00000  Uiso   1.00
N232   N     0.68858   0.29404   0.34886   0.00000  Uiso   1.00
C233   C     0.76368   0.02355   0.30934   0.00000  Uiso   1.00
C234   C     0.70867   0.01884   0.28558   0.00000  Uiso   1.00
H235   H     0.69413   0.04959   0.26627   0.00000  Uiso   1.00
H236   H     0.70589   0.49102   0.25982   0.00000  Uiso   1.00
H237   H     0.68402   0.01115   0.31394   0.00000  Uiso   1.00
H238   H     0.77888   0.49026   0.32038   0.00000  Uiso   1.00
H239   H     0.76406   0.04160   0.34406   0.00000  Uiso   1.00
C240   C     0.78477   0.47920   0.16319   0.00000  Uiso   1.00
C241   C     0.72912   0.49237   0.16314   0.00000  Uiso   1.00
H242   H     0.70679   0.46422   0.17458   0.00000  Uiso   1.00
H243   H     0.72627   0.02072   0.18754   0.00000  Uiso   1.00
H244   H     0.71258   0.00293   0.12588   0.00000  Uiso   1.00
H245   H     0.80693   0.00918   0.15764   0.00000  Uiso   1.00
H246   H     0.78825   0.45900   0.13057   0.00000  Uiso   1.00
C247   C     0.75897   0.11884   0.29766   0.00000  Uiso   1.00
N248   N     0.72887   0.13854   0.31559   0.00000  Uiso   1.00
C249   C     0.77337   0.38462   0.17228   0.00000  Uiso   1.00
N250   N     0.74798   0.36639   0.14182   0.00000  Uiso   1.00
C251   C     0.90939   0.11593   0.20800   0.00000  Uiso   1.00
N252   N     0.94160   0.13361   0.19138   0.00000  Uiso   1.00
C253   C     0.89437   0.38239   0.32607   0.00000  Uiso   1.00
N254   N     0.92014   0.36345   0.35655   0.00000  Uiso   1.00
C255   C     0.90698   0.02266   0.20646   0.00000  Uiso   1.00
N256   N     0.93722   0.00313   0.18856   0.00000  Uiso   1.00
C257   C     0.88974   0.47575   0.32813   0.00000  Uiso   1.00
N258   N     0.91285   0.49446   0.35966   0.00000  Uiso   1.00
C259   C     0.89061   0.31732   0.12879   0.00000  Uiso   1.00
C260   C     0.94047   0.32387   0.10721   0.00000  Uiso   1.00
H261   H     0.95830   0.29172   0.10022   0.00000  Uiso   1.00
H262   H     0.93379   0.34333   0.07280   0.00000  Uiso   1.00
H263   H     0.96762   0.34254   0.13309   0.00000  Uiso   1.00
H264   H     0.86900   0.34904   0.12631   0.00000  Uiso   1.00
H265   H     0.90223   0.30968   0.16723   0.00000  Uiso   1.00
C266   C     0.90058   0.18886   0.38786   0.00000  Uiso   1.00
C267   C     0.95390   0.20159   0.41120   0.00000  Uiso   1.00
H268   H     0.96179   0.23631   0.40181   0.00000  Uiso   1.00
H269   H     0.98275   0.17988   0.39745   0.00000  Uiso   1.00
H270   H     0.95778   0.19777   0.45138   0.00000  Uiso   1.00
H271   H     0.89240   0.15472   0.39929   0.00000  Uiso   1.00
H272   H     0.90173   0.18791   0.34871   0.00000  Uiso   1.00
C273   C     0.76966   0.18289   0.02718   0.00000  Uiso   1.00
N274   N     0.74587   0.15526   0.00708   0.00000  Uiso   1.00
C275   C     0.76553   0.31530   0.45634   0.00000  Uiso   1.00
N276   N     0.74003   0.34232   0.47021   0.00000  Uiso   1.00
C277   C     0.16637   0.66509   0.25022   0.00000  Uiso   1.00
C278   C     0.16648   0.83505   0.24977   0.00000  Uiso   1.00
C279   C     0.18252   0.78278   0.05240   0.00000  Uiso   1.00
C280   C     0.18651   0.71873   0.45213   0.00000  Uiso   1.00
C281   C     0.19035   0.78171   0.10387   0.00000  Uiso   1.00
C282   C     0.19376   0.72007   0.40252   0.00000  Uiso   1.00
C283   C     0.13805   0.71861   0.10366   0.00000  Uiso   1.00
C284   C     0.13672   0.78091   0.38909   0.00000  Uiso   1.00
C285   C     0.13261   0.71737   0.05216   0.00000  Uiso   1.00
C286   C     0.13063   0.78159   0.43908   0.00000  Uiso   1.00
C287   C     0.15492   0.75026   0.02580   0.00000  Uiso   1.00
C288   C     0.15514   0.74936   0.47131   0.00000  Uiso   1.00
C289   C     0.06817   0.75013   0.23779   0.00000  Uiso   1.00
C290   C     0.26512   0.75051   0.26208   0.00000  Uiso   1.00
C291   C     0.01369   0.74617   0.23130   0.00000  Uiso   1.00
C292   C     0.31938   0.75593   0.26790   0.00000  Uiso   1.00
C293   C     0.13045   0.54766   0.27688   0.00000  Uiso   1.00
C294   C     0.14002   0.95393   0.20934   0.00000  Uiso   1.00
C295   C     0.13004   0.59417   0.27508   0.00000  Uiso   1.00
C296   C     0.13852   0.90751   0.21049   0.00000  Uiso   1.00
C297   C     0.16603   0.61677   0.25096   0.00000  Uiso   1.00
C298   C     0.16657   0.88359   0.24943   0.00000  Uiso   1.00
C299   C     0.20278   0.59318   0.22891   0.00000  Uiso   1.00
C300   C     0.19537   0.90621   0.28783   0.00000  Uiso   1.00
C301   C     0.20225   0.54712   0.22894   0.00000  Uiso   1.00
C302   C     0.19402   0.95232   0.28847   0.00000  Uiso   1.00
C303   C     0.16531   0.52451   0.25146   0.00000  Uiso   1.00
C304   C     0.16543   0.97599   0.25008   0.00000  Uiso   1.00
Cu305  Cu    0.16667   0.75000   0.29821   0.00000  Uiso   1.00
Cu306  Cu    0.16667   0.75001   0.20178   0.00000  Uiso   1.00
H307   H     0.19954   0.80833   0.03252   0.00000  Uiso   1.00
H308   H     0.20736   0.69471   0.47652   0.00000  Uiso   1.00
H309   H     0.11886   0.69425   0.12324   0.00000  Uiso   1.00
H310   H     0.11770   0.80572   0.36476   0.00000  Uiso   1.00
N311   N     0.16667   0.75001   0.12934   0.00000  Uiso   1.00
N312   N     0.16667   0.74999   0.37065   0.00000  Uiso   1.00
O313   O     0.16667   0.68573   0.29071   0.00000  Uiso   1.00
O314   O     0.16666   0.81428   0.20928   0.00000  Uiso   1.00
O315   O     0.16667   0.68573   0.20928   0.00000  Uiso   1.00
O316   O     0.16666   0.81427   0.29072   0.00000  Uiso   1.00
O317   O     0.09161   0.75000   0.28132   0.00000  Uiso   1.00
O318   O     0.24172   0.75001   0.21868   0.00000  Uiso   1.00
O319   O     0.09161   0.75000   0.19988   0.00000  Uiso   1.00
O320   O     0.24172   0.75000   0.30011   0.00000  Uiso   1.00
C321   C     0.32535   0.72840   0.18466   0.00000  Uiso   1.00
N322   N     0.30863   0.71443   0.14734   0.00000  Uiso   1.00
C323   C     0.00677   0.77697   0.31285   0.00000  Uiso   1.00
N324   N     0.02192   0.79404   0.34886   0.00000  Uiso   1.00
C325   C     0.09702   0.52355   0.30934   0.00000  Uiso   1.00
C326   C     0.04200   0.51884   0.28558   0.00000  Uiso   1.00
H327   H     0.02746   0.54959   0.26627   0.00000  Uiso   1.00
H328   H     0.03922   0.99102   0.25982   0.00000  Uiso   1.00
H329   H     0.01735   0.51115   0.31394   0.00000  Uiso   1.00
H330   H     0.11222   0.99026   0.32038   0.00000  Uiso   1.00
H331   H     0.09740   0.54160   0.34406   0.00000  Uiso   1.00
C332   C     0.11811   0.97920   0.16319   0.00000  Uiso   1.00
C333   C     0.06245   0.99237   0.16314   0.00000  Uiso   1.00
H334   H     0.04013   0.96422   0.17458   0.00000  Uiso   1.00
H335   H     0.05961   0.52072   0.18754   0.00000  Uiso   1.00
H336   H     0.04591   0.50293   0.12588   0.00000  Uiso   1.00
H337   H     0.14027   0.50918   0.15764   0.00000  Uiso   1.00
H338   H     0.12159   0.95900   0.13057   0.00000  Uiso   1.00
C339   C     0.09230   0.61884   0.29766   0.00000  Uiso   1.00
N340   N     0.06220   0.63854   0.31559   0.00000  Uiso   1.00
C341   C     0.10670   0.88462   0.17228   0.00000  Uiso   1.00
N342   N     0.08132   0.86639   0.14182   0.00000  Uiso   1.00
C343   C     0.24272   0.61593   0.20800   0.00000  Uiso   1.00
N344   N     0.27493   0.63361   0.19138   0.00000  Uiso   1.00
C345   C     0.22771   0.88239   0.32607   0.00000  Uiso   1.00
N346   N     0.25348   0.86345   0.35655   0.00000  Uiso   1.00
C347   C     0.24032   0.52266   0.20646   0.00000  Uiso   1.00
N348   N     0.27055   0.50313   0.18856   0.00000  Uiso   1.00
C349   C     0.22307   0.97575   0.32813   0.00000  Uiso   1.00
N350   N     0.24619   0.99446   0.35966   0.00000  Uiso   1.00
C351   C     0.22394   0.81732   0.12879   0.00000  Uiso   1.00
C352   C     0.27381   0.82387   0.10721   0.00000  Uiso   1.00
H353   H     0.29163   0.79172   0.10022   0.00000  Uiso   1.00
H354   H     0.26712   0.84333   0.07280   0.00000  Uiso   1.00
H355   H     0.30095   0.84254   0.13309   0.00000  Uiso   1.00
H356   H     0.20233   0.84904   0.12631   0.00000  Uiso   1.00
H357   H     0.23556   0.80968   0.16723   0.00000  Uiso   1.00
C358   C     0.23392   0.68886   0.38786   0.00000  Uiso   1.00
C359   C     0.28724   0.70159   0.41120   0.00000  Uiso   1.00
H360   H     0.29512   0.73631   0.40181   0.00000  Uiso   1.00
H361   H     0.31609   0.67988   0.39745   0.00000  Uiso   1.00
H362   H     0.29111   0.69777   0.45138   0.00000  Uiso   1.00
H363   H     0.22573   0.65472   0.39929   0.00000  Uiso   1.00
H364   H     0.23506   0.68791   0.34871   0.00000  Uiso   1.00
C365   C     0.10299   0.68289   0.02718   0.00000  Uiso   1.00
N366   N     0.07921   0.65526   0.00708   0.00000  Uiso   1.00
C367   C     0.09886   0.81530   0.45634   0.00000  Uiso   1.00
N368   N     0.07336   0.84232   0.47021   0.00000  Uiso   1.00
C369   C     0.49970   0.66509   0.25022   0.00000  Uiso   1.00
C370   C     0.49981   0.83505   0.24977   0.00000  Uiso   1.00
C371   C     0.51585   0.78278   0.05240   0.00000  Uiso   1.00
C372   C     0.51984   0.71873   0.45213   0.00000  Uiso   1.00
C373   C     0.52368   0.78171   0.10387   0.00000  Uiso   1.00
C374   C     0.52709   0.72007   0.40252   0.00000  Uiso   1.00
C375   C     0.47138   0.71861   0.10366   0.00000  Uiso   1.00
C376   C     0.47005   0.78091   0.38909   0.00000  Uiso   1.00
C377   C     0.46594   0.71737   0.05216   0.00000  Uiso   1.00
C378   C     0.46396   0.78159   0.43908   0.00000  Uiso   1.00
C379   C     0.48826   0.75026   0.02580   0.00000  Uiso   1.00
C380   C     0.48847   0.74936   0.47131   0.00000  Uiso   1.00
C381   C     0.40150   0.75013   0.23779   0.00000  Uiso   1.00
C382   C     0.59845   0.75051   0.26208   0.00000  Uiso   1.00
C383   C     0.34702   0.74617   0.23130   0.00000  Uiso   1.00
C384   C     0.65271   0.75593   0.26790   0.00000  Uiso   1.00
C385   C     0.46378   0.54766   0.27688   0.00000  Uiso   1.00
C386   C     0.47335   0.95393   0.20934   0.00000  Uiso   1.00
C387   C     0.46338   0.59417   0.27508   0.00000  Uiso   1.00
C388   C     0.47185   0.90751   0.21049   0.00000  Uiso   1.00
C389   C     0.49937   0.61677   0.25096   0.00000  Uiso   1.00
C390   C     0.49991   0.88359   0.24943   0.00000  Uiso   1.00
C391   C     0.53611   0.59318   0.22891   0.00000  Uiso   1.00
C392   C     0.52870   0.90621   0.28783   0.00000  Uiso   1.00
C393   C     0.53558   0.54712   0.22894   0.00000  Uiso   1.00
C394   C     0.52736   0.95232   0.28847   0.00000  Uiso   1.00
C395   C     0.49865   0.52451   0.25146   0.00000  Uiso   1.00
C396   C     0.49876   0.97599   0.25008   0.00000  Uiso   1.00
Cu397  Cu    0.50000   0.75000   0.29821   0.00000  Uiso   1.00
Cu398  Cu    0.50000   0.75001   0.20178   0.00000  Uiso   1.00
H399   H     0.53287   0.80833   0.03252   0.00000  Uiso   1.00
H400   H     0.54069   0.69471   0.47652   0.00000  Uiso   1.00
H401   H     0.45219   0.69425   0.12324   0.00000  Uiso   1.00
H402   H     0.45103   0.80572   0.36476   0.00000  Uiso   1.00
N403   N     0.50000   0.75001   0.12934   0.00000  Uiso   1.00
N404   N     0.50000   0.74999   0.37065   0.00000  Uiso   1.00
O405   O     0.50000   0.68573   0.29071   0.00000  Uiso   1.00
O406   O     0.50000   0.81428   0.20928   0.00000  Uiso   1.00
O407   O     0.50000   0.68573   0.20928   0.00000  Uiso   1.00
O408   O     0.50000   0.81427   0.29072   0.00000  Uiso   1.00
O409   O     0.42495   0.75000   0.28132   0.00000  Uiso   1.00
O410   O     0.57505   0.75001   0.21868   0.00000  Uiso   1.00
O411   O     0.42495   0.75000   0.19988   0.00000  Uiso   1.00
O412   O     0.57505   0.75000   0.30011   0.00000  Uiso   1.00
C413   C     0.65869   0.72840   0.18466   0.00000  Uiso   1.00
N414   N     0.64196   0.71443   0.14734   0.00000  Uiso   1.00
C415   C     0.34011   0.77697   0.31285   0.00000  Uiso   1.00
N416   N     0.35525   0.79404   0.34886   0.00000  Uiso   1.00
C417   C     0.43035   0.52355   0.30934   0.00000  Uiso   1.00
C418   C     0.37533   0.51884   0.28558   0.00000  Uiso   1.00
H419   H     0.36080   0.54959   0.26627   0.00000  Uiso   1.00
H420   H     0.37255   0.99102   0.25982   0.00000  Uiso   1.00
H421   H     0.35069   0.51115   0.31394   0.00000  Uiso   1.00
H422   H     0.44555   0.99026   0.32038   0.00000  Uiso   1.00
H423   H     0.43073   0.54160   0.34406   0.00000  Uiso   1.00
C424   C     0.45144   0.97920   0.16319   0.00000  Uiso   1.00
C425   C     0.39578   0.99237   0.16314   0.00000  Uiso   1.00
H426   H     0.37346   0.96422   0.17458   0.00000  Uiso   1.00
H427   H     0.39294   0.52072   0.18754   0.00000  Uiso   1.00
H428   H     0.37925   0.50293   0.12588   0.00000  Uiso   1.00
H429   H     0.47360   0.50918   0.15764   0.00000  Uiso   1.00
H430   H     0.45492   0.95900   0.13057   0.00000  Uiso   1.00
C431   C     0.42563   0.61884   0.29766   0.00000  Uiso   1.00
N432   N     0.39553   0.63854   0.31559   0.00000  Uiso   1.00
C433   C     0.44003   0.88462   0.17228   0.00000  Uiso   1.00
N434   N     0.41465   0.86639   0.14182   0.00000  Uiso   1.00
C435   C     0.57605   0.61593   0.20800   0.00000  Uiso   1.00
N436   N     0.60827   0.63361   0.19138   0.00000  Uiso   1.00
C437   C     0.56104   0.88239   0.32607   0.00000  Uiso   1.00
N438   N     0.58681   0.86345   0.35655   0.00000  Uiso   1.00
C439   C     0.57365   0.52266   0.20646   0.00000  Uiso   1.00
N440   N     0.60389   0.50313   0.18856   0.00000  Uiso   1.00
C441   C     0.55640   0.97575   0.32813   0.00000  Uiso   1.00
N442   N     0.57952   0.99446   0.35966   0.00000  Uiso   1.00
C443   C     0.55727   0.81732   0.12879   0.00000  Uiso   1.00
C444   C     0.60714   0.82387   0.10721   0.00000  Uiso   1.00
H445   H     0.62496   0.79172   0.10022   0.00000  Uiso   1.00
H446   H     0.60046   0.84333   0.07280   0.00000  Uiso   1.00
H447   H     0.63428   0.84254   0.13309   0.00000  Uiso   1.00
H448   H     0.53566   0.84904   0.12631   0.00000  Uiso   1.00
H449   H     0.56890   0.80968   0.16723   0.00000  Uiso   1.00
C450   C     0.56725   0.68886   0.38786   0.00000  Uiso   1.00
C451   C     0.62057   0.70159   0.41120   0.00000  Uiso   1.00
H452   H     0.62845   0.73631   0.40181   0.00000  Uiso   1.00
H453   H     0.64942   0.67988   0.39745   0.00000  Uiso   1.00
H454   H     0.62444   0.69777   0.45138   0.00000  Uiso   1.00
H455   H     0.55907   0.65472   0.39929   0.00000  Uiso   1.00
H456   H     0.56840   0.68791   0.34871   0.00000  Uiso   1.00
C457   C     0.43633   0.68289   0.02718   0.00000  Uiso   1.00
N458   N     0.41254   0.65526   0.00708   0.00000  Uiso   1.00
C459   C     0.43220   0.81530   0.45634   0.00000  Uiso   1.00
N460   N     0.40669   0.84232   0.47021   0.00000  Uiso   1.00
C461   C     0.83304   0.66509   0.25022   0.00000  Uiso   1.00
C462   C     0.83314   0.83505   0.24977   0.00000  Uiso   1.00
C463   C     0.84918   0.78278   0.05240   0.00000  Uiso   1.00
C464   C     0.85317   0.71873   0.45213   0.00000  Uiso   1.00
C465   C     0.85702   0.78171   0.10387   0.00000  Uiso   1.00
C466   C     0.86042   0.72007   0.40252   0.00000  Uiso   1.00
C467   C     0.80471   0.71861   0.10366   0.00000  Uiso   1.00
C468   C     0.80338   0.78091   0.38909   0.00000  Uiso   1.00
C469   C     0.79928   0.71737   0.05216   0.00000  Uiso   1.00
C470   C     0.79730   0.78159   0.43908   0.00000  Uiso   1.00
C471   C     0.82159   0.75026   0.02580   0.00000  Uiso   1.00
C472   C     0.82181   0.74936   0.47131   0.00000  Uiso   1.00
C473   C     0.73484   0.75013   0.23779   0.00000  Uiso   1.00
C474   C     0.93179   0.75051   0.26208   0.00000  Uiso   1.00
C475   C     0.68035   0.74617   0.23130   0.00000  Uiso   1.00
C476   C     0.98604   0.75593   0.26790   0.00000  Uiso   1.00
C477   C     0.79711   0.54766   0.27688   0.00000  Uiso   1.00
C478   C     0.80669   0.95393   0.20934   0.00000  Uiso   1.00
C479   C     0.79671   0.59417   0.27508   0.00000  Uiso   1.00
C480   C     0.80518   0.90751   0.21049   0.00000  Uiso   1.00
C481   C     0.83270   0.61677   0.25096   0.00000  Uiso   1.00
C482   C     0.83324   0.88359   0.24943   0.00000  Uiso   1.00
C483   C     0.86944   0.59318   0.22891   0.00000  Uiso   1.00
C484   C     0.86203   0.90621   0.28783   0.00000  Uiso   1.00
C485   C     0.86891   0.54712   0.22894   0.00000  Uiso   1.00
C486   C     0.86069   0.95232   0.28847   0.00000  Uiso   1.00
C487   C     0.83198   0.52451   0.25146   0.00000  Uiso   1.00
C488   C     0.83209   0.97599   0.25008   0.00000  Uiso   1.00
Cu489  Cu    0.83333   0.75000   0.29821   0.00000  Uiso   1.00
Cu490  Cu    0.83333   0.75001   0.20178   0.00000  Uiso   1.00
H491   H     0.86620   0.80833   0.03252   0.00000  Uiso   1.00
H492   H     0.87402   0.69471   0.47652   0.00000  Uiso   1.00
H493   H     0.78553   0.69425   0.12324   0.00000  Uiso   1.00
H494   H     0.78436   0.80572   0.36476   0.00000  Uiso   1.00
N495   N     0.83333   0.75001   0.12934   0.00000  Uiso   1.00
N496   N     0.83333   0.74999   0.37065   0.00000  Uiso   1.00
O497   O     0.83334   0.68573   0.29071   0.00000  Uiso   1.00
O498   O     0.83333   0.81428   0.20928   0.00000  Uiso   1.00
O499   O     0.83334   0.68573   0.20928   0.00000  Uiso   1.00
O500   O     0.83333   0.81427   0.29072   0.00000  Uiso   1.00
O501   O     0.75828   0.75000   0.28132   0.00000  Uiso   1.00
O502   O     0.90839   0.75001   0.21868   0.00000  Uiso   1.00
O503   O     0.75828   0.75000   0.19988   0.00000  Uiso   1.00
O504   O     0.90839   0.75000   0.30011   0.00000  Uiso   1.00
C505   C     0.99202   0.72840   0.18466   0.00000  Uiso   1.00
N506   N     0.97529   0.71443   0.14734   0.00000  Uiso   1.00
C507   C     0.67344   0.77697   0.31285   0.00000  Uiso   1.00
N508   N     0.68858   0.79404   0.34886   0.00000  Uiso   1.00
C509   C     0.76368   0.52355   0.30934   0.00000  Uiso   1.00
C510   C     0.70867   0.51884   0.28558   0.00000  Uiso   1.00
H511   H     0.69413   0.54959   0.26627   0.00000  Uiso   1.00
H512   H     0.70589   0.99102   0.25982   0.00000  Uiso   1.00
H513   H     0.68402   0.51115   0.31394   0.00000  Uiso   1.00
H514   H     0.77888   0.99026   0.32038   0.00000  Uiso   1.00
H515   H     0.76406   0.54160   0.34406   0.00000  Uiso   1.00
C516   C     0.78477   0.97920   0.16319   0.00000  Uiso   1.00
C517   C     0.72912   0.99237   0.16314   0.00000  Uiso   1.00
H518   H     0.70679   0.96422   0.17458   0.00000  Uiso   1.00
H519   H     0.72627   0.52072   0.18754   0.00000  Uiso   1.00
H520   H     0.71258   0.50293   0.12588   0.00000  Uiso   1.00
H521   H     0.80693   0.50918   0.15764   0.00000  Uiso   1.00
H522   H     0.78825   0.95900   0.13057   0.00000  Uiso   1.00
C523   C     0.75897   0.61884   0.29766   0.00000  Uiso   1.00
N524   N     0.72887   0.63854   0.31559   0.00000  Uiso   1.00
C525   C     0.77337   0.88462   0.17228   0.00000  Uiso   1.00
N526   N     0.74798   0.86639   0.14182   0.00000  Uiso   1.00
C527   C     0.90939   0.61593   0.20800   0.00000  Uiso   1.00
N528   N     0.94160   0.63361   0.19138   0.00000  Uiso   1.00
C529   C     0.89437   0.88239   0.32607   0.00000  Uiso   1.00
N530   N     0.92014   0.86345   0.35655   0.00000  Uiso   1.00
C531   C     0.90698   0.52266   0.20646   0.00000  Uiso   1.00
N532   N     0.93722   0.50313   0.18856   0.00000  Uiso   1.00
C533   C     0.88974   0.97575   0.32813   0.00000  Uiso   1.00
N534   N     0.91285   0.99446   0.35966   0.00000  Uiso   1.00
C535   C     0.89061   0.81732   0.12879   0.00000  Uiso   1.00
C536   C     0.94047   0.82387   0.10721   0.00000  Uiso   1.00
H537   H     0.95830   0.79172   0.10022   0.00000  Uiso   1.00
H538   H     0.93379   0.84333   0.07280   0.00000  Uiso   1.00
H539   H     0.96762   0.84254   0.13309   0.00000  Uiso   1.00
H540   H     0.86900   0.84904   0.12631   0.00000  Uiso   1.00
H541   H     0.90223   0.80968   0.16723   0.00000  Uiso   1.00
C542   C     0.90058   0.68886   0.38786   0.00000  Uiso   1.00
C543   C     0.95390   0.70159   0.41120   0.00000  Uiso   1.00
H544   H     0.96179   0.73631   0.40181   0.00000  Uiso   1.00
H545   H     0.98275   0.67988   0.39745   0.00000  Uiso   1.00
H546   H     0.95778   0.69777   0.45138   0.00000  Uiso   1.00
H547   H     0.89240   0.65472   0.39929   0.00000  Uiso   1.00
H548   H     0.90173   0.68791   0.34871   0.00000  Uiso   1.00
C549   C     0.76966   0.68289   0.02718   0.00000  Uiso   1.00
N550   N     0.74587   0.65526   0.00708   0.00000  Uiso   1.00
C551   C     0.76553   0.81530   0.45634   0.00000  Uiso   1.00
N552   N     0.74003   0.84232   0.47021   0.00000  Uiso   1.00
C553   C     0.16637   0.16509   0.75022   0.00000  Uiso   1.00
C554   C     0.16648   0.33505   0.74977   0.00000  Uiso   1.00
C555   C     0.18252   0.28278   0.55240   0.00000  Uiso   1.00
C556   C     0.18651   0.21873   0.95213   0.00000  Uiso   1.00
C557   C     0.19035   0.28171   0.60387   0.00000  Uiso   1.00
C558   C     0.19376   0.22007   0.90252   0.00000  Uiso   1.00
C559   C     0.13805   0.21861   0.60366   0.00000  Uiso   1.00
C560   C     0.13672   0.28091   0.88909   0.00000  Uiso   1.00
C561   C     0.13261   0.21737   0.55216   0.00000  Uiso   1.00
C562   C     0.13063   0.28159   0.93908   0.00000  Uiso   1.00
C563   C     0.15492   0.25026   0.52580   0.00000  Uiso   1.00
C564   C     0.15514   0.24936   0.97131   0.00000  Uiso   1.00
C565   C     0.06817   0.25013   0.73779   0.00000  Uiso   1.00
C566   C     0.26512   0.25051   0.76208   0.00000  Uiso   1.00
C567   C     0.01369   0.24617   0.73130   0.00000  Uiso   1.00
C568   C     0.31938   0.25593   0.76790   0.00000  Uiso   1.00
C569   C     0.13045   0.04766   0.77688   0.00000  Uiso   1.00
C570   C     0.14002   0.45393   0.70934   0.00000  Uiso   1.00
C571   C     0.13004   0.09417   0.77508   0.00000  Uiso   1.00
C572   C     0.13852   0.40751   0.71049   0.00000  Uiso   1.00
C573   C     0.16603   0.11677   0.75096   0.00000  Uiso   1.00
C574   C     0.16657   0.38359   0.74943   0.00000  Uiso   1.00
C575   C     0.20278   0.09318   0.72891   0.00000  Uiso   1.00
C576   C     0.19537   0.40621   0.78783   0.00000  Uiso   1.00
C577   C     0.20225   0.04712   0.72894   0.00000  Uiso   1.00
C578   C     0.19402   0.45232   0.78847   0.00000  Uiso   1.00
C579   C     0.16531   0.02451   0.75146   0.00000  Uiso   1.00
C580   C     0.16543   0.47599   0.75008   0.00000  Uiso   1.00
Cu581  Cu    0.16667   0.25000   0.79821   0.00000  Uiso   1.00
Cu582  Cu    0.16667   0.25001   0.70178   0.00000  Uiso   1.00
H583   H     0.19954   0.30833   0.53252   0.00000  Uiso   1.00
H584   H     0.20736   0.19471   0.97652   0.00000  Uiso   1.00
H585   H     0.11886   0.19425   0.62324   0.00000  Uiso   1.00
H586   H     0.11770   0.30572   0.86476   0.00000  Uiso   1.00
N587   N     0.16667   0.25001   0.62934   0.00000  Uiso   1.00
N588   N     0.16667   0.24999   0.87065   0.00000  Uiso   1.00
O589   O     0.16667   0.18573   0.79071   0.00000  Uiso   1.00
O590   O     0.16666   0.31428   0.70928   0.00000  Uiso   1.00
O591   O     0.16667   0.18573   0.70928   0.00000  Uiso   1.00
O592   O     0.16666   0.31427   0.79072   0.00000  Uiso   1.00
O593   O     0.09161   0.25000   0.78132   0.00000  Uiso   1.00
O594   O     0.24172   0.25001   0.71868   0.00000  Uiso   1.00
O595   O     0.09161   0.25000   0.69988   0.00000  Uiso   1.00
O596   O     0.24172   0.25000   0.80011   0.00000  Uiso   1.00
C597   C     0.32535   0.22840   0.68466   0.00000  Uiso   1.00
N598   N     0.30863   0.21443   0.64734   0.00000  Uiso   1.00
C599   C     0.00677   0.27697   0.81285   0.00000  Uiso   1.00
N600   N     0.02192   0.29404   0.84886   0.00000  Uiso   1.00
C601   C     0.09702   0.02355   0.80934   0.00000  Uiso   1.00
C602   C     0.04200   0.01884   0.78558   0.00000  Uiso   1.00
H603   H     0.02746   0.04959   0.76627   0.00000  Uiso   1.00
H604   H     0.03922   0.49102   0.75982   0.00000  Uiso   1.00
H605   H     0.01735   0.01115   0.81394   0.00000  Uiso   1.00
H606   H     0.11222   0.49026   0.82038   0.00000  Uiso   1.00
H607   H     0.09740   0.04160   0.84406   0.00000  Uiso   1.00
C608   C     0.11811   0.47920   0.66319   0.00000  Uiso   1.00
C609   C     0.06245   0.49237   0.66314   0.00000  Uiso   1.00
H610   H     0.04013   0.46422   0.67458   0.00000  Uiso   1.00
H611   H     0.05961   0.02072   0.68754   0.00000  Uiso   1.00
H612   H     0.04591   0.00293   0.62588   0.00000  Uiso   1.00
H613   H     0.14027   0.00918   0.65764   0.00000  Uiso   1.00
H614   H     0.12159   0.45900   0.63057   0.00000  Uiso   1.00
C615   C     0.09230   0.11884   0.79766   0.00000  Uiso   1.00
N616   N     0.06220   0.13854   0.81559   0.00000  Uiso   1.00
C617   C     0.10670   0.38462   0.67228   0.00000  Uiso   1.00
N618   N     0.08132   0.36639   0.64182   0.00000  Uiso   1.00
C619   C     0.24272   0.11593   0.70800   0.00000  Uiso   1.00
N620   N     0.27493   0.13361   0.69138   0.00000  Uiso   1.00
C621   C     0.22771   0.38239   0.82607   0.00000  Uiso   1.00
N622   N     0.25348   0.36345   0.85655   0.00000  Uiso   1.00
C623   C     0.24032   0.02266   0.70646   0.00000  Uiso   1.00
N624   N     0.27055   0.00313   0.68856   0.00000  Uiso   1.00
C625   C     0.22307   0.47575   0.82813   0.00000  Uiso   1.00
N626   N     0.24619   0.49446   0.85966   0.00000  Uiso   1.00
C627   C     0.22394   0.31732   0.62879   0.00000  Uiso   1.00
C628   C     0.27381   0.32387   0.60721   0.00000  Uiso   1.00
H629   H     0.29163   0.29172   0.60022   0.00000  Uiso   1.00
H630   H     0.26712   0.34333   0.57280   0.00000  Uiso   1.00
H631   H     0.30095   0.34254   0.63309   0.00000  Uiso   1.00
H632   H     0.20233   0.34904   0.62631   0.00000  Uiso   1.00
H633   H     0.23556   0.30968   0.66723   0.00000  Uiso   1.00
C634   C     0.23392   0.18886   0.88786   0.00000  Uiso   1.00
C635   C     0.28724   0.20159   0.91120   0.00000  Uiso   1.00
H636   H     0.29512   0.23631   0.90181   0.00000  Uiso   1.00
H637   H     0.31609   0.17988   0.89745   0.00000  Uiso   1.00
H638   H     0.29111   0.19777   0.95138   0.00000  Uiso   1.00
H639   H     0.22573   0.15472   0.89929   0.00000  Uiso   1.00
H640   H     0.23506   0.18791   0.84871   0.00000  Uiso   1.00
C641   C     0.10299   0.18289   0.52718   0.00000  Uiso   1.00
N642   N     0.07921   0.15526   0.50708   0.00000  Uiso   1.00
C643   C     0.09886   0.31530   0.95634   0.00000  Uiso   1.00
N644   N     0.07336   0.34232   0.97021   0.00000  Uiso   1.00
C645   C     0.49970   0.16509   0.75022   0.00000  Uiso   1.00
C646   C     0.49981   0.33505   0.74977   0.00000  Uiso   1.00
C647   C     0.51585   0.28278   0.55240   0.00000  Uiso   1.00
C648   C     0.51984   0.21873   0.95213   0.00000  Uiso   1.00
C649   C     0.52368   0.28171   0.60387   0.00000  Uiso   1.00
C650   C     0.52709   0.22007   0.90252   0.00000  Uiso   1.00
C651   C     0.47138   0.21861   0.60366   0.00000  Uiso   1.00
C652   C     0.47005   0.28091   0.88909   0.00000  Uiso   1.00
C653   C     0.46594   0.21737   0.55216   0.00000  Uiso   1.00
C654   C     0.46396   0.28159   0.93908   0.00000  Uiso   1.00
C655   C     0.48826   0.25026   0.52580   0.00000  Uiso   1.00
C656   C     0.48847   0.24936   0.97131   0.00000  Uiso   1.00
C657   C     0.40150   0.25013   0.73779   0.00000  Uiso   1.00
C658   C     0.59845   0.25051   0.76208   0.00000  Uiso   1.00
C659   C     0.34702   0.24617   0.73130   0.00000  Uiso   1.00
C660   C     0.65271   0.25593   0.76790   0.00000  Uiso   1.00
C661   C     0.46378   0.04766   0.77688   0.00000  Uiso   1.00
C662   C     0.47335   0.45393   0.70934   0.00000  Uiso   1.00
C663   C     0.46338   0.09417   0.77508   0.00000  Uiso   1.00
C664   C     0.47185   0.40751   0.71049   0.00000  Uiso   1.00
C665   C     0.49937   0.11677   0.75096   0.00000  Uiso   1.00
C666   C     0.49991   0.38359   0.74943   0.00000  Uiso   1.00
C667   C     0.53611   0.09318   0.72891   0.00000  Uiso   1.00
C668   C     0.52870   0.40621   0.78783   0.00000  Uiso   1.00
C669   C     0.53558   0.04712   0.72894   0.00000  Uiso   1.00
C670   C     0.52736   0.45232   0.78847   0.00000  Uiso   1.00
C671   C     0.49865   0.02451   0.75146   0.00000  Uiso   1.00
C672   C     0.49876   0.47599   0.75008   0.00000  Uiso   1.00
Cu673  Cu    0.50000   0.25000   0.79821   0.00000  Uiso   1.00
Cu674  Cu    0.50000   0.25001   0.70178   0.00000  Uiso   1.00
H675   H     0.53287   0.30833   0.53252   0.00000  Uiso   1.00
H676   H     0.54069   0.19471   0.97652   0.00000  Uiso   1.00
H677   H     0.45219   0.19425   0.62324   0.00000  Uiso   1.00
H678   H     0.45103   0.30572   0.86476   0.00000  Uiso   1.00
N679   N     0.50000   0.25001   0.62934   0.00000  Uiso   1.00
N680   N     0.50000   0.24999   0.87065   0.00000  Uiso   1.00
O681   O     0.50000   0.18573   0.79071   0.00000  Uiso   1.00
O682   O     0.50000   0.31428   0.70928   0.00000  Uiso   1.00
O683   O     0.50000   0.18573   0.70928   0.00000  Uiso   1.00
O684   O     0.50000   0.31427   0.79072   0.00000  Uiso   1.00
O685   O     0.42495   0.25000   0.78132   0.00000  Uiso   1.00
O686   O     0.57505   0.25001   0.71868   0.00000  Uiso   1.00
O687   O     0.42495   0.25000   0.69988   0.00000  Uiso   1.00
O688   O     0.57505   0.25000   0.80011   0.00000  Uiso   1.00
C689   C     0.65869   0.22840   0.68466   0.00000  Uiso   1.00
N690   N     0.64196   0.21443   0.64734   0.00000  Uiso   1.00
C691   C     0.34011   0.27697   0.81285   0.00000  Uiso   1.00
N692   N     0.35525   0.29404   0.84886   0.00000  Uiso   1.00
C693   C     0.43035   0.02355   0.80934   0.00000  Uiso   1.00
C694   C     0.37533   0.01884   0.78558   0.00000  Uiso   1.00
H695   H     0.36080   0.04959   0.76627   0.00000  Uiso   1.00
H696   H     0.37255   0.49102   0.75982   0.00000  Uiso   1.00
H697   H     0.35069   0.01115   0.81394   0.00000  Uiso   1.00
H698   H     0.44555   0.49026   0.82038   0.00000  Uiso   1.00
H699   H     0.43073   0.04160   0.84406   0.00000  Uiso   1.00
C700   C     0.45144   0.47920   0.66319   0.00000  Uiso   1.00
C701   C     0.39578   0.49237   0.66314   0.00000  Uiso   1.00
H702   H     0.37346   0.46422   0.67458   0.00000  Uiso   1.00
H703   H     0.39294   0.02072   0.68754   0.00000  Uiso   1.00
H704   H     0.37925   0.00293   0.62588   0.00000  Uiso   1.00
H705   H     0.47360   0.00918   0.65764   0.00000  Uiso   1.00
H706   H     0.45492   0.45900   0.63057   0.00000  Uiso   1.00
C707   C     0.42563   0.11884   0.79766   0.00000  Uiso   1.00
N708   N     0.39553   0.13854   0.81559   0.00000  Uiso   1.00
C709   C     0.44003   0.38462   0.67228   0.00000  Uiso   1.00
N710   N     0.41465   0.36639   0.64182   0.00000  Uiso   1.00
C711   C     0.57605   0.11593   0.70800   0.00000  Uiso   1.00
N712   N     0.60827   0.13361   0.69138   0.00000  Uiso   1.00
C713   C     0.56104   0.38239   0.82607   0.00000  Uiso   1.00
N714   N     0.58681   0.36345   0.85655   0.00000  Uiso   1.00
C715   C     0.57365   0.02266   0.70646   0.00000  Uiso   1.00
N716   N     0.60389   0.00313   0.68856   0.00000  Uiso   1.00
C717   C     0.55640   0.47575   0.82813   0.00000  Uiso   1.00
N718   N     0.57952   0.49446   0.85966   0.00000  Uiso   1.00
C719   C     0.55727   0.31732   0.62879   0.00000  Uiso   1.00
C720   C     0.60714   0.32387   0.60721   0.00000  Uiso   1.00
H721   H     0.62496   0.29172   0.60022   0.00000  Uiso   1.00
H722   H     0.60046   0.34333   0.57280   0.00000  Uiso   1.00
H723   H     0.63428   0.34254   0.63309   0.00000  Uiso   1.00
H724   H     0.53566   0.34904   0.62631   0.00000  Uiso   1.00
H725   H     0.56890   0.30968   0.66723   0.00000  Uiso   1.00
C726   C     0.56725   0.18886   0.88786   0.00000  Uiso   1.00
C727   C     0.62057   0.20159   0.91120   0.00000  Uiso   1.00
H728   H     0.62845   0.23631   0.90181   0.00000  Uiso   1.00
H729   H     0.64942   0.17988   0.89745   0.00000  Uiso   1.00
H730   H     0.62444   0.19777   0.95138   0.00000  Uiso   1.00
H731   H     0.55907   0.15472   0.89929   0.00000  Uiso   1.00
H732   H     0.56840   0.18791   0.84871   0.00000  Uiso   1.00
C733   C     0.43633   0.18289   0.52718   0.00000  Uiso   1.00
N734   N     0.41254   0.15526   0.50708   0.00000  Uiso   1.00
C735   C     0.43220   0.31530   0.95634   0.00000  Uiso   1.00
N736   N     0.40669   0.34232   0.97021   0.00000  Uiso   1.00
C737   C     0.83304   0.16509   0.75022   0.00000  Uiso   1.00
C738   C     0.83314   0.33505   0.74977   0.00000  Uiso   1.00
C739   C     0.84918   0.28278   0.55240   0.00000  Uiso   1.00
C740   C     0.85317   0.21873   0.95213   0.00000  Uiso   1.00
C741   C     0.85702   0.28171   0.60387   0.00000  Uiso   1.00
C742   C     0.86042   0.22007   0.90252   0.00000  Uiso   1.00
C743   C     0.80471   0.21861   0.60366   0.00000  Uiso   1.00
C744   C     0.80338   0.28091   0.88909   0.00000  Uiso   1.00
C745   C     0.79928   0.21737   0.55216   0.00000  Uiso   1.00
C746   C     0.79730   0.28159   0.93908   0.00000  Uiso   1.00
C747   C     0.82159   0.25026   0.52580   0.00000  Uiso   1.00
C748   C     0.82181   0.24936   0.97131   0.00000  Uiso   1.00
C749   C     0.73484   0.25013   0.73779   0.00000  Uiso   1.00
C750   C     0.93179   0.25051   0.76208   0.00000  Uiso   1.00
C751   C     0.68035   0.24617   0.73130   0.00000  Uiso   1.00
C752   C     0.98604   0.25593   0.76790   0.00000  Uiso   1.00
C753   C     0.79711   0.04766   0.77688   0.00000  Uiso   1.00
C754   C     0.80669   0.45393   0.70934   0.00000  Uiso   1.00
C755   C     0.79671   0.09417   0.77508   0.00000  Uiso   1.00
C756   C     0.80518   0.40751   0.71049   0.00000  Uiso   1.00
C757   C     0.83270   0.11677   0.75096   0.00000  Uiso   1.00
C758   C     0.83324   0.38359   0.74943   0.00000  Uiso   1.00
C759   C     0.86944   0.09318   0.72891   0.00000  Uiso   1.00
C760   C     0.86203   0.40621   0.78783   0.00000  Uiso   1.00
C761   C     0.86891   0.04712   0.72894   0.00000  Uiso   1.00
C762   C     0.86069   0.45232   0.78847   0.00000  Uiso   1.00
C763   C     0.83198   0.02451   0.75146   0.00000  Uiso   1.00
C764   C     0.83209   0.47599   0.75008   0.00000  Uiso   1.00
Cu765  Cu    0.83333   0.25000   0.79821   0.00000  Uiso   1.00
Cu766  Cu    0.83333   0.25001   0.70178   0.00000  Uiso   1.00
H767   H     0.86620   0.30833   0.53252   0.00000  Uiso   1.00
H768   H     0.87402   0.19471   0.97652   0.00000  Uiso   1.00
H769   H     0.78553   0.19425   0.62324   0.00000  Uiso   1.00
H770   H     0.78436   0.30572   0.86476   0.00000  Uiso   1.00
N771   N     0.83333   0.25001   0.62934   0.00000  Uiso   1.00
N772   N     0.83333   0.24999   0.87065   0.00000  Uiso   1.00
O773   O     0.83334   0.18573   0.79071   0.00000  Uiso   1.00
O774   O     0.83333   0.31428   0.70928   0.00000  Uiso   1.00
O775   O     0.83334   0.18573   0.70928   0.00000  Uiso   1.00
O776   O     0.83333   0.31427   0.79072   0.00000  Uiso   1.00
O777   O     0.75828   0.25000   0.78132   0.00000  Uiso   1.00
O778   O     0.90839   0.25001   0.71868   0.00000  Uiso   1.00
O779   O     0.75828   0.25000   0.69988   0.00000  Uiso   1.00
O780   O     0.90839   0.25000   0.80011   0.00000  Uiso   1.00
C781   C     0.99202   0.22840   0.68466   0.00000  Uiso   1.00
N782   N     0.97529   0.21443   0.64734   0.00000  Uiso   1.00
C783   C     0.67344   0.27697   0.81285   0.00000  Uiso   1.00
N784   N     0.68858   0.29404   0.84886   0.00000  Uiso   1.00
C785   C     0.76368   0.02355   0.80934   0.00000  Uiso   1.00
C786   C     0.70867   0.01884   0.78558   0.00000  Uiso   1.00
H787   H     0.69413   0.04959   0.76627   0.00000  Uiso   1.00
H788   H     0.70589   0.49102   0.75982   0.00000  Uiso   1.00
H789   H     0.68402   0.01115   0.81394   0.00000  Uiso   1.00
H790   H     0.77888   0.49026   0.82038   0.00000  Uiso   1.00
H791   H     0.76406   0.04160   0.84406   0.00000  Uiso   1.00
C792   C     0.78477   0.47920   0.66319   0.00000  Uiso   1.00
C793   C     0.72912   0.49237   0.66314   0.00000  Uiso   1.00
H794   H     0.70679   0.46422   0.67458   0.00000  Uiso   1.00
H795   H     0.72627   0.02072   0.68754   0.00000  Uiso   1.00
H796   H     0.71258   0.00293   0.62588   0.00000  Uiso   1.00
H797   H     0.80693   0.00918   0.65764   0.00000  Uiso   1.00
H798   H     0.78825   0.45900   0.63057   0.00000  Uiso   1.00
C799   C     0.75897   0.11884   0.79766   0.00000  Uiso   1.00
N800   N     0.72887   0.13854   0.81559   0.00000  Uiso   1.00
C801   C     0.77337   0.38462   0.67228   0.00000  Uiso   1.00
N802   N     0.74798   0.36639   0.64182   0.00000  Uiso   1.00
C803   C     0.90939   0.11593   0.70800   0.00000  Uiso   1.00
N804   N     0.94160   0.13361   0.69138   0.00000  Uiso   1.00
C805   C     0.89437   0.38239   0.82607   0.00000  Uiso   1.00
N806   N     0.92014   0.36345   0.85655   0.00000  Uiso   1.00
C807   C     0.90698   0.02266   0.70646   0.00000  Uiso   1.00
N808   N     0.93722   0.00313   0.68856   0.00000  Uiso   1.00
C809   C     0.88974   0.47575   0.82813   0.00000  Uiso   1.00
N810   N     0.91285   0.49446   0.85966   0.00000  Uiso   1.00
C811   C     0.89061   0.31732   0.62879   0.00000  Uiso   1.00
C812   C     0.94047   0.32387   0.60721   0.00000  Uiso   1.00
H813   H     0.95830   0.29172   0.60022   0.00000  Uiso   1.00
H814   H     0.93379   0.34333   0.57280   0.00000  Uiso   1.00
H815   H     0.96762   0.34254   0.63309   0.00000  Uiso   1.00
H816   H     0.86900   0.34904   0.62631   0.00000  Uiso   1.00
H817   H     0.90223   0.30968   0.66723   0.00000  Uiso   1.00
C818   C     0.90058   0.18886   0.88786   0.00000  Uiso   1.00
C819   C     0.95390   0.20159   0.91120   0.00000  Uiso   1.00
H820   H     0.96179   0.23631   0.90181   0.00000  Uiso   1.00
H821   H     0.98275   0.17988   0.89745   0.00000  Uiso   1.00
H822   H     0.95778   0.19777   0.95138   0.00000  Uiso   1.00
H823   H     0.89240   0.15472   0.89929   0.00000  Uiso   1.00
H824   H     0.90173   0.18791   0.84871   0.00000  Uiso   1.00
C825   C     0.76966   0.18289   0.52718   0.00000  Uiso   1.00
N826   N     0.74587   0.15526   0.50708   0.00000  Uiso   1.00
C827   C     0.76553   0.31530   0.95634   0.00000  Uiso   1.00
N828   N     0.74003   0.34232   0.97021   0.00000  Uiso   1.00
C829   C     0.16637   0.66509   0.75022   0.00000  Uiso   1.00
C830   C     0.16648   0.83505   0.74977   0.00000  Uiso   1.00
C831   C     0.18252   0.78278   0.55240   0.00000  Uiso   1.00
C832   C     0.18651   0.71873   0.95213   0.00000  Uiso   1.00
C833   C     0.19035   0.78171   0.60387   0.00000  Uiso   1.00
C834   C     0.19376   0.72007   0.90252   0.00000  Uiso   1.00
C835   C     0.13805   0.71861   0.60366   0.00000  Uiso   1.00
C836   C     0.13672   0.78091   0.88909   0.00000  Uiso   1.00
C837   C     0.13261   0.71737   0.55216   0.00000  Uiso   1.00
C838   C     0.13063   0.78159   0.93908   0.00000  Uiso   1.00
C839   C     0.15492   0.75026   0.52580   0.00000  Uiso   1.00
C840   C     0.15514   0.74936   0.97131   0.00000  Uiso   1.00
C841   C     0.06817   0.75013   0.73779   0.00000  Uiso   1.00
C842   C     0.26512   0.75051   0.76208   0.00000  Uiso   1.00
C843   C     0.01369   0.74617   0.73130   0.00000  Uiso   1.00
C844   C     0.31938   0.75593   0.76790   0.00000  Uiso   1.00
C845   C     0.13045   0.54766   0.77688   0.00000  Uiso   1.00
C846   C     0.14002   0.95393   0.70934   0.00000  Uiso   1.00
C847   C     0.13004   0.59417   0.77508   0.00000  Uiso   1.00
C848   C     0.13852   0.90751   0.71049   0.00000  Uiso   1.00
C849   C     0.16603   0.61677   0.75096   0.00000  Uiso   1.00
C850   C     0.16657   0.88359   0.74943   0.00000  Uiso   1.00
C851   C     0.20278   0.59318   0.72891   0.00000  Uiso   1.00
C852   C     0.19537   0.90621   0.78783   0.00000  Uiso   1.00
C853   C     0.20225   0.54712   0.72894   0.00000  Uiso   1.00
C854   C     0.19402   0.95232   0.78847   0.00000  Uiso   1.00
C855   C     0.16531   0.52451   0.75146   0.00000  Uiso   1.00
C856   C     0.16543   0.97599   0.75008   0.00000  Uiso   1.00
Cu857  Cu    0.16667   0.75000   0.79821   0.00000  Uiso   1.00
Cu858  Cu    0.16667   0.75001   0.70178   0.00000  Uiso   1.00
H859   H     0.19954   0.80833   0.53252   0.00000  Uiso   1.00
H860   H     0.20736   0.69471   0.97652   0.00000  Uiso   1.00
H861   H     0.11886   0.69425   0.62324   0.00000  Uiso   1.00
H862   H     0.11770   0.80572   0.86476   0.00000  Uiso   1.00
N863   N     0.16667   0.75001   0.62934   0.00000  Uiso   1.00
N864   N     0.16667   0.74999   0.87065   0.00000  Uiso   1.00
O865   O     0.16667   0.68573   0.79071   0.00000  Uiso   1.00
O866   O     0.16666   0.81428   0.70928   0.00000  Uiso   1.00
O867   O     0.16667   0.68573   0.70928   0.00000  Uiso   1.00
O868   O     0.16666   0.81427   0.79072   0.00000  Uiso   1.00
O869   O     0.09161   0.75000   0.78132   0.00000  Uiso   1.00
O870   O     0.24172   0.75001   0.71868   0.00000  Uiso   1.00
O871   O     0.09161   0.75000   0.69988   0.00000  Uiso   1.00
O872   O     0.24172   0.75000   0.80011   0.00000  Uiso   1.00
C873   C     0.32535   0.72840   0.68466   0.00000  Uiso   1.00
N874   N     0.30863   0.71443   0.64734   0.00000  Uiso   1.00
C875   C     0.00677   0.77697   0.81285   0.00000  Uiso   1.00
N876   N     0.02192   0.79404   0.84886   0.00000  Uiso   1.00
C877   C     0.09702   0.52355   0.80934   0.00000  Uiso   1.00
C878   C     0.04200   0.51884   0.78558   0.00000  Uiso   1.00
H879   H     0.02746   0.54959   0.76627   0.00000  Uiso   1.00
H880   H     0.03922   0.99102   0.75982   0.00000  Uiso   1.00
H881   H     0.01735   0.51115   0.81394   0.00000  Uiso   1.00
H882   H     0.11222   0.99026   0.82038   0.00000  Uiso   1.00
H883   H     0.09740   0.54160   0.84406   0.00000  Uiso   1.00
C884   C     0.11811   0.97920   0.66319   0.00000  Uiso   1.00
C885   C     0.06245   0.99237   0.66314   0.00000  Uiso   1.00
H886   H     0.04013   0.96422   0.67458   0.00000  Uiso   1.00
H887   H     0.05961   0.52072   0.68754   0.00000  Uiso   1.00
H888   H     0.04591   0.50293   0.62588   0.00000  Uiso   1.00
H889   H     0.14027   0.50918   0.65764   0.00000  Uiso   1.00
H890   H     0.12159   0.95900   0.63057   0.00000  Uiso   1.00
C891   C     0.09230   0.61884   0.79766   0.00000  Uiso   1.00
N892   N     0.06220   0.63854   0.81559   0.00000  Uiso   1.00
C893   C     0.10670   0.88462   0.67228   0.00000  Uiso   1.00
N894   N     0.08132   0.86639   0.64182   0.00000  Uiso   1.00
C895   C     0.24272   0.61593   0.70800   0.00000  Uiso   1.00
N896   N     0.27493   0.63361   0.69138   0.00000  Uiso   1.00
C897   C     0.22771   0.88239   0.82607   0.00000  Uiso   1.00
N898   N     0.25348   0.86345   0.85655   0.00000  Uiso   1.00
C899   C     0.24032   0.52266   0.70646   0.00000  Uiso   1.00
N900   N     0.27055   0.50313   0.68856   0.00000  Uiso   1.00
C901   C     0.22307   0.97575   0.82813   0.00000  Uiso   1.00
N902   N     0.24619   0.99446   0.85966   0.00000  Uiso   1.00
C903   C     0.22394   0.81732   0.62879   0.00000  Uiso   1.00
C904   C     0.27381   0.82387   0.60721   0.00000  Uiso   1.00
H905   H     0.29163   0.79172   0.60022   0.00000  Uiso   1.00
H906   H     0.26712   0.84333   0.57280   0.00000  Uiso   1.00
H907   H     0.30095   0.84254   0.63309   0.00000  Uiso   1.00
H908   H     0.20233   0.84904   0.62631   0.00000  Uiso   1.00
H909   H     0.23556   0.80968   0.66723   0.00000  Uiso   1.00
C910   C     0.23392   0.68886   0.88786   0.00000  Uiso   1.00
C911   C     0.28724   0.70159   0.91120   0.00000  Uiso   1.00
H912   H     0.29512   0.73631   0.90181   0.00000  Uiso   1.00
H913   H     0.31609   0.67988   0.89745   0.00000  Uiso   1.00
H914   H     0.29111   0.69777   0.95138   0.00000  Uiso   1.00
H915   H     0.22573   0.65472   0.89929   0.00000  Uiso   1.00
H916   H     0.23506   0.68791   0.84871   0.00000  Uiso   1.00
C917   C     0.10299   0.68289   0.52718   0.00000  Uiso   1.00
N918   N     0.07921   0.65526   0.50708   0.00000  Uiso   1.00
C919   C     0.09886   0.81530   0.95634   0.00000  Uiso   1.00
N920   N     0.07336   0.84232   0.97021   0.00000  Uiso   1.00
C921   C     0.49970   0.66509   0.75022   0.00000  Uiso   1.00
C922   C     0.49981   0.83505   0.74977   0.00000  Uiso   1.00
C923   C     0.51585   0.78278   0.55240   0.00000  Uiso   1.00
C924   C     0.51984   0.71873   0.95213   0.00000  Uiso   1.00
C925   C     0.52368   0.78171   0.60387   0.00000  Uiso   1.00
C926   C     0.52709   0.72007   0.90252   0.00000  Uiso   1.00
C927   C     0.47138   0.71861   0.60366   0.00000  Uiso   1.00
C928   C     0.47005   0.78091   0.88909   0.00000  Uiso   1.00
C929   C     0.46594   0.71737   0.55216   0.00000  Uiso   1.00
C930   C     0.46396   0.78159   0.93908   0.00000  Uiso   1.00
C931   C     0.48826   0.75026   0.52580   0.00000  Uiso   1.00
C932   C     0.48847   0.74936   0.97131   0.00000  Uiso   1.00
C933   C     0.40150   0.75013   0.73779   0.00000  Uiso   1.00
C934   C     0.59845   0.75051   0.76208   0.00000  Uiso   1.00
C935   C     0.34702   0.74617   0.73130   0.00000  Uiso   1.00
C936   C     0.65271   0.75593   0.76790   0.00000  Uiso   1.00
C937   C     0.46378   0.54766   0.77688   0.00000  Uiso   1.00
C938   C     0.47335   0.95393   0.70934   0.00000  Uiso   1.00
C939   C     0.46338   0.59417   0.77508   0.00000  Uiso   1.00
C940   C     0.47185   0.90751   0.71049   0.00000  Uiso   1.00
C941   C     0.49937   0.61677   0.75096   0.00000  Uiso   1.00
C942   C     0.49991   0.88359   0.74943   0.00000  Uiso   1.00
C943   C     0.53611   0.59318   0.72891   0.00000  Uiso   1.00
C944   C     0.52870   0.90621   0.78783   0.00000  Uiso   1.00
C945   C     0.53558   0.54712   0.72894   0.00000  Uiso   1.00
C946   C     0.52736   0.95232   0.78847   0.00000  Uiso   1.00
C947   C     0.49865   0.52451   0.75146   0.00000  Uiso   1.00
C948   C     0.49876   0.97599   0.75008   0.00000  Uiso   1.00
Cu949  Cu    0.50000   0.75000   0.79821   0.00000  Uiso   1.00
Cu950  Cu    0.50000   0.75001   0.70178   0.00000  Uiso   1.00
H951   H     0.53287   0.80833   0.53252   0.00000  Uiso   1.00
H952   H     0.54069   0.69471   0.97652   0.00000  Uiso   1.00
H953   H     0.45219   0.69425   0.62324   0.00000  Uiso   1.00
H954   H     0.45103   0.80572   0.86476   0.00000  Uiso   1.00
N955   N     0.50000   0.75001   0.62934   0.00000  Uiso   1.00
N956   N     0.50000   0.74999   0.87065   0.00000  Uiso   1.00
O957   O     0.50000   0.68573   0.79071   0.00000  Uiso   1.00
O958   O     0.50000   0.81428   0.70928   0.00000  Uiso   1.00
O959   O     0.50000   0.68573   0.70928   0.00000  Uiso   1.00
O960   O     0.50000   0.81427   0.79072   0.00000  Uiso   1.00
O961   O     0.42495   0.75000   0.78132   0.00000  Uiso   1.00
O962   O     0.57505   0.75001   0.71868   0.00000  Uiso   1.00
O963   O     0.42495   0.75000   0.69988   0.00000  Uiso   1.00
O964   O     0.57505   0.75000   0.80011   0.00000  Uiso   1.00
C965   C     0.65869   0.72840   0.68466   0.00000  Uiso   1.00
N966   N     0.64196   0.71443   0.64734   0.00000  Uiso   1.00
C967   C     0.34011   0.77697   0.81285   0.00000  Uiso   1.00
N968   N     0.35525   0.79404   0.84886   0.00000  Uiso   1.00
C969   C     0.43035   0.52355   0.80934   0.00000  Uiso   1.00
C970   C     0.37533   0.51884   0.78558   0.00000  Uiso   1.00
H971   H     0.36080   0.54959   0.76627   0.00000  Uiso   1.00
H972   H     0.37255   0.99102   0.75982   0.00000  Uiso   1.00
H973   H     0.35069   0.51115   0.81394   0.00000  Uiso   1.00
H974   H     0.44555   0.99026   0.82038   0.00000  Uiso   1.00
H975   H     0.43073   0.54160   0.84406   0.00000  Uiso   1.00
C976   C     0.45144   0.97920   0.66319   0.00000  Uiso   1.00
C977   C     0.39578   0.99237   0.66314   0.00000  Uiso   1.00
H978   H     0.37346   0.96422   0.67458   0.00000  Uiso   1.00
H979   H     0.39294   0.52072   0.68754   0.00000  Uiso   1.00
H980   H     0.37925   0.50293   0.62588   0.00000  Uiso   1.00
H981   H     0.47360   0.50918   0.65764   0.00000  Uiso   1.00
H982   H     0.45492   0.95900   0.63057   0.00000  Uiso   1.00
C983   C     0.42563   0.61884   0.79766   0.00000  Uiso   1.00
N984   N     0.39553   0.63854   0.81559   0.00000  Uiso   1.00
C985   C     0.44003   0.88462   0.67228   0.00000  Uiso   1.00
N986   N     0.41465   0.86639   0.64182   0.00000  Uiso   1.00
C987   C     0.57605   0.61593   0.70800   0.00000  Uiso   1.00
N988   N     0.60827   0.63361   0.69138   0.00000  Uiso   1.00
C989   C     0.56104   0.88239   0.82607   0.00000  Uiso   1.00
N990   N     0.58681   0.86345   0.85655   0.00000  Uiso   1.00
C991   C     0.57365   0.52266   0.70646   0.00000  Uiso   1.00
N992   N     0.60389   0.50313   0.68856   0.00000  Uiso   1.00
C993   C     0.55640   0.97575   0.82813   0.00000  Uiso   1.00
N994   N     0.57952   0.99446   0.85966   0.00000  Uiso   1.00
C995   C     0.55727   0.81732   0.62879   0.00000  Uiso   1.00
C996   C     0.60714   0.82387   0.60721   0.00000  Uiso   1.00
H997   H     0.62496   0.79172   0.60022   0.00000  Uiso   1.00
H998   H     0.60046   0.84333   0.57280   0.00000  Uiso   1.00
H999   H     0.63428   0.84254   0.63309   0.00000  Uiso   1.00
H1000  H     0.53566   0.84904   0.62631   0.00000  Uiso   1.00
H1001  H     0.56890   0.80968   0.66723   0.00000  Uiso   1.00
C1002  C     0.56725   0.68886   0.88786   0.00000  Uiso   1.00
C1003  C     0.62057   0.70159   0.91120   0.00000  Uiso   1.00
H1004  H     0.62845   0.73631   0.90181   0.00000  Uiso   1.00
H1005  H     0.64942   0.67988   0.89745   0.00000  Uiso   1.00
H1006  H     0.62444   0.69777   0.95138   0.00000  Uiso   1.00
H1007  H     0.55907   0.65472   0.89929   0.00000  Uiso   1.00
H1008  H     0.56840   0.68791   0.84871   0.00000  Uiso   1.00
C1009  C     0.43633   0.68289   0.52718   0.00000  Uiso   1.00
N1010  N     0.41254   0.65526   0.50708   0.00000  Uiso   1.00
C1011  C     0.43220   0.81530   0.95634   0.00000  Uiso   1.00
N1012  N     0.40669   0.84232   0.97021   0.00000  Uiso   1.00
C1013  C     0.83304   0.66509   0.75022   0.00000  Uiso   1.00
C1014  C     0.83314   0.83505   0.74977   0.00000  Uiso   1.00
C1015  C     0.84918   0.78278   0.55240   0.00000  Uiso   1.00
C1016  C     0.85317   0.71873   0.95213   0.00000  Uiso   1.00
C1017  C     0.85702   0.78171   0.60387   0.00000  Uiso   1.00
C1018  C     0.86042   0.72007   0.90252   0.00000  Uiso   1.00
C1019  C     0.80471   0.71861   0.60366   0.00000  Uiso   1.00
C1020  C     0.80338   0.78091   0.88909   0.00000  Uiso   1.00
C1021  C     0.79928   0.71737   0.55216   0.00000  Uiso   1.00
C1022  C     0.79730   0.78159   0.93908   0.00000  Uiso   1.00
C1023  C     0.82159   0.75026   0.52580   0.00000  Uiso   1.00
C1024  C     0.82181   0.74936   0.97131   0.00000  Uiso   1.00
C1025  C     0.73484   0.75013   0.73779   0.00000  Uiso   1.00
C1026  C     0.93179   0.75051   0.76208   0.00000  Uiso   1.00
C1027  C     0.68035   0.74617   0.73130   0.00000  Uiso   1.00
C1028  C     0.98604   0.75593   0.76790   0.00000  Uiso   1.00
C1029  C     0.79711   0.54766   0.77688   0.00000  Uiso   1.00
C1030  C     0.80669   0.95393   0.70934   0.00000  Uiso   1.00
C1031  C     0.79671   0.59417   0.77508   0.00000  Uiso   1.00
C1032  C     0.80518   0.90751   0.71049   0.00000  Uiso   1.00
C1033  C     0.83270   0.61677   0.75096   0.00000  Uiso   1.00
C1034  C     0.83324   0.88359   0.74943   0.00000  Uiso   1.00
C1035  C     0.86944   0.59318   0.72891   0.00000  Uiso   1.00
C1036  C     0.86203   0.90621   0.78783   0.00000  Uiso   1.00
C1037  C     0.86891   0.54712   0.72894   0.00000  Uiso   1.00
C1038  C     0.86069   0.95232   0.78847   0.00000  Uiso   1.00
C1039  C     0.83198   0.52451   0.75146   0.00000  Uiso   1.00
C1040  C     0.83209   0.97599   0.75008   0.00000  Uiso   1.00
Cu1041 Cu    0.83333   0.75000   0.79821   0.00000  Uiso   1.00
Cu1042 Cu    0.83333   0.75001   0.70178   0.00000  Uiso   1.00
H1043  H     0.86620   0.80833   0.53252   0.00000  Uiso   1.00
H1044  H     0.87402   0.69471   0.97652   0.00000  Uiso   1.00
H1045  H     0.78553   0.69425   0.62324   0.00000  Uiso   1.00
H1046  H     0.78436   0.80572   0.86476   0.00000  Uiso   1.00
N1047  N     0.83333   0.75001   0.62934   0.00000  Uiso   1.00
N1048  N     0.83333   0.74999   0.87065   0.00000  Uiso   1.00
O1049  O     0.83334   0.68573   0.79071   0.00000  Uiso   1.00
O1050  O     0.83333   0.81428   0.70928   0.00000  Uiso   1.00
O1051  O     0.83334   0.68573   0.70928   0.00000  Uiso   1.00
O1052  O     0.83333   0.81427   0.79072   0.00000  Uiso   1.00
O1053  O     0.75828   0.75000   0.78132   0.00000  Uiso   1.00
O1054  O     0.90839   0.75001   0.71868   0.00000  Uiso   1.00
O1055  O     0.75828   0.75000   0.69988   0.00000  Uiso   1.00
O1056  O     0.90839   0.75000   0.80011   0.00000  Uiso   1.00
C1057  C     0.99202   0.72840   0.68466   0.00000  Uiso   1.00
N1058  N     0.97529   0.71443   0.64734   0.00000  Uiso   1.00
C1059  C     0.67344   0.77697   0.81285   0.00000  Uiso   1.00
N1060  N     0.68858   0.79404   0.84886   0.00000  Uiso   1.00
C1061  C     0.76368   0.52355   0.80934   0.00000  Uiso   1.00
C1062  C     0.70867   0.51884   0.78558   0.00000  Uiso   1.00
H1063  H     0.69413   0.54959   0.76627   0.00000  Uiso   1.00
H1064  H     0.70589   0.99102   0.75982   0.00000  Uiso   1.00
H1065  H     0.68402   0.51115   0.81394   0.00000  Uiso   1.00
H1066  H     0.77888   0.99026   0.82038   0.00000  Uiso   1.00
H1067  H     0.76406   0.54160   0.84406   0.00000  Uiso   1.00
C1068  C     0.78477   0.97920   0.66319   0.00000  Uiso   1.00
C1069  C     0.72912   0.99237   0.66314   0.00000  Uiso   1.00
H1070  H     0.70679   0.96422   0.67458   0.00000  Uiso   1.00
H1071  H     0.72627   0.52072   0.68754   0.00000  Uiso   1.00
H1072  H     0.71258   0.50293   0.62588   0.00000  Uiso   1.00
H1073  H     0.80693   0.50918   0.65764   0.00000  Uiso   1.00
H1074  H     0.78825   0.95900   0.63057   0.00000  Uiso   1.00
C1075  C     0.75897   0.61884   0.79766   0.00000  Uiso   1.00
N1076  N     0.72887   0.63854   0.81559   0.00000  Uiso   1.00
C1077  C     0.77337   0.88462   0.67228   0.00000  Uiso   1.00
N1078  N     0.74798   0.86639   0.64182   0.00000  Uiso   1.00
C1079  C     0.90939   0.61593   0.70800   0.00000  Uiso   1.00
N1080  N     0.94160   0.63361   0.69138   0.00000  Uiso   1.00
C1081  C     0.89437   0.88239   0.82607   0.00000  Uiso   1.00
N1082  N     0.92014   0.86345   0.85655   0.00000  Uiso   1.00
C1083  C     0.90698   0.52266   0.70646   0.00000  Uiso   1.00
N1084  N     0.93722   0.50313   0.68856   0.00000  Uiso   1.00
C1085  C     0.88974   0.97575   0.82813   0.00000  Uiso   1.00
N1086  N     0.91285   0.99446   0.85966   0.00000  Uiso   1.00
C1087  C     0.89061   0.81732   0.62879   0.00000  Uiso   1.00
C1088  C     0.94047   0.82387   0.60721   0.00000  Uiso   1.00
H1089  H     0.95830   0.79172   0.60022   0.00000  Uiso   1.00
H1090  H     0.93379   0.84333   0.57280   0.00000  Uiso   1.00
H1091  H     0.96762   0.84254   0.63309   0.00000  Uiso   1.00
H1092  H     0.86900   0.84904   0.62631   0.00000  Uiso   1.00
H1093  H     0.90223   0.80968   0.66723   0.00000  Uiso   1.00
C1094  C     0.90058   0.68886   0.88786   0.00000  Uiso   1.00
C1095  C     0.95390   0.70159   0.91120   0.00000  Uiso   1.00
H1096  H     0.96179   0.73631   0.90181   0.00000  Uiso   1.00
H1097  H     0.98275   0.67988   0.89745   0.00000  Uiso   1.00
H1098  H     0.95778   0.69777   0.95138   0.00000  Uiso   1.00
H1099  H     0.89240   0.65472   0.89929   0.00000  Uiso   1.00
H1100  H     0.90173   0.68791   0.84871   0.00000  Uiso   1.00
C1101  C     0.76966   0.68289   0.52718   0.00000  Uiso   1.00
N1102  N     0.74587   0.65526   0.50708   0.00000  Uiso   1.00
C1103  C     0.76553   0.81530   0.95634   0.00000  Uiso   1.00
N1104  N     0.74003   0.84232   0.97021   0.00000  Uiso   1.00
loop_
_geom_bond_atom_site_label_1
_geom_bond_atom_site_label_2
_geom_bond_distance
_geom_bond_site_symmetry_2
_ccdc_geom_bond_type
C1     C21     1.465   .     S
C1     O37     1.291   .     A
C1     O39     1.292   .     A
C2     C22     1.472   .     S
C2     O38     1.294   .     A
C2     O40     1.292   .     A
C3     H31     1.082   .     S
C3     C5      1.415   .     A
C3     C11     1.393   .     A
C4     C12     1.395   .     A
C4     C6      1.414   .     A
C4     H32     1.084   .     S
C5     C75     1.520   .     S
C5     N35     1.390   .     A
C6     C82     1.514   .     S
C6     N36     1.386   .     A
C7     H33     1.082   .     S
C7     C9      1.417   .     A
C7     N35     1.370   .     A
C8     N36     1.368   .     A
C8     H34     1.080   .     S
C8     C10     1.417   .     A
C9     C89     1.442   .     S
C9     C11     1.410   .     A
C10    C12     1.411   .     A
C10    C91     1.442   .     S
C11    C564    1.512   1_554 S
C12    C563    1.512   .     S
C13    O41     1.283   .     A
C13    C15     1.437   .     S
C13    O43     1.289   .     A
C14    C16     1.436   .     S
C14    O42     1.280   .     A
C14    O44     1.292   .     A
C15    C200    1.360   1_455 S
C15    C229    1.456   1_455 S
C16    C107    1.360   .     S
C16    C139    1.452   .     S
C17    C27     1.418   .     A
C17    C49     1.529   .     S
C17    C19     1.411   .     A
C18    C56     1.529   .     S
C18    C28     1.415   .     A
C18    C20     1.409   .     A
C19    C21     1.413   .     A
C19    C63     1.452   .     S
C20    C65     1.452   .     S
C20    C22     1.416   .     A
C21    C23     1.408   .     A
C22    C24     1.414   .     A
C23    C67     1.449   .     S
C23    C25     1.397   .     A
C24    C69     1.453   .     S
C24    C26     1.399   .     A
C25    C71     1.454   .     S
C25    C27     1.408   .     A
C26    C73     1.454   .     S
C26    C28     1.408   .     A
C27    C304    1.472   1_545 S
C28    C303    1.472   .     S
Cu29   N36     2.009   .     S
Cu29   Cu30    2.674   .     S
Cu29   O44     1.982   .     S
Cu29   O41     1.982   .     S
Cu29   O40     1.958   .     S
Cu29   O37     1.963   .     S
Cu30   N35     2.009   .     S
Cu30   O38     1.963   .     S
Cu30   O43     1.982   .     S
Cu30   O39     1.958   .     S
Cu30   O42     1.982   .     S
C45    N46     1.158   .     T
C45    C107    1.456   .     S
C47    N48     1.156   .     T
C47    C200    1.452   1_455 S
C49    H55     1.112   .     S
C49    C50     1.527   .     S
C49    H330    1.108   1_545 S
C50    H53     1.110   .     S
C50    H51     1.110   .     S
C50    H328    1.108   1_545 S
H52    C326    1.108   .     S
H54    C325    1.108   .     S
C56    C57     1.523   .     S
C56    H62     1.111   .     S
C56    H337    1.108   .     S
C57    H58     1.111   .     S
C57    H335    1.108   .     S
C57    H336    1.110   .     S
H59    C333    1.108   1_545 S
H60    C333    1.110   1_545 S
H61    C332    1.108   1_545 S
C63    N64     1.158   .     T
C65    N66     1.158   .     T
C67    N68     1.156   .     T
C69    N70     1.158   .     T
C71    N72     1.157   .     T
C73    N74     1.157   .     T
C75    H80     1.111   .     S
C75    H81     1.092   .     S
C75    C76     1.534   .     S
C76    H79     1.111   .     S
C76    H78     1.110   .     S
C76    H77     1.109   .     S
C82    H87     1.112   .     S
C82    C83     1.530   .     S
C82    H88     1.091   .     S
C83    H84     1.111   .     S
C83    H85     1.111   .     S
C83    H86     1.110   .     S
C89    N90     1.157   .     T
C91    N92     1.157   .     T
C93    C113    1.465   .     S
C93    O129    1.291   .     A
C93    O131    1.292   .     A
C94    C114    1.472   .     S
C94    O130    1.294   .     A
C94    O132    1.292   .     A
C95    H123    1.082   .     S
C95    C97     1.415   .     A
C95    C103    1.393   .     A
C96    C104    1.395   .     A
C96    C98     1.414   .     A
C96    H124    1.084   .     S
C97    C167    1.520   .     S
C97    N127    1.390   .     A
C98    C174    1.514   .     S
C98    N128    1.386   .     A
C99    H125    1.082   .     S
C99    C101    1.417   .     A
C99    N127    1.370   .     A
C100   N128    1.368   .     A
C100   H126    1.080   .     S
C100   C102    1.417   .     A
C101   C181    1.442   .     S
C101   C103    1.410   .     A
C102   C104    1.411   .     A
C102   C183    1.442   .     S
C103   C656    1.512   1_554 S
C104   C655    1.512   .     S
C105   O133    1.283   .     A
C105   C107    1.437   .     S
C105   O135    1.289   .     A
C106   C108    1.436   .     S
C106   O134    1.280   .     A
C106   O136    1.292   .     A
C108   C199    1.360   .     S
C108   C231    1.452   .     S
C109   C119    1.418   .     A
C109   C141    1.529   .     S
C109   C111    1.411   .     A
C110   C148    1.529   .     S
C110   C120    1.415   .     A
C110   C112    1.409   .     A
C111   C113    1.413   .     A
C111   C155    1.452   .     S
C112   C157    1.452   .     S
C112   C114    1.416   .     A
C113   C115    1.408   .     A
C114   C116    1.414   .     A
C115   C159    1.449   .     S
C115   C117    1.397   .     A
C116   C161    1.453   .     S
C116   C118    1.399   .     A
C117   C163    1.454   .     S
C117   C119    1.408   .     A
C118   C165    1.454   .     S
C118   C120    1.408   .     A
C119   C396    1.472   1_545 S
C120   C395    1.472   .     S
Cu121  N128    2.009   .     S
Cu121  Cu122   2.674   .     S
Cu121  O136    1.982   .     S
Cu121  O133    1.982   .     S
Cu121  O132    1.958   .     S
Cu121  O129    1.963   .     S
Cu122  N127    2.009   .     S
Cu122  O130    1.963   .     S
Cu122  O135    1.982   .     S
Cu122  O131    1.958   .     S
Cu122  O134    1.982   .     S
C137   N138    1.158   .     T
C137   C199    1.456   .     S
C139   N140    1.156   .     T
C141   H147    1.112   .     S
C141   C142    1.527   .     S
C141   H422    1.108   1_545 S
C142   H145    1.110   .     S
C142   H143    1.110   .     S
C142   H420    1.108   1_545 S
H144   C418    1.108   .     S
H146   C417    1.108   .     S
C148   C149    1.523   .     S
C148   H154    1.111   .     S
C148   H429    1.108   .     S
C149   H150    1.111   .     S
C149   H427    1.108   .     S
C149   H428    1.110   .     S
H151   C425    1.108   1_545 S
H152   C425    1.110   1_545 S
H153   C424    1.108   1_545 S
C155   N156    1.158   .     T
C157   N158    1.158   .     T
C159   N160    1.156   .     T
C161   N162    1.158   .     T
C163   N164    1.157   .     T
C165   N166    1.157   .     T
C167   H172    1.111   .     S
C167   H173    1.092   .     S
C167   C168    1.534   .     S
C168   H171    1.111   .     S
C168   H170    1.110   .     S
C168   H169    1.109   .     S
C174   H179    1.112   .     S
C174   C175    1.530   .     S
C174   H180    1.091   .     S
C175   H176    1.111   .     S
C175   H177    1.111   .     S
C175   H178    1.110   .     S
C181   N182    1.157   .     T
C183   N184    1.157   .     T
C185   C205    1.465   .     S
C185   O221    1.291   .     A
C185   O223    1.292   .     A
C186   C206    1.472   .     S
C186   O222    1.294   .     A
C186   O224    1.292   .     A
C187   H215    1.082   .     S
C187   C189    1.415   .     A
C187   C195    1.393   .     A
C188   C196    1.395   .     A
C188   C190    1.414   .     A
C188   H216    1.084   .     S
C189   C259    1.520   .     S
C189   N219    1.390   .     A
C190   C266    1.514   .     S
C190   N220    1.386   .     A
C191   H217    1.082   .     S
C191   C193    1.417   .     A
C191   N219    1.370   .     A
C192   N220    1.368   .     A
C192   H218    1.080   .     S
C192   C194    1.417   .     A
C193   C273    1.442   .     S
C193   C195    1.410   .     A
C194   C196    1.411   .     A
C194   C275    1.442   .     S
C195   C748    1.512   1_554 S
C196   C747    1.512   .     S
C197   O225    1.283   .     A
C197   C199    1.437   .     S
C197   O227    1.289   .     A
C198   C200    1.436   .     S
C198   O226    1.280   .     A
C198   O228    1.292   .     A
C200   C15     1.360   1_655 S
C200   C47     1.452   1_655 S
C201   C211    1.418   .     A
C201   C233    1.529   .     S
C201   C203    1.411   .     A
C202   C240    1.529   .     S
C202   C212    1.415   .     A
C202   C204    1.409   .     A
C203   C205    1.413   .     A
C203   C247    1.452   .     S
C204   C249    1.452   .     S
C204   C206    1.416   .     A
C205   C207    1.408   .     A
C206   C208    1.414   .     A
C207   C251    1.449   .     S
C207   C209    1.397   .     A
C208   C253    1.453   .     S
C208   C210    1.399   .     A
C209   C255    1.454   .     S
C209   C211    1.408   .     A
C210   C257    1.454   .     S
C210   C212    1.408   .     A
C211   C488    1.472   1_545 S
C212   C487    1.472   .     S
Cu213  N220    2.009   .     S
Cu213  Cu214   2.674   .     S
Cu213  O228    1.982   .     S
Cu213  O225    1.982   .     S
Cu213  O224    1.958   .     S
Cu213  O221    1.963   .     S
Cu214  N219    2.009   .     S
Cu214  O222    1.963   .     S
Cu214  O227    1.982   .     S
Cu214  O223    1.958   .     S
Cu214  O226    1.982   .     S
C229   N230    1.158   .     T
C229   C15     1.456   1_655 S
C231   N232    1.156   .     T
C233   H239    1.112   .     S
C233   C234    1.527   .     S
C233   H514    1.108   1_545 S
C234   H237    1.110   .     S
C234   H235    1.110   .     S
C234   H512    1.108   1_545 S
H236   C510    1.108   .     S
H238   C509    1.108   .     S
C240   C241    1.523   .     S
C240   H246    1.111   .     S
C240   H521    1.108   .     S
C241   H242    1.111   .     S
C241   H519    1.108   .     S
C241   H520    1.110   .     S
H243   C517    1.108   1_545 S
H244   C517    1.110   1_545 S
H245   C516    1.108   1_545 S
C247   N248    1.158   .     T
C249   N250    1.158   .     T
C251   N252    1.156   .     T
C253   N254    1.158   .     T
C255   N256    1.157   .     T
C257   N258    1.157   .     T
C259   H264    1.111   .     S
C259   H265    1.092   .     S
C259   C260    1.534   .     S
C260   H263    1.111   .     S
C260   H262    1.110   .     S
C260   H261    1.109   .     S
C266   H271    1.112   .     S
C266   C267    1.530   .     S
C266   H272    1.091   .     S
C267   H268    1.111   .     S
C267   H269    1.111   .     S
C267   H270    1.110   .     S
C273   N274    1.157   .     T
C275   N276    1.157   .     T
C277   C297    1.465   .     S
C277   O313    1.291   .     A
C277   O315    1.292   .     A
C278   C298    1.472   .     S
C278   O314    1.294   .     A
C278   O316    1.292   .     A
C279   H307    1.082   .     S
C279   C281    1.415   .     A
C279   C287    1.393   .     A
C280   C288    1.395   .     A
C280   C282    1.414   .     A
C280   H308    1.084   .     S
C281   C351    1.520   .     S
C281   N311    1.390   .     A
C282   C358    1.514   .     S
C282   N312    1.386   .     A
C283   H309    1.082   .     S
C283   C285    1.417   .     A
C283   N311    1.370   .     A
C284   N312    1.368   .     A
C284   H310    1.080   .     S
C284   C286    1.417   .     A
C285   C365    1.442   .     S
C285   C287    1.410   .     A
C286   C288    1.411   .     A
C286   C367    1.442   .     S
C287   C840    1.512   1_554 S
C288   C839    1.512   .     S
C289   O317    1.283   .     A
C289   C291    1.437   .     S
C289   O319    1.289   .     A
C290   C292    1.436   .     S
C290   O318    1.280   .     A
C290   O320    1.292   .     A
C291   C476    1.360   1_455 S
C291   C505    1.456   1_455 S
C292   C383    1.360   .     S
C292   C415    1.452   .     S
C293   C303    1.418   .     A
C293   C325    1.529   .     S
C293   C295    1.411   .     A
C294   C332    1.529   .     S
C294   C304    1.415   .     A
C294   C296    1.409   .     A
C295   C297    1.413   .     A
C295   C339    1.452   .     S
C296   C341    1.452   .     S
C296   C298    1.416   .     A
C297   C299    1.408   .     A
C298   C300    1.414   .     A
C299   C343    1.449   .     S
C299   C301    1.397   .     A
C300   C345    1.453   .     S
C300   C302    1.399   .     A
C301   C347    1.454   .     S
C301   C303    1.408   .     A
C302   C349    1.454   .     S
C302   C304    1.408   .     A
C304   C27     1.472   1_565 S
Cu305  N312    2.009   .     S
Cu305  Cu306   2.674   .     S
Cu305  O320    1.982   .     S
Cu305  O317    1.982   .     S
Cu305  O316    1.958   .     S
Cu305  O313    1.963   .     S
Cu306  N311    2.009   .     S
Cu306  O314    1.963   .     S
Cu306  O319    1.982   .     S
Cu306  O315    1.958   .     S
Cu306  O318    1.982   .     S
C321   N322    1.158   .     T
C321   C383    1.456   .     S
C323   N324    1.156   .     T
C323   C476    1.452   1_455 S
C325   H331    1.112   .     S
C325   C326    1.527   .     S
C326   H329    1.110   .     S
C326   H327    1.110   .     S
H328   C50     1.108   1_565 S
H330   C49     1.108   1_565 S
C332   C333    1.523   .     S
C332   H338    1.111   .     S
C332   H61     1.108   1_565 S
C333   H334    1.111   .     S
C333   H59     1.108   1_565 S
C333   H60     1.110   1_565 S
C339   N340    1.158   .     T
C341   N342    1.158   .     T
C343   N344    1.156   .     T
C345   N346    1.158   .     T
C347   N348    1.157   .     T
C349   N350    1.157   .     T
C351   H356    1.111   .     S
C351   H357    1.092   .     S
C351   C352    1.534   .     S
C352   H355    1.111   .     S
C352   H354    1.110   .     S
C352   H353    1.109   .     S
C358   H363    1.112   .     S
C358   C359    1.530   .     S
C358   H364    1.091   .     S
C359   H360    1.111   .     S
C359   H361    1.111   .     S
C359   H362    1.110   .     S
C365   N366    1.157   .     T
C367   N368    1.157   .     T
C369   C389    1.465   .     S
C369   O405    1.291   .     A
C369   O407    1.292   .     A
C370   C390    1.472   .     S
C370   O406    1.294   .     A
C370   O408    1.292   .     A
C371   H399    1.082   .     S
C371   C373    1.415   .     A
C371   C379    1.393   .     A
C372   C380    1.395   .     A
C372   C374    1.414   .     A
C372   H400    1.084   .     S
C373   C443    1.520   .     S
C373   N403    1.390   .     A
C374   C450    1.514   .     S
C374   N404    1.386   .     A
C375   H401    1.082   .     S
C375   C377    1.417   .     A
C375   N403    1.370   .     A
C376   N404    1.368   .     A
C376   H402    1.080   .     S
C376   C378    1.417   .     A
C377   C457    1.442   .     S
C377   C379    1.410   .     A
C378   C380    1.411   .     A
C378   C459    1.442   .     S
C379   C932    1.512   1_554 S
C380   C931    1.512   .     S
C381   O409    1.283   .     A
C381   C383    1.437   .     S
C381   O411    1.289   .     A
C382   C384    1.436   .     S
C382   O410    1.280   .     A
C382   O412    1.292   .     A
C384   C475    1.360   .     S
C384   C507    1.452   .     S
C385   C395    1.418   .     A
C385   C417    1.529   .     S
C385   C387    1.411   .     A
C386   C424    1.529   .     S
C386   C396    1.415   .     A
C386   C388    1.409   .     A
C387   C389    1.413   .     A
C387   C431    1.452   .     S
C388   C433    1.452   .     S
C388   C390    1.416   .     A
C389   C391    1.408   .     A
C390   C392    1.414   .     A
C391   C435    1.449   .     S
C391   C393    1.397   .     A
C392   C437    1.453   .     S
C392   C394    1.399   .     A
C393   C439    1.454   .     S
C393   C395    1.408   .     A
C394   C441    1.454   .     S
C394   C396    1.408   .     A
C396   C119    1.472   1_565 S
Cu397  N404    2.009   .     S
Cu397  Cu398   2.674   .     S
Cu397  O412    1.982   .     S
Cu397  O409    1.982   .     S
Cu397  O408    1.958   .     S
Cu397  O405    1.963   .     S
Cu398  N403    2.009   .     S
Cu398  O406    1.963   .     S
Cu398  O411    1.982   .     S
Cu398  O407    1.958   .     S
Cu398  O410    1.982   .     S
C413   N414    1.158   .     T
C413   C475    1.456   .     S
C415   N416    1.156   .     T
C417   H423    1.112   .     S
C417   C418    1.527   .     S
C418   H421    1.110   .     S
C418   H419    1.110   .     S
H420   C142    1.108   1_565 S
H422   C141    1.108   1_565 S
C424   C425    1.523   .     S
C424   H430    1.111   .     S
C424   H153    1.108   1_565 S
C425   H426    1.111   .     S
C425   H151    1.108   1_565 S
C425   H152    1.110   1_565 S
C431   N432    1.158   .     T
C433   N434    1.158   .     T
C435   N436    1.156   .     T
C437   N438    1.158   .     T
C439   N440    1.157   .     T
C441   N442    1.157   .     T
C443   H448    1.111   .     S
C443   H449    1.092   .     S
C443   C444    1.534   .     S
C444   H447    1.111   .     S
C444   H446    1.110   .     S
C444   H445    1.109   .     S
C450   H455    1.112   .     S
C450   C451    1.530   .     S
C450   H456    1.091   .     S
C451   H452    1.111   .     S
C451   H453    1.111   .     S
C451   H454    1.110   .     S
C457   N458    1.157   .     T
C459   N460    1.157   .     T
C461   C481    1.465   .     S
C461   O497    1.291   .     A
C461   O499    1.292   .     A
C462   C482    1.472   .     S
C462   O498    1.294   .     A
C462   O500    1.292   .     A
C463   H491    1.082   .     S
C463   C465    1.415   .     A
C463   C471    1.393   .     A
C464   C472    1.395   .     A
C464   C466    1.414   .     A
C464   H492    1.084   .     S
C465   C535    1.520   .     S
C465   N495    1.390   .     A
C466   C542    1.514   .     S
C466   N496    1.386   .     A
C467   H493    1.082   .     S
C467   C469    1.417   .     A
C467   N495    1.370   .     A
C468   N496    1.368   .     A
C468   H494    1.080   .     S
C468   C470    1.417   .     A
C469   C549    1.442   .     S
C469   C471    1.410   .     A
C470   C472    1.411   .     A
C470   C551    1.442   .     S
C471   C1024   1.512   1_554 S
C472   C1023   1.512   .     S
C473   O501    1.283   .     A
C473   C475    1.437   .     S
C473   O503    1.289   .     A
C474   C476    1.436   .     S
C474   O502    1.280   .     A
C474   O504    1.292   .     A
C476   C291    1.360   1_655 S
C476   C323    1.452   1_655 S
C477   C487    1.418   .     A
C477   C509    1.529   .     S
C477   C479    1.411   .     A
C478   C516    1.529   .     S
C478   C488    1.415   .     A
C478   C480    1.409   .     A
C479   C481    1.413   .     A
C479   C523    1.452   .     S
C480   C525    1.452   .     S
C480   C482    1.416   .     A
C481   C483    1.408   .     A
C482   C484    1.414   .     A
C483   C527    1.449   .     S
C483   C485    1.397   .     A
C484   C529    1.453   .     S
C484   C486    1.399   .     A
C485   C531    1.454   .     S
C485   C487    1.408   .     A
C486   C533    1.454   .     S
C486   C488    1.408   .     A
C488   C211    1.472   1_565 S
Cu489  N496    2.009   .     S
Cu489  Cu490   2.674   .     S
Cu489  O504    1.982   .     S
Cu489  O501    1.982   .     S
Cu489  O500    1.958   .     S
Cu489  O497    1.963   .     S
Cu490  N495    2.009   .     S
Cu490  O498    1.963   .     S
Cu490  O503    1.982   .     S
Cu490  O499    1.958   .     S
Cu490  O502    1.982   .     S
C505   N506    1.158   .     T
C505   C291    1.456   1_655 S
C507   N508    1.156   .     T
C509   H515    1.112   .     S
C509   C510    1.527   .     S
C510   H513    1.110   .     S
C510   H511    1.110   .     S
H512   C234    1.108   1_565 S
H514   C233    1.108   1_565 S
C516   C517    1.523   .     S
C516   H522    1.111   .     S
C516   H245    1.108   1_565 S
C517   H518    1.111   .     S
C517   H243    1.108   1_565 S
C517   H244    1.110   1_565 S
C523   N524    1.158   .     T
C525   N526    1.158   .     T
C527   N528    1.156   .     T
C529   N530    1.158   .     T
C531   N532    1.157   .     T
C533   N534    1.157   .     T
C535   H540    1.111   .     S
C535   H541    1.092   .     S
C535   C536    1.534   .     S
C536   H539    1.111   .     S
C536   H538    1.110   .     S
C536   H537    1.109   .     S
C542   H547    1.112   .     S
C542   C543    1.530   .     S
C542   H548    1.091   .     S
C543   H544    1.111   .     S
C543   H545    1.111   .     S
C543   H546    1.110   .     S
C549   N550    1.157   .     T
C551   N552    1.157   .     T
C553   C573    1.465   .     S
C553   O589    1.291   .     A
C553   O591    1.292   .     A
C554   C574    1.472   .     S
C554   O590    1.294   .     A
C554   O592    1.292   .     A
C555   H583    1.082   .     S
C555   C557    1.415   .     A
C555   C563    1.393   .     A
C556   C564    1.395   .     A
C556   C558    1.414   .     A
C556   H584    1.084   .     S
C557   C627    1.520   .     S
C557   N587    1.390   .     A
C558   C634    1.514   .     S
C558   N588    1.386   .     A
C559   H585    1.082   .     S
C559   C561    1.417   .     A
C559   N587    1.370   .     A
C560   N588    1.368   .     A
C560   H586    1.080   .     S
C560   C562    1.417   .     A
C561   C641    1.442   .     S
C561   C563    1.410   .     A
C562   C564    1.411   .     A
C562   C643    1.442   .     S
C564   C11     1.512   1_556 S
C565   O593    1.283   .     A
C565   C567    1.437   .     S
C565   O595    1.289   .     A
C566   C568    1.436   .     S
C566   O594    1.280   .     A
C566   O596    1.292   .     A
C567   C752    1.360   1_455 S
C567   C781    1.456   1_455 S
C568   C659    1.360   .     S
C568   C691    1.452   .     S
C569   C579    1.418   .     A
C569   C601    1.529   .     S
C569   C571    1.411   .     A
C570   C608    1.529   .     S
C570   C580    1.415   .     A
C570   C572    1.409   .     A
C571   C573    1.413   .     A
C571   C615    1.452   .     S
C572   C617    1.452   .     S
C572   C574    1.416   .     A
C573   C575    1.408   .     A
C574   C576    1.414   .     A
C575   C619    1.449   .     S
C575   C577    1.397   .     A
C576   C621    1.453   .     S
C576   C578    1.399   .     A
C577   C623    1.454   .     S
C577   C579    1.408   .     A
C578   C625    1.454   .     S
C578   C580    1.408   .     A
C579   C856    1.472   1_545 S
C580   C855    1.472   .     S
Cu581  N588    2.009   .     S
Cu581  Cu582   2.674   .     S
Cu581  O596    1.982   .     S
Cu581  O593    1.982   .     S
Cu581  O592    1.958   .     S
Cu581  O589    1.963   .     S
Cu582  N587    2.009   .     S
Cu582  O590    1.963   .     S
Cu582  O595    1.982   .     S
Cu582  O591    1.958   .     S
Cu582  O594    1.982   .     S
C597   N598    1.158   .     T
C597   C659    1.456   .     S
C599   N600    1.156   .     T
C599   C752    1.452   1_455 S
C601   H607    1.112   .     S
C601   C602    1.527   .     S
C601   H882    1.108   1_545 S
C602   H605    1.110   .     S
C602   H603    1.110   .     S
C602   H880    1.108   1_545 S
H604   C878    1.108   .     S
H606   C877    1.108   .     S
C608   C609    1.523   .     S
C608   H614    1.111   .     S
C608   H889    1.108   .     S
C609   H610    1.111   .     S
C609   H887    1.108   .     S
C609   H888    1.110   .     S
H611   C885    1.108   1_545 S
H612   C885    1.110   1_545 S
H613   C884    1.108   1_545 S
C615   N616    1.158   .     T
C617   N618    1.158   .     T
C619   N620    1.156   .     T
C621   N622    1.158   .     T
C623   N624    1.157   .     T
C625   N626    1.157   .     T
C627   H632    1.111   .     S
C627   H633    1.092   .     S
C627   C628    1.534   .     S
C628   H631    1.111   .     S
C628   H630    1.110   .     S
C628   H629    1.109   .     S
C634   H639    1.112   .     S
C634   C635    1.530   .     S
C634   H640    1.091   .     S
C635   H636    1.111   .     S
C635   H637    1.111   .     S
C635   H638    1.110   .     S
C641   N642    1.157   .     T
C643   N644    1.157   .     T
C645   C665    1.465   .     S
C645   O681    1.291   .     A
C645   O683    1.292   .     A
C646   C666    1.472   .     S
C646   O682    1.294   .     A
C646   O684    1.292   .     A
C647   H675    1.082   .     S
C647   C649    1.415   .     A
C647   C655    1.393   .     A
C648   C656    1.395   .     A
C648   C650    1.414   .     A
C648   H676    1.084   .     S
C649   C719    1.520   .     S
C649   N679    1.390   .     A
C650   C726    1.514   .     S
C650   N680    1.386   .     A
C651   H677    1.082   .     S
C651   C653    1.417   .     A
C651   N679    1.370   .     A
C652   N680    1.368   .     A
C652   H678    1.080   .     S
C652   C654    1.417   .     A
C653   C733    1.442   .     S
C653   C655    1.410   .     A
C654   C656    1.411   .     A
C654   C735    1.442   .     S
C656   C103    1.512   1_556 S
C657   O685    1.283   .     A
C657   C659    1.437   .     S
C657   O687    1.289   .     A
C658   C660    1.436   .     S
C658   O686    1.280   .     A
C658   O688    1.292   .     A
C660   C751    1.360   .     S
C660   C783    1.452   .     S
C661   C671    1.418   .     A
C661   C693    1.529   .     S
C661   C663    1.411   .     A
C662   C700    1.529   .     S
C662   C672    1.415   .     A
C662   C664    1.409   .     A
C663   C665    1.413   .     A
C663   C707    1.452   .     S
C664   C709    1.452   .     S
C664   C666    1.416   .     A
C665   C667    1.408   .     A
C666   C668    1.414   .     A
C667   C711    1.449   .     S
C667   C669    1.397   .     A
C668   C713    1.453   .     S
C668   C670    1.399   .     A
C669   C715    1.454   .     S
C669   C671    1.408   .     A
C670   C717    1.454   .     S
C670   C672    1.408   .     A
C671   C948    1.472   1_545 S
C672   C947    1.472   .     S
Cu673  N680    2.009   .     S
Cu673  Cu674   2.674   .     S
Cu673  O688    1.982   .     S
Cu673  O685    1.982   .     S
Cu673  O684    1.958   .     S
Cu673  O681    1.963   .     S
Cu674  N679    2.009   .     S
Cu674  O682    1.963   .     S
Cu674  O687    1.982   .     S
Cu674  O683    1.958   .     S
Cu674  O686    1.982   .     S
C689   N690    1.158   .     T
C689   C751    1.456   .     S
C691   N692    1.156   .     T
C693   H699    1.112   .     S
C693   C694    1.527   .     S
C693   H974    1.108   1_545 S
C694   H697    1.110   .     S
C694   H695    1.110   .     S
C694   H972    1.108   1_545 S
H696   C970    1.108   .     S
H698   C969    1.108   .     S
C700   C701    1.523   .     S
C700   H706    1.111   .     S
C700   H981    1.108   .     S
C701   H702    1.111   .     S
C701   H979    1.108   .     S
C701   H980    1.110   .     S
H703   C977    1.108   1_545 S
H704   C977    1.110   1_545 S
H705   C976    1.108   1_545 S
C707   N708    1.158   .     T
C709   N710    1.158   .     T
C711   N712    1.156   .     T
C713   N714    1.158   .     T
C715   N716    1.157   .     T
C717   N718    1.157   .     T
C719   H724    1.111   .     S
C719   H725    1.092   .     S
C719   C720    1.534   .     S
C720   H723    1.111   .     S
C720   H722    1.110   .     S
C720   H721    1.109   .     S
C726   H731    1.112   .     S
C726   C727    1.530   .     S
C726   H732    1.091   .     S
C727   H728    1.111   .     S
C727   H729    1.111   .     S
C727   H730    1.110   .     S
C733   N734    1.157   .     T
C735   N736    1.157   .     T
C737   C757    1.465   .     S
C737   O773    1.291   .     A
C737   O775    1.292   .     A
C738   C758    1.472   .     S
C738   O774    1.294   .     A
C738   O776    1.292   .     A
C739   H767    1.082   .     S
C739   C741    1.415   .     A
C739   C747    1.393   .     A
C740   C748    1.395   .     A
C740   C742    1.414   .     A
C740   H768    1.084   .     S
C741   C811    1.520   .     S
C741   N771    1.390   .     A
C742   C818    1.514   .     S
C742   N772    1.386   .     A
C743   H769    1.082   .     S
C743   C745    1.417   .     A
C743   N771    1.370   .     A
C744   N772    1.368   .     A
C744   H770    1.080   .     S
C744   C746    1.417   .     A
C745   C825    1.442   .     S
C745   C747    1.410   .     A
C746   C748    1.411   .     A
C746   C827    1.442   .     S
C748   C195    1.512   1_556 S
C749   O777    1.283   .     A
C749   C751    1.437   .     S
C749   O779    1.289   .     A
C750   C752    1.436   .     S
C750   O778    1.280   .     A
C750   O780    1.292   .     A
C752   C567    1.360   1_655 S
C752   C599    1.452   1_655 S
C753   C763    1.418   .     A
C753   C785    1.529   .     S
C753   C755    1.411   .     A
C754   C792    1.529   .     S
C754   C764    1.415   .     A
C754   C756    1.409   .     A
C755   C757    1.413   .     A
C755   C799    1.452   .     S
C756   C801    1.452   .     S
C756   C758    1.416   .     A
C757   C759    1.408   .     A
C758   C760    1.414   .     A
C759   C803    1.449   .     S
C759   C761    1.397   .     A
C760   C805    1.453   .     S
C760   C762    1.399   .     A
C761   C807    1.454   .     S
C761   C763    1.408   .     A
C762   C809    1.454   .     S
C762   C764    1.408   .     A
C763   C1040   1.472   1_545 S
C764   C1039   1.472   .     S
Cu765  N772    2.009   .     S
Cu765  Cu766   2.674   .     S
Cu765  O780    1.982   .     S
Cu765  O777    1.982   .     S
Cu765  O776    1.958   .     S
Cu765  O773    1.963   .     S
Cu766  N771    2.009   .     S
Cu766  O774    1.963   .     S
Cu766  O779    1.982   .     S
Cu766  O775    1.958   .     S
Cu766  O778    1.982   .     S
C781   N782    1.158   .     T
C781   C567    1.456   1_655 S
C783   N784    1.156   .     T
C785   H791    1.112   .     S
C785   C786    1.527   .     S
C785   H1066   1.108   1_545 S
C786   H789    1.110   .     S
C786   H787    1.110   .     S
C786   H1064   1.108   1_545 S
H788   C1062   1.108   .     S
H790   C1061   1.108   .     S
C792   C793    1.523   .     S
C792   H798    1.111   .     S
C792   H1073   1.108   .     S
C793   H794    1.111   .     S
C793   H1071   1.108   .     S
C793   H1072   1.110   .     S
H795   C1069   1.108   1_545 S
H796   C1069   1.110   1_545 S
H797   C1068   1.108   1_545 S
C799   N800    1.158   .     T
C801   N802    1.158   .     T
C803   N804    1.156   .     T
C805   N806    1.158   .     T
C807   N808    1.157   .     T
C809   N810    1.157   .     T
C811   H816    1.111   .     S
C811   H817    1.092   .     S
C811   C812    1.534   .     S
C812   H815    1.111   .     S
C812   H814    1.110   .     S
C812   H813    1.109   .     S
C818   H823    1.112   .     S
C818   C819    1.530   .     S
C818   H824    1.091   .     S
C819   H820    1.111   .     S
C819   H821    1.111   .     S
C819   H822    1.110   .     S
C825   N826    1.157   .     T
C827   N828    1.157   .     T
C829   C849    1.465   .     S
C829   O865    1.291   .     A
C829   O867    1.292   .     A
C830   C850    1.472   .     S
C830   O866    1.294   .     A
C830   O868    1.292   .     A
C831   H859    1.082   .     S
C831   C833    1.415   .     A
C831   C839    1.393   .     A
C832   C840    1.395   .     A
C832   C834    1.414   .     A
C832   H860    1.084   .     S
C833   C903    1.520   .     S
C833   N863    1.390   .     A
C834   C910    1.514   .     S
C834   N864    1.386   .     A
C835   H861    1.082   .     S
C835   C837    1.417   .     A
C835   N863    1.370   .     A
C836   N864    1.368   .     A
C836   H862    1.080   .     S
C836   C838    1.417   .     A
C837   C917    1.442   .     S
C837   C839    1.410   .     A
C838   C840    1.411   .     A
C838   C919    1.442   .     S
C840   C287    1.512   1_556 S
C841   O869    1.283   .     A
C841   C843    1.437   .     S
C841   O871    1.289   .     A
C842   C844    1.436   .     S
C842   O870    1.280   .     A
C842   O872    1.292   .     A
C843   C1028   1.360   1_455 S
C843   C1057   1.456   1_455 S
C844   C935    1.360   .     S
C844   C967    1.452   .     S
C845   C855    1.418   .     A
C845   C877    1.529   .     S
C845   C847    1.411   .     A
C846   C884    1.529   .     S
C846   C856    1.415   .     A
C846   C848    1.409   .     A
C847   C849    1.413   .     A
C847   C891    1.452   .     S
C848   C893    1.452   .     S
C848   C850    1.416   .     A
C849   C851    1.408   .     A
C850   C852    1.414   .     A
C851   C895    1.449   .     S
C851   C853    1.397   .     A
C852   C897    1.453   .     S
C852   C854    1.399   .     A
C853   C899    1.454   .     S
C853   C855    1.408   .     A
C854   C901    1.454   .     S
C854   C856    1.408   .     A
C856   C579    1.472   1_565 S
Cu857  N864    2.009   .     S
Cu857  Cu858   2.674   .     S
Cu857  O872    1.982   .     S
Cu857  O869    1.982   .     S
Cu857  O868    1.958   .     S
Cu857  O865    1.963   .     S
Cu858  N863    2.009   .     S
Cu858  O866    1.963   .     S
Cu858  O871    1.982   .     S
Cu858  O867    1.958   .     S
Cu858  O870    1.982   .     S
C873   N874    1.158   .     T
C873   C935    1.456   .     S
C875   N876    1.156   .     T
C875   C1028   1.452   1_455 S
C877   H883    1.112   .     S
C877   C878    1.527   .     S
C878   H881    1.110   .     S
C878   H879    1.110   .     S
H880   C602    1.108   1_565 S
H882   C601    1.108   1_565 S
C884   C885    1.523   .     S
C884   H890    1.111   .     S
C884   H613    1.108   1_565 S
C885   H886    1.111   .     S
C885   H611    1.108   1_565 S
C885   H612    1.110   1_565 S
C891   N892    1.158   .     T
C893   N894    1.158   .     T
C895   N896    1.156   .     T
C897   N898    1.158   .     T
C899   N900    1.157   .     T
C901   N902    1.157   .     T
C903   H908    1.111   .     S
C903   H909    1.092   .     S
C903   C904    1.534   .     S
C904   H907    1.111   .     S
C904   H906    1.110   .     S
C904   H905    1.109   .     S
C910   H915    1.112   .     S
C910   C911    1.530   .     S
C910   H916    1.091   .     S
C911   H912    1.111   .     S
C911   H913    1.111   .     S
C911   H914    1.110   .     S
C917   N918    1.157   .     T
C919   N920    1.157   .     T
C921   C941    1.465   .     S
C921   O957    1.291   .     A
C921   O959    1.292   .     A
C922   C942    1.472   .     S
C922   O958    1.294   .     A
C922   O960    1.292   .     A
C923   H951    1.082   .     S
C923   C925    1.415   .     A
C923   C931    1.393   .     A
C924   C932    1.395   .     A
C924   C926    1.414   .     A
C924   H952    1.084   .     S
C925   C995    1.520   .     S
C925   N955    1.390   .     A
C926   C1002   1.514   .     S
C926   N956    1.386   .     A
C927   H953    1.082   .     S
C927   C929    1.417   .     A
C927   N955    1.370   .     A
C928   N956    1.368   .     A
C928   H954    1.080   .     S
C928   C930    1.417   .     A
C929   C1009   1.442   .     S
C929   C931    1.410   .     A
C930   C932    1.411   .     A
C930   C1011   1.442   .     S
C932   C379    1.512   1_556 S
C933   O961    1.283   .     A
C933   C935    1.437   .     S
C933   O963    1.289   .     A
C934   C936    1.436   .     S
C934   O962    1.280   .     A
C934   O964    1.292   .     A
C936   C1027   1.360   .     S
C936   C1059   1.452   .     S
C937   C947    1.418   .     A
C937   C969    1.529   .     S
C937   C939    1.411   .     A
C938   C976    1.529   .     S
C938   C948    1.415   .     A
C938   C940    1.409   .     A
C939   C941    1.413   .     A
C939   C983    1.452   .     S
C940   C985    1.452   .     S
C940   C942    1.416   .     A
C941   C943    1.408   .     A
C942   C944    1.414   .     A
C943   C987    1.449   .     S
C943   C945    1.397   .     A
C944   C989    1.453   .     S
C944   C946    1.399   .     A
C945   C991    1.454   .     S
C945   C947    1.408   .     A
C946   C993    1.454   .     S
C946   C948    1.408   .     A
C948   C671    1.472   1_565 S
Cu949  N956    2.009   .     S
Cu949  Cu950   2.674   .     S
Cu949  O964    1.982   .     S
Cu949  O961    1.982   .     S
Cu949  O960    1.958   .     S
Cu949  O957    1.963   .     S
Cu950  N955    2.009   .     S
Cu950  O958    1.963   .     S
Cu950  O963    1.982   .     S
Cu950  O959    1.958   .     S
Cu950  O962    1.982   .     S
C965   N966    1.158   .     T
C965   C1027   1.456   .     S
C967   N968    1.156   .     T
C969   H975    1.112   .     S
C969   C970    1.527   .     S
C970   H973    1.110   .     S
C970   H971    1.110   .     S
H972   C694    1.108   1_565 S
H974   C693    1.108   1_565 S
C976   C977    1.523   .     S
C976   H982    1.111   .     S
C976   H705    1.108   1_565 S
C977   H978    1.111   .     S
C977   H703    1.108   1_565 S
C977   H704    1.110   1_565 S
C983   N984    1.158   .     T
C985   N986    1.158   .     T
C987   N988    1.156   .     T
C989   N990    1.158   .     T
C991   N992    1.157   .     T
C993   N994    1.157   .     T
C995   H1000   1.111   .     S
C995   H1001   1.092   .     S
C995   C996    1.534   .     S
C996   H999    1.111   .     S
C996   H998    1.110   .     S
C996   H997    1.109   .     S
C1002  H1007   1.112   .     S
C1002  C1003   1.530   .     S
C1002  H1008   1.091   .     S
C1003  H1004   1.111   .     S
C1003  H1005   1.111   .     S
C1003  H1006   1.110   .     S
C1009  N1010   1.157   .     T
C1011  N1012   1.157   .     T
C1013  C1033   1.465   .     S
C1013  O1049   1.291   .     A
C1013  O1051   1.292   .     A
C1014  C1034   1.472   .     S
C1014  O1050   1.294   .     A
C1014  O1052   1.292   .     A
C1015  H1043   1.082   .     S
C1015  C1017   1.415   .     A
C1015  C1023   1.393   .     A
C1016  C1024   1.395   .     A
C1016  C1018   1.414   .     A
C1016  H1044   1.084   .     S
C1017  C1087   1.520   .     S
C1017  N1047   1.390   .     A
C1018  C1094   1.514   .     S
C1018  N1048   1.386   .     A
C1019  H1045   1.082   .     S
C1019  C1021   1.417   .     A
C1019  N1047   1.370   .     A
C1020  N1048   1.368   .     A
C1020  H1046   1.080   .     S
C1020  C1022   1.417   .     A
C1021  C1101   1.442   .     S
C1021  C1023   1.410   .     A
C1022  C1024   1.411   .     A
C1022  C1103   1.442   .     S
C1024  C471    1.512   1_556 S
C1025  O1053   1.283   .     A
C1025  C1027   1.437   .     S
C1025  O1055   1.289   .     A
C1026  C1028   1.436   .     S
C1026  O1054   1.280   .     A
C1026  O1056   1.292   .     A
C1028  C843    1.360   1_655 S
C1028  C875    1.452   1_655 S
C1029  C1039   1.418   .     A
C1029  C1061   1.529   .     S
C1029  C1031   1.411   .     A
C1030  C1068   1.529   .     S
C1030  C1040   1.415   .     A
C1030  C1032   1.409   .     A
C1031  C1033   1.413   .     A
C1031  C1075   1.452   .     S
C1032  C1077   1.452   .     S
C1032  C1034   1.416   .     A
C1033  C1035   1.408   .     A
C1034  C1036   1.414   .     A
C1035  C1079   1.449   .     S
C1035  C1037   1.397   .     A
C1036  C1081   1.453   .     S
C1036  C1038   1.399   .     A
C1037  C1083   1.454   .     S
C1037  C1039   1.408   .     A
C1038  C1085   1.454   .     S
C1038  C1040   1.408   .     A
C1040  C763    1.472   1_565 S
Cu1041 N1048   2.009   .     S
Cu1041 Cu1042  2.674   .     S
Cu1041 O1056   1.982   .     S
Cu1041 O1053   1.982   .     S
Cu1041 O1052   1.958   .     S
Cu1041 O1049   1.963   .     S
Cu1042 N1047   2.009   .     S
Cu1042 O1050   1.963   .     S
Cu1042 O1055   1.982   .     S
Cu1042 O1051   1.958   .     S
Cu1042 O1054   1.982   .     S
C1057  N1058   1.158   .     T
C1057  C843    1.456   1_655 S
C1059  N1060   1.156   .     T
C1061  H1067   1.112   .     S
C1061  C1062   1.527   .     S
C1062  H1065   1.110   .     S
C1062  H1063   1.110   .     S
H1064  C786    1.108   1_565 S
H1066  C785    1.108   1_565 S
C1068  C1069   1.523   .     S
C1068  H1074   1.111   .     S
C1068  H797    1.108   1_565 S
C1069  H1070   1.111   .     S
C1069  H795    1.108   1_565 S
C1069  H796    1.110   1_565 S
C1075  N1076   1.158   .     T
C1077  N1078   1.158   .     T
C1079  N1080   1.156   .     T
C1081  N1082   1.158   .     T
C1083  N1084   1.157   .     T
C1085  N1086   1.157   .     T
C1087  H1092   1.111   .     S
C1087  H1093   1.092   .     S
C1087  C1088   1.534   .     S
C1088  H1091   1.111   .     S
C1088  H1090   1.110   .     S
C1088  H1089   1.109   .     S
C1094  H1099   1.112   .     S
C1094  C1095   1.530   .     S
C1094  H1100   1.091   .     S
C1095  H1096   1.111   .     S
C1095  H1097   1.111   .     S
C1095  H1098   1.110   .     S
C1101  N1102   1.157   .     T
C1103  N1104   1.157   .     T
