data_str_m2_o1_o10_pcu_sym.93
_audit_creation_date              2020-01-03
_audit_creation_method            'Materials Studio'
_symmetry_space_group_name_H-M    'P1'
_symmetry_Int_Tables_number       1
_symmetry_cell_setting            triclinic
loop_
_symmetry_equiv_pos_as_xyz
  x,y,z
_cell_length_a                    26.3629
_cell_length_b                    32.2766
_cell_length_c                    28.8706
_cell_angle_alpha                 91.7834
_cell_angle_beta                  96.7340
_cell_angle_gamma                 90.5828
loop_
_atom_site_label
_atom_site_type_symbol
_atom_site_fract_x
_atom_site_fract_y
_atom_site_fract_z
_atom_site_U_iso_or_equiv
_atom_site_adp_type
_atom_site_occupancy
Br1    Br    0.32157   0.13108   0.09226   0.00000  Uiso   1.00
Br2    Br    0.01177   0.20684   0.23855   0.00000  Uiso   1.00
Br3    Br    0.27323   0.04729   0.14688   0.00000  Uiso   1.00
Br4    Br    0.05691   0.28642   0.17928   0.00000  Uiso   1.00
C5     C     0.16727   0.08760   0.16619   0.00000  Uiso   1.00
C6     C     0.12250   0.02245   0.17412   0.00000  Uiso   1.00
C7     C     0.16517   0.29059   0.16759   0.00000  Uiso   1.00
C8     C     0.16701   0.04306   0.16541   0.00000  Uiso   1.00
C9     C     0.13793   0.13820   0.02080   0.00000  Uiso   1.00
C10    C     0.19780   0.19343   0.31285   0.00000  Uiso   1.00
C11    C     0.13522   0.13988   0.30388   0.00000  Uiso   1.00
C12    C     0.20087   0.19109   0.02926   0.00000  Uiso   1.00
C13    C     0.14030   0.06855   0.03390   0.00000  Uiso   1.00
C14    C     0.10883   0.03240   0.04844   0.00000  Uiso   1.00
C15    C     0.21596   0.25989   0.29392   0.00000  Uiso   1.00
C16    C     0.16531   0.24583   0.16703   0.00000  Uiso   1.00
C17    C     0.25092   0.28598   0.26775   0.00000  Uiso   1.00
C18    C     0.05508   0.10848   0.28407   0.00000  Uiso   1.00
C19    C     0.02327   0.08587   0.24354   0.00000  Uiso   1.00
C20    C     0.25153   0.23991   0.07577   0.00000  Uiso   1.00
C21    C     0.30057   0.26151   0.06578   0.00000  Uiso   1.00
C22    C     0.06832   0.16695   0.15509   0.00000  Uiso   1.00
C23    C     0.26501   0.16742   0.17813   0.00000  Uiso   1.00
C24    C     0.01389   0.16208   0.14901   0.00000  Uiso   1.00
C25    C     0.31921   0.17412   0.18332   0.00000  Uiso   1.00
C26    C     0.21071   0.02090   0.15754   0.00000  Uiso   1.00
C27    C     0.12097   0.31281   0.17418   0.00000  Uiso   1.00
C28    C     0.20960   0.31143   0.15890   0.00000  Uiso   1.00
Cu29   Cu    0.16667   0.16667   0.21355   0.00000  Uiso   1.00
Cu30   Cu    0.16667   0.16666   0.11978   0.00000  Uiso   1.00
H31    H     0.24395   0.29463   0.15431   0.00000  Uiso   1.00
H32    H     0.25583   0.27057   0.23379   0.00000  Uiso   1.00
H33    H     0.23445   0.31718   0.26192   0.00000  Uiso   1.00
H34    H     0.28920   0.28970   0.28802   0.00000  Uiso   1.00
H35    H     0.03892   0.13947   0.29004   0.00000  Uiso   1.00
H36    H     0.05094   0.08979   0.31481   0.00000  Uiso   1.00
H37    H     0.31534   0.08905   0.24721   0.00000  Uiso   1.00
H38    H     0.03116   0.09862   0.20996   0.00000  Uiso   1.00
H39    H     0.03281   0.05243   0.24326   0.00000  Uiso   1.00
H40    H     0.25582   0.23638   0.11389   0.00000  Uiso   1.00
H41    H     0.21766   0.25966   0.06701   0.00000  Uiso   1.00
H42    H     0.08853   0.03979   0.17923   0.00000  Uiso   1.00
H43    H     0.30134   0.29413   0.07926   0.00000  Uiso   1.00
H44    H     0.00083   0.24526   0.08324   0.00000  Uiso   1.00
H45    H     0.30371   0.26100   0.02792   0.00000  Uiso   1.00
H46    H     0.17855   0.06891   0.05469   0.00000  Uiso   1.00
H47    H     0.14625   0.06245   0.33017   0.00000  Uiso   1.00
H48    H     0.09517   0.03962   0.08259   0.00000  Uiso   1.00
H49    H     0.07505   0.02637   0.02224   0.00000  Uiso   1.00
H50    H     0.13236   0.00402   0.05111   0.00000  Uiso   1.00
H51    H     0.21764   0.27360   0.32935   0.00000  Uiso   1.00
H52    H     0.17573   0.26299   0.27813   0.00000  Uiso   1.00
N53    N     0.16668   0.16668   0.28403   0.00000  Uiso   1.00
N54    N     0.16665   0.16666   0.04931   0.00000  Uiso   1.00
O55    O     0.16666   0.10655   0.20625   0.00000  Uiso   1.00
O56    O     0.23241   0.21821   0.29361   0.00000  Uiso   1.00
O57    O     0.10647   0.11116   0.27448   0.00000  Uiso   1.00
O58    O     0.24820   0.20004   0.05409   0.00000  Uiso   1.00
O59    O     0.16667   0.22678   0.12709   0.00000  Uiso   1.00
O60    O     0.16666   0.10654   0.12706   0.00000  Uiso   1.00
O61    O     0.16667   0.22679   0.20628   0.00000  Uiso   1.00
O62    O     0.09161   0.16667   0.19712   0.00000  Uiso   1.00
O63    O     0.24172   0.16666   0.13621   0.00000  Uiso   1.00
O64    O     0.09161   0.16666   0.11793   0.00000  Uiso   1.00
O65    O     0.24172   0.16667   0.21540   0.00000  Uiso   1.00
O66    O     0.11450   0.10620   0.04135   0.00000  Uiso   1.00
Br67   Br    0.65490   0.13108   0.09226   0.00000  Uiso   1.00
Br68   Br    0.34510   0.20684   0.23855   0.00000  Uiso   1.00
Br69   Br    0.60656   0.04729   0.14688   0.00000  Uiso   1.00
Br70   Br    0.39024   0.28642   0.17928   0.00000  Uiso   1.00
C71    C     0.50061   0.08760   0.16619   0.00000  Uiso   1.00
C72    C     0.45584   0.02245   0.17412   0.00000  Uiso   1.00
C73    C     0.49850   0.29059   0.16759   0.00000  Uiso   1.00
C74    C     0.50034   0.04306   0.16541   0.00000  Uiso   1.00
C75    C     0.47126   0.13820   0.02080   0.00000  Uiso   1.00
C76    C     0.53114   0.19343   0.31285   0.00000  Uiso   1.00
C77    C     0.46855   0.13988   0.30388   0.00000  Uiso   1.00
C78    C     0.53421   0.19109   0.02926   0.00000  Uiso   1.00
C79    C     0.47363   0.06855   0.03390   0.00000  Uiso   1.00
C80    C     0.44217   0.03240   0.04844   0.00000  Uiso   1.00
C81    C     0.54929   0.25989   0.29392   0.00000  Uiso   1.00
C82    C     0.49865   0.24583   0.16703   0.00000  Uiso   1.00
C83    C     0.58425   0.28598   0.26775   0.00000  Uiso   1.00
C84    C     0.38842   0.10848   0.28407   0.00000  Uiso   1.00
C85    C     0.35660   0.08587   0.24354   0.00000  Uiso   1.00
C86    C     0.58487   0.23991   0.07577   0.00000  Uiso   1.00
C87    C     0.63390   0.26151   0.06578   0.00000  Uiso   1.00
C88    C     0.40166   0.16695   0.15509   0.00000  Uiso   1.00
C89    C     0.59834   0.16742   0.17813   0.00000  Uiso   1.00
C90    C     0.34723   0.16208   0.14901   0.00000  Uiso   1.00
C91    C     0.65254   0.17412   0.18332   0.00000  Uiso   1.00
C92    C     0.54405   0.02090   0.15754   0.00000  Uiso   1.00
C93    C     0.45430   0.31281   0.17418   0.00000  Uiso   1.00
C94    C     0.54293   0.31143   0.15890   0.00000  Uiso   1.00
Cu95   Cu    0.50000   0.16667   0.21355   0.00000  Uiso   1.00
Cu96   Cu    0.50000   0.16666   0.11978   0.00000  Uiso   1.00
H97    H     0.57728   0.29463   0.15431   0.00000  Uiso   1.00
H98    H     0.58916   0.27057   0.23379   0.00000  Uiso   1.00
H99    H     0.56778   0.31718   0.26192   0.00000  Uiso   1.00
H100   H     0.62253   0.28970   0.28802   0.00000  Uiso   1.00
H101   H     0.37225   0.13947   0.29004   0.00000  Uiso   1.00
H102   H     0.38428   0.08979   0.31481   0.00000  Uiso   1.00
H103   H     0.64867   0.08905   0.24721   0.00000  Uiso   1.00
H104   H     0.36449   0.09862   0.20996   0.00000  Uiso   1.00
H105   H     0.36614   0.05243   0.24326   0.00000  Uiso   1.00
H106   H     0.58915   0.23638   0.11389   0.00000  Uiso   1.00
H107   H     0.55100   0.25966   0.06701   0.00000  Uiso   1.00
H108   H     0.42187   0.03979   0.17923   0.00000  Uiso   1.00
H109   H     0.63467   0.29413   0.07926   0.00000  Uiso   1.00
H110   H     0.33416   0.24526   0.08324   0.00000  Uiso   1.00
H111   H     0.63704   0.26100   0.02792   0.00000  Uiso   1.00
H112   H     0.51189   0.06891   0.05469   0.00000  Uiso   1.00
H113   H     0.47959   0.06245   0.33017   0.00000  Uiso   1.00
H114   H     0.42850   0.03962   0.08259   0.00000  Uiso   1.00
H115   H     0.40839   0.02637   0.02224   0.00000  Uiso   1.00
H116   H     0.46569   0.00402   0.05111   0.00000  Uiso   1.00
H117   H     0.55097   0.27360   0.32935   0.00000  Uiso   1.00
H118   H     0.50906   0.26299   0.27813   0.00000  Uiso   1.00
N119   N     0.50001   0.16668   0.28403   0.00000  Uiso   1.00
N120   N     0.49999   0.16666   0.04931   0.00000  Uiso   1.00
O121   O     0.50000   0.10655   0.20625   0.00000  Uiso   1.00
O122   O     0.56575   0.21821   0.29361   0.00000  Uiso   1.00
O123   O     0.43980   0.11116   0.27448   0.00000  Uiso   1.00
O124   O     0.58154   0.20004   0.05409   0.00000  Uiso   1.00
O125   O     0.50000   0.22678   0.12709   0.00000  Uiso   1.00
O126   O     0.50000   0.10654   0.12706   0.00000  Uiso   1.00
O127   O     0.50000   0.22679   0.20628   0.00000  Uiso   1.00
O128   O     0.42495   0.16667   0.19712   0.00000  Uiso   1.00
O129   O     0.57505   0.16666   0.13621   0.00000  Uiso   1.00
O130   O     0.42494   0.16666   0.11793   0.00000  Uiso   1.00
O131   O     0.57506   0.16667   0.21540   0.00000  Uiso   1.00
O132   O     0.44783   0.10620   0.04135   0.00000  Uiso   1.00
Br133  Br    0.98824   0.13108   0.09226   0.00000  Uiso   1.00
Br134  Br    0.67844   0.20684   0.23855   0.00000  Uiso   1.00
Br135  Br    0.93989   0.04729   0.14688   0.00000  Uiso   1.00
Br136  Br    0.72358   0.28642   0.17928   0.00000  Uiso   1.00
C137   C     0.83394   0.08760   0.16619   0.00000  Uiso   1.00
C138   C     0.78917   0.02245   0.17412   0.00000  Uiso   1.00
C139   C     0.83184   0.29059   0.16759   0.00000  Uiso   1.00
C140   C     0.83367   0.04306   0.16541   0.00000  Uiso   1.00
C141   C     0.80459   0.13820   0.02080   0.00000  Uiso   1.00
C142   C     0.86447   0.19343   0.31285   0.00000  Uiso   1.00
C143   C     0.80189   0.13988   0.30388   0.00000  Uiso   1.00
C144   C     0.86754   0.19109   0.02926   0.00000  Uiso   1.00
C145   C     0.80697   0.06855   0.03390   0.00000  Uiso   1.00
C146   C     0.77550   0.03240   0.04844   0.00000  Uiso   1.00
C147   C     0.88262   0.25989   0.29392   0.00000  Uiso   1.00
C148   C     0.83198   0.24583   0.16703   0.00000  Uiso   1.00
C149   C     0.91759   0.28598   0.26775   0.00000  Uiso   1.00
C150   C     0.72175   0.10848   0.28407   0.00000  Uiso   1.00
C151   C     0.68994   0.08587   0.24354   0.00000  Uiso   1.00
C152   C     0.91820   0.23991   0.07577   0.00000  Uiso   1.00
C153   C     0.96724   0.26151   0.06578   0.00000  Uiso   1.00
C154   C     0.73499   0.16695   0.15509   0.00000  Uiso   1.00
C155   C     0.93168   0.16742   0.17813   0.00000  Uiso   1.00
C156   C     0.68056   0.16208   0.14901   0.00000  Uiso   1.00
C157   C     0.98588   0.17412   0.18332   0.00000  Uiso   1.00
C158   C     0.87738   0.02090   0.15754   0.00000  Uiso   1.00
C159   C     0.78764   0.31281   0.17418   0.00000  Uiso   1.00
C160   C     0.87626   0.31143   0.15890   0.00000  Uiso   1.00
Cu161  Cu    0.83333   0.16667   0.21355   0.00000  Uiso   1.00
Cu162  Cu    0.83333   0.16666   0.11978   0.00000  Uiso   1.00
H163   H     0.91062   0.29463   0.15431   0.00000  Uiso   1.00
H164   H     0.92249   0.27057   0.23379   0.00000  Uiso   1.00
H165   H     0.90112   0.31718   0.26192   0.00000  Uiso   1.00
H166   H     0.95587   0.28970   0.28802   0.00000  Uiso   1.00
H167   H     0.70559   0.13947   0.29004   0.00000  Uiso   1.00
H168   H     0.71761   0.08979   0.31481   0.00000  Uiso   1.00
H169   H     0.98201   0.08905   0.24721   0.00000  Uiso   1.00
H170   H     0.69782   0.09862   0.20996   0.00000  Uiso   1.00
H171   H     0.69947   0.05243   0.24326   0.00000  Uiso   1.00
H172   H     0.92249   0.23638   0.11389   0.00000  Uiso   1.00
H173   H     0.88433   0.25966   0.06701   0.00000  Uiso   1.00
H174   H     0.75520   0.03979   0.17923   0.00000  Uiso   1.00
H175   H     0.96800   0.29413   0.07926   0.00000  Uiso   1.00
H176   H     0.66749   0.24526   0.08324   0.00000  Uiso   1.00
H177   H     0.97038   0.26100   0.02792   0.00000  Uiso   1.00
H178   H     0.84522   0.06891   0.05469   0.00000  Uiso   1.00
H179   H     0.81292   0.06245   0.33017   0.00000  Uiso   1.00
H180   H     0.76184   0.03962   0.08259   0.00000  Uiso   1.00
H181   H     0.74172   0.02637   0.02224   0.00000  Uiso   1.00
H182   H     0.79902   0.00402   0.05111   0.00000  Uiso   1.00
H183   H     0.88431   0.27360   0.32935   0.00000  Uiso   1.00
H184   H     0.84240   0.26299   0.27813   0.00000  Uiso   1.00
N185   N     0.83335   0.16668   0.28403   0.00000  Uiso   1.00
N186   N     0.83332   0.16666   0.04931   0.00000  Uiso   1.00
O187   O     0.83333   0.10655   0.20625   0.00000  Uiso   1.00
O188   O     0.89908   0.21821   0.29361   0.00000  Uiso   1.00
O189   O     0.77313   0.11116   0.27448   0.00000  Uiso   1.00
O190   O     0.91487   0.20004   0.05409   0.00000  Uiso   1.00
O191   O     0.83334   0.22678   0.12709   0.00000  Uiso   1.00
O192   O     0.83333   0.10654   0.12706   0.00000  Uiso   1.00
O193   O     0.83334   0.22679   0.20628   0.00000  Uiso   1.00
O194   O     0.75828   0.16667   0.19712   0.00000  Uiso   1.00
O195   O     0.90839   0.16666   0.13621   0.00000  Uiso   1.00
O196   O     0.75828   0.16666   0.11793   0.00000  Uiso   1.00
O197   O     0.90839   0.16667   0.21540   0.00000  Uiso   1.00
O198   O     0.78116   0.10620   0.04135   0.00000  Uiso   1.00
Br199  Br    0.32157   0.46441   0.09226   0.00000  Uiso   1.00
Br200  Br    0.01177   0.54018   0.23855   0.00000  Uiso   1.00
Br201  Br    0.27323   0.38062   0.14688   0.00000  Uiso   1.00
Br202  Br    0.05691   0.61976   0.17928   0.00000  Uiso   1.00
C203   C     0.16727   0.42093   0.16619   0.00000  Uiso   1.00
C204   C     0.12250   0.35578   0.17412   0.00000  Uiso   1.00
C205   C     0.16517   0.62392   0.16759   0.00000  Uiso   1.00
C206   C     0.16701   0.37639   0.16541   0.00000  Uiso   1.00
C207   C     0.13793   0.47153   0.02080   0.00000  Uiso   1.00
C208   C     0.19780   0.52676   0.31285   0.00000  Uiso   1.00
C209   C     0.13522   0.47322   0.30388   0.00000  Uiso   1.00
C210   C     0.20087   0.52442   0.02926   0.00000  Uiso   1.00
C211   C     0.14030   0.40189   0.03390   0.00000  Uiso   1.00
C212   C     0.10883   0.36573   0.04844   0.00000  Uiso   1.00
C213   C     0.21596   0.59323   0.29392   0.00000  Uiso   1.00
C214   C     0.16531   0.57916   0.16703   0.00000  Uiso   1.00
C215   C     0.25092   0.61932   0.26775   0.00000  Uiso   1.00
C216   C     0.05508   0.44182   0.28407   0.00000  Uiso   1.00
C217   C     0.02327   0.41921   0.24354   0.00000  Uiso   1.00
C218   C     0.25153   0.57324   0.07577   0.00000  Uiso   1.00
C219   C     0.30057   0.59484   0.06578   0.00000  Uiso   1.00
C220   C     0.06832   0.50028   0.15509   0.00000  Uiso   1.00
C221   C     0.26501   0.50076   0.17813   0.00000  Uiso   1.00
C222   C     0.01389   0.49542   0.14901   0.00000  Uiso   1.00
C223   C     0.31921   0.50746   0.18332   0.00000  Uiso   1.00
C224   C     0.21071   0.35423   0.15754   0.00000  Uiso   1.00
C225   C     0.12097   0.64614   0.17418   0.00000  Uiso   1.00
C226   C     0.20960   0.64476   0.15890   0.00000  Uiso   1.00
Cu227  Cu    0.16667   0.50001   0.21355   0.00000  Uiso   1.00
Cu228  Cu    0.16667   0.49999   0.11978   0.00000  Uiso   1.00
H229   H     0.24395   0.62797   0.15431   0.00000  Uiso   1.00
H230   H     0.25583   0.60390   0.23379   0.00000  Uiso   1.00
H231   H     0.23445   0.65052   0.26192   0.00000  Uiso   1.00
H232   H     0.28920   0.62303   0.28802   0.00000  Uiso   1.00
H233   H     0.03892   0.47280   0.29004   0.00000  Uiso   1.00
H234   H     0.05094   0.42312   0.31481   0.00000  Uiso   1.00
H235   H     0.31534   0.42238   0.24721   0.00000  Uiso   1.00
H236   H     0.03116   0.43196   0.20996   0.00000  Uiso   1.00
H237   H     0.03281   0.38576   0.24326   0.00000  Uiso   1.00
H238   H     0.25582   0.56972   0.11389   0.00000  Uiso   1.00
H239   H     0.21766   0.59299   0.06701   0.00000  Uiso   1.00
H240   H     0.08853   0.37312   0.17923   0.00000  Uiso   1.00
H241   H     0.30134   0.62747   0.07926   0.00000  Uiso   1.00
H242   H     0.00083   0.57859   0.08324   0.00000  Uiso   1.00
H243   H     0.30371   0.59433   0.02792   0.00000  Uiso   1.00
H244   H     0.17855   0.40224   0.05469   0.00000  Uiso   1.00
H245   H     0.14625   0.39578   0.33017   0.00000  Uiso   1.00
H246   H     0.09517   0.37296   0.08259   0.00000  Uiso   1.00
H247   H     0.07505   0.35970   0.02224   0.00000  Uiso   1.00
H248   H     0.13236   0.33736   0.05111   0.00000  Uiso   1.00
H249   H     0.21764   0.60693   0.32935   0.00000  Uiso   1.00
H250   H     0.17573   0.59632   0.27813   0.00000  Uiso   1.00
N251   N     0.16668   0.50001   0.28403   0.00000  Uiso   1.00
N252   N     0.16665   0.49999   0.04931   0.00000  Uiso   1.00
O253   O     0.16666   0.43989   0.20625   0.00000  Uiso   1.00
O254   O     0.23241   0.55154   0.29361   0.00000  Uiso   1.00
O255   O     0.10647   0.44450   0.27448   0.00000  Uiso   1.00
O256   O     0.24820   0.53338   0.05409   0.00000  Uiso   1.00
O257   O     0.16667   0.56011   0.12709   0.00000  Uiso   1.00
O258   O     0.16666   0.43988   0.12706   0.00000  Uiso   1.00
O259   O     0.16667   0.56012   0.20628   0.00000  Uiso   1.00
O260   O     0.09161   0.50000   0.19712   0.00000  Uiso   1.00
O261   O     0.24172   0.50000   0.13621   0.00000  Uiso   1.00
O262   O     0.09161   0.49999   0.11793   0.00000  Uiso   1.00
O263   O     0.24172   0.50001   0.21540   0.00000  Uiso   1.00
O264   O     0.11450   0.43953   0.04135   0.00000  Uiso   1.00
Br265  Br    0.65490   0.46441   0.09226   0.00000  Uiso   1.00
Br266  Br    0.34510   0.54018   0.23855   0.00000  Uiso   1.00
Br267  Br    0.60656   0.38062   0.14688   0.00000  Uiso   1.00
Br268  Br    0.39024   0.61976   0.17928   0.00000  Uiso   1.00
C269   C     0.50061   0.42093   0.16619   0.00000  Uiso   1.00
C270   C     0.45584   0.35578   0.17412   0.00000  Uiso   1.00
C271   C     0.49850   0.62392   0.16759   0.00000  Uiso   1.00
C272   C     0.50034   0.37639   0.16541   0.00000  Uiso   1.00
C273   C     0.47126   0.47153   0.02080   0.00000  Uiso   1.00
C274   C     0.53114   0.52676   0.31285   0.00000  Uiso   1.00
C275   C     0.46855   0.47322   0.30388   0.00000  Uiso   1.00
C276   C     0.53421   0.52442   0.02926   0.00000  Uiso   1.00
C277   C     0.47363   0.40189   0.03390   0.00000  Uiso   1.00
C278   C     0.44217   0.36573   0.04844   0.00000  Uiso   1.00
C279   C     0.54929   0.59323   0.29392   0.00000  Uiso   1.00
C280   C     0.49865   0.57916   0.16703   0.00000  Uiso   1.00
C281   C     0.58425   0.61932   0.26775   0.00000  Uiso   1.00
C282   C     0.38842   0.44182   0.28407   0.00000  Uiso   1.00
C283   C     0.35660   0.41921   0.24354   0.00000  Uiso   1.00
C284   C     0.58487   0.57324   0.07577   0.00000  Uiso   1.00
C285   C     0.63390   0.59484   0.06578   0.00000  Uiso   1.00
C286   C     0.40166   0.50028   0.15509   0.00000  Uiso   1.00
C287   C     0.59834   0.50076   0.17813   0.00000  Uiso   1.00
C288   C     0.34723   0.49542   0.14901   0.00000  Uiso   1.00
C289   C     0.65254   0.50746   0.18332   0.00000  Uiso   1.00
C290   C     0.54405   0.35423   0.15754   0.00000  Uiso   1.00
C291   C     0.45430   0.64614   0.17418   0.00000  Uiso   1.00
C292   C     0.54293   0.64476   0.15890   0.00000  Uiso   1.00
Cu293  Cu    0.50000   0.50001   0.21355   0.00000  Uiso   1.00
Cu294  Cu    0.50000   0.49999   0.11978   0.00000  Uiso   1.00
H295   H     0.57728   0.62797   0.15431   0.00000  Uiso   1.00
H296   H     0.58916   0.60390   0.23379   0.00000  Uiso   1.00
H297   H     0.56778   0.65052   0.26192   0.00000  Uiso   1.00
H298   H     0.62253   0.62303   0.28802   0.00000  Uiso   1.00
H299   H     0.37225   0.47280   0.29004   0.00000  Uiso   1.00
H300   H     0.38428   0.42312   0.31481   0.00000  Uiso   1.00
H301   H     0.64867   0.42238   0.24721   0.00000  Uiso   1.00
H302   H     0.36449   0.43196   0.20996   0.00000  Uiso   1.00
H303   H     0.36614   0.38576   0.24326   0.00000  Uiso   1.00
H304   H     0.58915   0.56972   0.11389   0.00000  Uiso   1.00
H305   H     0.55100   0.59299   0.06701   0.00000  Uiso   1.00
H306   H     0.42187   0.37312   0.17923   0.00000  Uiso   1.00
H307   H     0.63467   0.62747   0.07926   0.00000  Uiso   1.00
H308   H     0.33416   0.57859   0.08324   0.00000  Uiso   1.00
H309   H     0.63704   0.59433   0.02792   0.00000  Uiso   1.00
H310   H     0.51189   0.40224   0.05469   0.00000  Uiso   1.00
H311   H     0.47959   0.39578   0.33017   0.00000  Uiso   1.00
H312   H     0.42850   0.37296   0.08259   0.00000  Uiso   1.00
H313   H     0.40839   0.35970   0.02224   0.00000  Uiso   1.00
H314   H     0.46569   0.33736   0.05111   0.00000  Uiso   1.00
H315   H     0.55097   0.60693   0.32935   0.00000  Uiso   1.00
H316   H     0.50906   0.59632   0.27813   0.00000  Uiso   1.00
N317   N     0.50001   0.50001   0.28403   0.00000  Uiso   1.00
N318   N     0.49999   0.49999   0.04931   0.00000  Uiso   1.00
O319   O     0.50000   0.43989   0.20625   0.00000  Uiso   1.00
O320   O     0.56575   0.55154   0.29361   0.00000  Uiso   1.00
O321   O     0.43980   0.44450   0.27448   0.00000  Uiso   1.00
O322   O     0.58154   0.53338   0.05409   0.00000  Uiso   1.00
O323   O     0.50000   0.56011   0.12709   0.00000  Uiso   1.00
O324   O     0.50000   0.43988   0.12706   0.00000  Uiso   1.00
O325   O     0.50000   0.56012   0.20628   0.00000  Uiso   1.00
O326   O     0.42495   0.50000   0.19712   0.00000  Uiso   1.00
O327   O     0.57505   0.50000   0.13621   0.00000  Uiso   1.00
O328   O     0.42494   0.49999   0.11793   0.00000  Uiso   1.00
O329   O     0.57506   0.50001   0.21540   0.00000  Uiso   1.00
O330   O     0.44783   0.43953   0.04135   0.00000  Uiso   1.00
Br331  Br    0.98824   0.46441   0.09226   0.00000  Uiso   1.00
Br332  Br    0.67844   0.54018   0.23855   0.00000  Uiso   1.00
Br333  Br    0.93989   0.38062   0.14688   0.00000  Uiso   1.00
Br334  Br    0.72358   0.61976   0.17928   0.00000  Uiso   1.00
C335   C     0.83394   0.42093   0.16619   0.00000  Uiso   1.00
C336   C     0.78917   0.35578   0.17412   0.00000  Uiso   1.00
C337   C     0.83184   0.62392   0.16759   0.00000  Uiso   1.00
C338   C     0.83367   0.37639   0.16541   0.00000  Uiso   1.00
C339   C     0.80459   0.47153   0.02080   0.00000  Uiso   1.00
C340   C     0.86447   0.52676   0.31285   0.00000  Uiso   1.00
C341   C     0.80189   0.47322   0.30388   0.00000  Uiso   1.00
C342   C     0.86754   0.52442   0.02926   0.00000  Uiso   1.00
C343   C     0.80697   0.40189   0.03390   0.00000  Uiso   1.00
C344   C     0.77550   0.36573   0.04844   0.00000  Uiso   1.00
C345   C     0.88262   0.59323   0.29392   0.00000  Uiso   1.00
C346   C     0.83198   0.57916   0.16703   0.00000  Uiso   1.00
C347   C     0.91759   0.61932   0.26775   0.00000  Uiso   1.00
C348   C     0.72175   0.44182   0.28407   0.00000  Uiso   1.00
C349   C     0.68994   0.41921   0.24354   0.00000  Uiso   1.00
C350   C     0.91820   0.57324   0.07577   0.00000  Uiso   1.00
C351   C     0.96724   0.59484   0.06578   0.00000  Uiso   1.00
C352   C     0.73499   0.50028   0.15509   0.00000  Uiso   1.00
C353   C     0.93168   0.50076   0.17813   0.00000  Uiso   1.00
C354   C     0.68056   0.49542   0.14901   0.00000  Uiso   1.00
C355   C     0.98588   0.50746   0.18332   0.00000  Uiso   1.00
C356   C     0.87738   0.35423   0.15754   0.00000  Uiso   1.00
C357   C     0.78764   0.64614   0.17418   0.00000  Uiso   1.00
C358   C     0.87626   0.64476   0.15890   0.00000  Uiso   1.00
Cu359  Cu    0.83333   0.50001   0.21355   0.00000  Uiso   1.00
Cu360  Cu    0.83333   0.49999   0.11978   0.00000  Uiso   1.00
H361   H     0.91062   0.62797   0.15431   0.00000  Uiso   1.00
H362   H     0.92249   0.60390   0.23379   0.00000  Uiso   1.00
H363   H     0.90112   0.65052   0.26192   0.00000  Uiso   1.00
H364   H     0.95587   0.62303   0.28802   0.00000  Uiso   1.00
H365   H     0.70559   0.47280   0.29004   0.00000  Uiso   1.00
H366   H     0.71761   0.42312   0.31481   0.00000  Uiso   1.00
H367   H     0.98201   0.42238   0.24721   0.00000  Uiso   1.00
H368   H     0.69782   0.43196   0.20996   0.00000  Uiso   1.00
H369   H     0.69947   0.38576   0.24326   0.00000  Uiso   1.00
H370   H     0.92249   0.56972   0.11389   0.00000  Uiso   1.00
H371   H     0.88433   0.59299   0.06701   0.00000  Uiso   1.00
H372   H     0.75520   0.37312   0.17923   0.00000  Uiso   1.00
H373   H     0.96800   0.62747   0.07926   0.00000  Uiso   1.00
H374   H     0.66749   0.57859   0.08324   0.00000  Uiso   1.00
H375   H     0.97038   0.59433   0.02792   0.00000  Uiso   1.00
H376   H     0.84522   0.40224   0.05469   0.00000  Uiso   1.00
H377   H     0.81292   0.39578   0.33017   0.00000  Uiso   1.00
H378   H     0.76184   0.37296   0.08259   0.00000  Uiso   1.00
H379   H     0.74172   0.35970   0.02224   0.00000  Uiso   1.00
H380   H     0.79902   0.33736   0.05111   0.00000  Uiso   1.00
H381   H     0.88431   0.60693   0.32935   0.00000  Uiso   1.00
H382   H     0.84240   0.59632   0.27813   0.00000  Uiso   1.00
N383   N     0.83335   0.50001   0.28403   0.00000  Uiso   1.00
N384   N     0.83332   0.49999   0.04931   0.00000  Uiso   1.00
O385   O     0.83333   0.43989   0.20625   0.00000  Uiso   1.00
O386   O     0.89908   0.55154   0.29361   0.00000  Uiso   1.00
O387   O     0.77313   0.44450   0.27448   0.00000  Uiso   1.00
O388   O     0.91487   0.53338   0.05409   0.00000  Uiso   1.00
O389   O     0.83334   0.56011   0.12709   0.00000  Uiso   1.00
O390   O     0.83333   0.43988   0.12706   0.00000  Uiso   1.00
O391   O     0.83334   0.56012   0.20628   0.00000  Uiso   1.00
O392   O     0.75828   0.50000   0.19712   0.00000  Uiso   1.00
O393   O     0.90839   0.50000   0.13621   0.00000  Uiso   1.00
O394   O     0.75828   0.49999   0.11793   0.00000  Uiso   1.00
O395   O     0.90839   0.50001   0.21540   0.00000  Uiso   1.00
O396   O     0.78116   0.43953   0.04135   0.00000  Uiso   1.00
Br397  Br    0.32157   0.79775   0.09226   0.00000  Uiso   1.00
Br398  Br    0.01177   0.87351   0.23855   0.00000  Uiso   1.00
Br399  Br    0.27323   0.71396   0.14688   0.00000  Uiso   1.00
Br400  Br    0.05691   0.95309   0.17928   0.00000  Uiso   1.00
C401   C     0.16727   0.75427   0.16619   0.00000  Uiso   1.00
C402   C     0.12250   0.68911   0.17412   0.00000  Uiso   1.00
C403   C     0.16517   0.95725   0.16759   0.00000  Uiso   1.00
C404   C     0.16701   0.70973   0.16541   0.00000  Uiso   1.00
C405   C     0.13793   0.80487   0.02080   0.00000  Uiso   1.00
C406   C     0.19780   0.86010   0.31285   0.00000  Uiso   1.00
C407   C     0.13522   0.80655   0.30388   0.00000  Uiso   1.00
C408   C     0.20087   0.85776   0.02926   0.00000  Uiso   1.00
C409   C     0.14030   0.73522   0.03390   0.00000  Uiso   1.00
C410   C     0.10883   0.69906   0.04844   0.00000  Uiso   1.00
C411   C     0.21596   0.92656   0.29392   0.00000  Uiso   1.00
C412   C     0.16531   0.91249   0.16703   0.00000  Uiso   1.00
C413   C     0.25092   0.95265   0.26775   0.00000  Uiso   1.00
C414   C     0.05508   0.77515   0.28407   0.00000  Uiso   1.00
C415   C     0.02327   0.75254   0.24354   0.00000  Uiso   1.00
C416   C     0.25153   0.90658   0.07577   0.00000  Uiso   1.00
C417   C     0.30057   0.92817   0.06578   0.00000  Uiso   1.00
C418   C     0.06832   0.83361   0.15509   0.00000  Uiso   1.00
C419   C     0.26501   0.83409   0.17813   0.00000  Uiso   1.00
C420   C     0.01389   0.82875   0.14901   0.00000  Uiso   1.00
C421   C     0.31921   0.84079   0.18332   0.00000  Uiso   1.00
C422   C     0.21071   0.68757   0.15754   0.00000  Uiso   1.00
C423   C     0.12097   0.97948   0.17418   0.00000  Uiso   1.00
C424   C     0.20960   0.97809   0.15890   0.00000  Uiso   1.00
Cu425  Cu    0.16667   0.83334   0.21355   0.00000  Uiso   1.00
Cu426  Cu    0.16667   0.83333   0.11978   0.00000  Uiso   1.00
H427   H     0.24395   0.96130   0.15431   0.00000  Uiso   1.00
H428   H     0.25583   0.93724   0.23379   0.00000  Uiso   1.00
H429   H     0.23445   0.98385   0.26192   0.00000  Uiso   1.00
H430   H     0.28920   0.95637   0.28802   0.00000  Uiso   1.00
H431   H     0.03892   0.80614   0.29004   0.00000  Uiso   1.00
H432   H     0.05094   0.75646   0.31481   0.00000  Uiso   1.00
H433   H     0.31534   0.75571   0.24721   0.00000  Uiso   1.00
H434   H     0.03116   0.76529   0.20996   0.00000  Uiso   1.00
H435   H     0.03281   0.71909   0.24326   0.00000  Uiso   1.00
H436   H     0.25582   0.90305   0.11389   0.00000  Uiso   1.00
H437   H     0.21766   0.92633   0.06701   0.00000  Uiso   1.00
H438   H     0.08853   0.70646   0.17923   0.00000  Uiso   1.00
H439   H     0.30134   0.96080   0.07926   0.00000  Uiso   1.00
H440   H     0.00083   0.91192   0.08324   0.00000  Uiso   1.00
H441   H     0.30371   0.92766   0.02792   0.00000  Uiso   1.00
H442   H     0.17855   0.73557   0.05469   0.00000  Uiso   1.00
H443   H     0.14625   0.72912   0.33017   0.00000  Uiso   1.00
H444   H     0.09517   0.70629   0.08259   0.00000  Uiso   1.00
H445   H     0.07505   0.69303   0.02224   0.00000  Uiso   1.00
H446   H     0.13236   0.67069   0.05111   0.00000  Uiso   1.00
H447   H     0.21764   0.94027   0.32935   0.00000  Uiso   1.00
H448   H     0.17573   0.92966   0.27813   0.00000  Uiso   1.00
N449   N     0.16668   0.83334   0.28403   0.00000  Uiso   1.00
N450   N     0.16665   0.83332   0.04931   0.00000  Uiso   1.00
O451   O     0.16666   0.77322   0.20625   0.00000  Uiso   1.00
O452   O     0.23241   0.88488   0.29361   0.00000  Uiso   1.00
O453   O     0.10647   0.77783   0.27448   0.00000  Uiso   1.00
O454   O     0.24820   0.86671   0.05409   0.00000  Uiso   1.00
O455   O     0.16667   0.89345   0.12709   0.00000  Uiso   1.00
O456   O     0.16666   0.77321   0.12706   0.00000  Uiso   1.00
O457   O     0.16667   0.89346   0.20628   0.00000  Uiso   1.00
O458   O     0.09161   0.83334   0.19712   0.00000  Uiso   1.00
O459   O     0.24172   0.83333   0.13621   0.00000  Uiso   1.00
O460   O     0.09161   0.83333   0.11793   0.00000  Uiso   1.00
O461   O     0.24172   0.83334   0.21540   0.00000  Uiso   1.00
O462   O     0.11450   0.77286   0.04135   0.00000  Uiso   1.00
Br463  Br    0.65490   0.79775   0.09226   0.00000  Uiso   1.00
Br464  Br    0.34510   0.87351   0.23855   0.00000  Uiso   1.00
Br465  Br    0.60656   0.71396   0.14688   0.00000  Uiso   1.00
Br466  Br    0.39024   0.95309   0.17928   0.00000  Uiso   1.00
C467   C     0.50061   0.75427   0.16619   0.00000  Uiso   1.00
C468   C     0.45584   0.68911   0.17412   0.00000  Uiso   1.00
C469   C     0.49850   0.95725   0.16759   0.00000  Uiso   1.00
C470   C     0.50034   0.70973   0.16541   0.00000  Uiso   1.00
C471   C     0.47126   0.80487   0.02080   0.00000  Uiso   1.00
C472   C     0.53114   0.86010   0.31285   0.00000  Uiso   1.00
C473   C     0.46855   0.80655   0.30388   0.00000  Uiso   1.00
C474   C     0.53421   0.85776   0.02926   0.00000  Uiso   1.00
C475   C     0.47363   0.73522   0.03390   0.00000  Uiso   1.00
C476   C     0.44217   0.69906   0.04844   0.00000  Uiso   1.00
C477   C     0.54929   0.92656   0.29392   0.00000  Uiso   1.00
C478   C     0.49865   0.91249   0.16703   0.00000  Uiso   1.00
C479   C     0.58425   0.95265   0.26775   0.00000  Uiso   1.00
C480   C     0.38842   0.77515   0.28407   0.00000  Uiso   1.00
C481   C     0.35660   0.75254   0.24354   0.00000  Uiso   1.00
C482   C     0.58487   0.90658   0.07577   0.00000  Uiso   1.00
C483   C     0.63390   0.92817   0.06578   0.00000  Uiso   1.00
C484   C     0.40166   0.83361   0.15509   0.00000  Uiso   1.00
C485   C     0.59834   0.83409   0.17813   0.00000  Uiso   1.00
C486   C     0.34723   0.82875   0.14901   0.00000  Uiso   1.00
C487   C     0.65254   0.84079   0.18332   0.00000  Uiso   1.00
C488   C     0.54405   0.68757   0.15754   0.00000  Uiso   1.00
C489   C     0.45430   0.97948   0.17418   0.00000  Uiso   1.00
C490   C     0.54293   0.97809   0.15890   0.00000  Uiso   1.00
Cu491  Cu    0.50000   0.83334   0.21355   0.00000  Uiso   1.00
Cu492  Cu    0.50000   0.83333   0.11978   0.00000  Uiso   1.00
H493   H     0.57728   0.96130   0.15431   0.00000  Uiso   1.00
H494   H     0.58916   0.93724   0.23379   0.00000  Uiso   1.00
H495   H     0.56778   0.98385   0.26192   0.00000  Uiso   1.00
H496   H     0.62253   0.95637   0.28802   0.00000  Uiso   1.00
H497   H     0.37225   0.80614   0.29004   0.00000  Uiso   1.00
H498   H     0.38428   0.75646   0.31481   0.00000  Uiso   1.00
H499   H     0.64867   0.75571   0.24721   0.00000  Uiso   1.00
H500   H     0.36449   0.76529   0.20996   0.00000  Uiso   1.00
H501   H     0.36614   0.71909   0.24326   0.00000  Uiso   1.00
H502   H     0.58915   0.90305   0.11389   0.00000  Uiso   1.00
H503   H     0.55100   0.92633   0.06701   0.00000  Uiso   1.00
H504   H     0.42187   0.70646   0.17923   0.00000  Uiso   1.00
H505   H     0.63467   0.96080   0.07926   0.00000  Uiso   1.00
H506   H     0.33416   0.91192   0.08324   0.00000  Uiso   1.00
H507   H     0.63704   0.92766   0.02792   0.00000  Uiso   1.00
H508   H     0.51189   0.73557   0.05469   0.00000  Uiso   1.00
H509   H     0.47959   0.72912   0.33017   0.00000  Uiso   1.00
H510   H     0.42850   0.70629   0.08259   0.00000  Uiso   1.00
H511   H     0.40839   0.69303   0.02224   0.00000  Uiso   1.00
H512   H     0.46569   0.67069   0.05111   0.00000  Uiso   1.00
H513   H     0.55097   0.94027   0.32935   0.00000  Uiso   1.00
H514   H     0.50906   0.92966   0.27813   0.00000  Uiso   1.00
N515   N     0.50001   0.83334   0.28403   0.00000  Uiso   1.00
N516   N     0.49999   0.83332   0.04931   0.00000  Uiso   1.00
O517   O     0.50000   0.77322   0.20625   0.00000  Uiso   1.00
O518   O     0.56575   0.88488   0.29361   0.00000  Uiso   1.00
O519   O     0.43980   0.77783   0.27448   0.00000  Uiso   1.00
O520   O     0.58154   0.86671   0.05409   0.00000  Uiso   1.00
O521   O     0.50000   0.89345   0.12709   0.00000  Uiso   1.00
O522   O     0.50000   0.77321   0.12706   0.00000  Uiso   1.00
O523   O     0.50000   0.89346   0.20628   0.00000  Uiso   1.00
O524   O     0.42495   0.83334   0.19712   0.00000  Uiso   1.00
O525   O     0.57505   0.83333   0.13621   0.00000  Uiso   1.00
O526   O     0.42494   0.83333   0.11793   0.00000  Uiso   1.00
O527   O     0.57506   0.83334   0.21540   0.00000  Uiso   1.00
O528   O     0.44783   0.77286   0.04135   0.00000  Uiso   1.00
Br529  Br    0.98824   0.79775   0.09226   0.00000  Uiso   1.00
Br530  Br    0.67844   0.87351   0.23855   0.00000  Uiso   1.00
Br531  Br    0.93989   0.71396   0.14688   0.00000  Uiso   1.00
Br532  Br    0.72358   0.95309   0.17928   0.00000  Uiso   1.00
C533   C     0.83394   0.75427   0.16619   0.00000  Uiso   1.00
C534   C     0.78917   0.68911   0.17412   0.00000  Uiso   1.00
C535   C     0.83184   0.95725   0.16759   0.00000  Uiso   1.00
C536   C     0.83367   0.70973   0.16541   0.00000  Uiso   1.00
C537   C     0.80459   0.80487   0.02080   0.00000  Uiso   1.00
C538   C     0.86447   0.86010   0.31285   0.00000  Uiso   1.00
C539   C     0.80189   0.80655   0.30388   0.00000  Uiso   1.00
C540   C     0.86754   0.85776   0.02926   0.00000  Uiso   1.00
C541   C     0.80697   0.73522   0.03390   0.00000  Uiso   1.00
C542   C     0.77550   0.69906   0.04844   0.00000  Uiso   1.00
C543   C     0.88262   0.92656   0.29392   0.00000  Uiso   1.00
C544   C     0.83198   0.91249   0.16703   0.00000  Uiso   1.00
C545   C     0.91759   0.95265   0.26775   0.00000  Uiso   1.00
C546   C     0.72175   0.77515   0.28407   0.00000  Uiso   1.00
C547   C     0.68994   0.75254   0.24354   0.00000  Uiso   1.00
C548   C     0.91820   0.90658   0.07577   0.00000  Uiso   1.00
C549   C     0.96724   0.92817   0.06578   0.00000  Uiso   1.00
C550   C     0.73499   0.83361   0.15509   0.00000  Uiso   1.00
C551   C     0.93168   0.83409   0.17813   0.00000  Uiso   1.00
C552   C     0.68056   0.82875   0.14901   0.00000  Uiso   1.00
C553   C     0.98588   0.84079   0.18332   0.00000  Uiso   1.00
C554   C     0.87738   0.68757   0.15754   0.00000  Uiso   1.00
C555   C     0.78764   0.97948   0.17418   0.00000  Uiso   1.00
C556   C     0.87626   0.97809   0.15890   0.00000  Uiso   1.00
Cu557  Cu    0.83333   0.83334   0.21355   0.00000  Uiso   1.00
Cu558  Cu    0.83333   0.83333   0.11978   0.00000  Uiso   1.00
H559   H     0.91062   0.96130   0.15431   0.00000  Uiso   1.00
H560   H     0.92249   0.93724   0.23379   0.00000  Uiso   1.00
H561   H     0.90112   0.98385   0.26192   0.00000  Uiso   1.00
H562   H     0.95587   0.95637   0.28802   0.00000  Uiso   1.00
H563   H     0.70559   0.80614   0.29004   0.00000  Uiso   1.00
H564   H     0.71761   0.75646   0.31481   0.00000  Uiso   1.00
H565   H     0.98201   0.75571   0.24721   0.00000  Uiso   1.00
H566   H     0.69782   0.76529   0.20996   0.00000  Uiso   1.00
H567   H     0.69947   0.71909   0.24326   0.00000  Uiso   1.00
H568   H     0.92249   0.90305   0.11389   0.00000  Uiso   1.00
H569   H     0.88433   0.92633   0.06701   0.00000  Uiso   1.00
H570   H     0.75520   0.70646   0.17923   0.00000  Uiso   1.00
H571   H     0.96800   0.96080   0.07926   0.00000  Uiso   1.00
H572   H     0.66749   0.91192   0.08324   0.00000  Uiso   1.00
H573   H     0.97038   0.92766   0.02792   0.00000  Uiso   1.00
H574   H     0.84522   0.73557   0.05469   0.00000  Uiso   1.00
H575   H     0.81292   0.72912   0.33017   0.00000  Uiso   1.00
H576   H     0.76184   0.70629   0.08259   0.00000  Uiso   1.00
H577   H     0.74172   0.69303   0.02224   0.00000  Uiso   1.00
H578   H     0.79902   0.67069   0.05111   0.00000  Uiso   1.00
H579   H     0.88431   0.94027   0.32935   0.00000  Uiso   1.00
H580   H     0.84240   0.92966   0.27813   0.00000  Uiso   1.00
N581   N     0.83335   0.83334   0.28403   0.00000  Uiso   1.00
N582   N     0.83332   0.83332   0.04931   0.00000  Uiso   1.00
O583   O     0.83333   0.77322   0.20625   0.00000  Uiso   1.00
O584   O     0.89908   0.88488   0.29361   0.00000  Uiso   1.00
O585   O     0.77313   0.77783   0.27448   0.00000  Uiso   1.00
O586   O     0.91487   0.86671   0.05409   0.00000  Uiso   1.00
O587   O     0.83334   0.89345   0.12709   0.00000  Uiso   1.00
O588   O     0.83333   0.77321   0.12706   0.00000  Uiso   1.00
O589   O     0.83334   0.89346   0.20628   0.00000  Uiso   1.00
O590   O     0.75828   0.83334   0.19712   0.00000  Uiso   1.00
O591   O     0.90839   0.83333   0.13621   0.00000  Uiso   1.00
O592   O     0.75828   0.83333   0.11793   0.00000  Uiso   1.00
O593   O     0.90839   0.83334   0.21540   0.00000  Uiso   1.00
O594   O     0.78116   0.77286   0.04135   0.00000  Uiso   1.00
Br595  Br    0.32157   0.13108   0.42559   0.00000  Uiso   1.00
Br596  Br    0.01177   0.20684   0.57188   0.00000  Uiso   1.00
Br597  Br    0.27323   0.04729   0.48022   0.00000  Uiso   1.00
Br598  Br    0.05691   0.28642   0.51262   0.00000  Uiso   1.00
C599   C     0.16727   0.08760   0.49952   0.00000  Uiso   1.00
C600   C     0.12250   0.02245   0.50745   0.00000  Uiso   1.00
C601   C     0.16517   0.29059   0.50092   0.00000  Uiso   1.00
C602   C     0.16701   0.04306   0.49874   0.00000  Uiso   1.00
C603   C     0.13793   0.13820   0.35413   0.00000  Uiso   1.00
C604   C     0.19780   0.19343   0.64618   0.00000  Uiso   1.00
C605   C     0.13522   0.13988   0.63722   0.00000  Uiso   1.00
C606   C     0.20087   0.19109   0.36259   0.00000  Uiso   1.00
C607   C     0.14030   0.06855   0.36723   0.00000  Uiso   1.00
C608   C     0.10883   0.03240   0.38177   0.00000  Uiso   1.00
C609   C     0.21596   0.25989   0.62726   0.00000  Uiso   1.00
C610   C     0.16531   0.24583   0.50036   0.00000  Uiso   1.00
C611   C     0.25092   0.28598   0.60109   0.00000  Uiso   1.00
C612   C     0.05508   0.10848   0.61741   0.00000  Uiso   1.00
C613   C     0.02327   0.08587   0.57688   0.00000  Uiso   1.00
C614   C     0.25153   0.23991   0.40911   0.00000  Uiso   1.00
C615   C     0.30057   0.26151   0.39911   0.00000  Uiso   1.00
C616   C     0.06832   0.16695   0.48842   0.00000  Uiso   1.00
C617   C     0.26501   0.16742   0.51147   0.00000  Uiso   1.00
C618   C     0.01389   0.16208   0.48234   0.00000  Uiso   1.00
C619   C     0.31921   0.17412   0.51665   0.00000  Uiso   1.00
C620   C     0.21071   0.02090   0.49087   0.00000  Uiso   1.00
C621   C     0.12097   0.31281   0.50751   0.00000  Uiso   1.00
C622   C     0.20960   0.31143   0.49224   0.00000  Uiso   1.00
Cu623  Cu    0.16667   0.16667   0.54689   0.00000  Uiso   1.00
Cu624  Cu    0.16667   0.16666   0.45311   0.00000  Uiso   1.00
H625   H     0.24395   0.29463   0.48765   0.00000  Uiso   1.00
H626   H     0.25583   0.27057   0.56713   0.00000  Uiso   1.00
H627   H     0.23445   0.31718   0.59525   0.00000  Uiso   1.00
H628   H     0.28920   0.28970   0.62136   0.00000  Uiso   1.00
H629   H     0.03892   0.13947   0.62337   0.00000  Uiso   1.00
H630   H     0.05094   0.08979   0.64815   0.00000  Uiso   1.00
H631   H     0.31534   0.08905   0.58054   0.00000  Uiso   1.00
H632   H     0.03116   0.09862   0.54329   0.00000  Uiso   1.00
H633   H     0.03281   0.05243   0.57660   0.00000  Uiso   1.00
H634   H     0.25582   0.23638   0.44723   0.00000  Uiso   1.00
H635   H     0.21766   0.25966   0.40035   0.00000  Uiso   1.00
H636   H     0.08853   0.03979   0.51257   0.00000  Uiso   1.00
H637   H     0.30134   0.29413   0.41259   0.00000  Uiso   1.00
H638   H     0.00083   0.24526   0.41657   0.00000  Uiso   1.00
H639   H     0.30371   0.26100   0.36125   0.00000  Uiso   1.00
H640   H     0.17855   0.06891   0.38803   0.00000  Uiso   1.00
H641   H     0.14625   0.06245   0.66350   0.00000  Uiso   1.00
H642   H     0.09517   0.03962   0.41592   0.00000  Uiso   1.00
H643   H     0.07505   0.02637   0.35557   0.00000  Uiso   1.00
H644   H     0.13236   0.00402   0.38445   0.00000  Uiso   1.00
H645   H     0.21764   0.27360   0.66268   0.00000  Uiso   1.00
H646   H     0.17573   0.26299   0.61147   0.00000  Uiso   1.00
N647   N     0.16668   0.16668   0.61736   0.00000  Uiso   1.00
N648   N     0.16665   0.16666   0.38264   0.00000  Uiso   1.00
O649   O     0.16666   0.10655   0.53958   0.00000  Uiso   1.00
O650   O     0.23241   0.21821   0.62695   0.00000  Uiso   1.00
O651   O     0.10647   0.11116   0.60782   0.00000  Uiso   1.00
O652   O     0.24820   0.20004   0.38743   0.00000  Uiso   1.00
O653   O     0.16667   0.22678   0.46042   0.00000  Uiso   1.00
O654   O     0.16666   0.10654   0.46039   0.00000  Uiso   1.00
O655   O     0.16667   0.22679   0.53961   0.00000  Uiso   1.00
O656   O     0.09161   0.16667   0.53046   0.00000  Uiso   1.00
O657   O     0.24172   0.16666   0.46954   0.00000  Uiso   1.00
O658   O     0.09161   0.16666   0.45127   0.00000  Uiso   1.00
O659   O     0.24172   0.16667   0.54873   0.00000  Uiso   1.00
O660   O     0.11450   0.10620   0.37468   0.00000  Uiso   1.00
Br661  Br    0.65490   0.13108   0.42559   0.00000  Uiso   1.00
Br662  Br    0.34510   0.20684   0.57188   0.00000  Uiso   1.00
Br663  Br    0.60656   0.04729   0.48022   0.00000  Uiso   1.00
Br664  Br    0.39024   0.28642   0.51262   0.00000  Uiso   1.00
C665   C     0.50061   0.08760   0.49952   0.00000  Uiso   1.00
C666   C     0.45584   0.02245   0.50745   0.00000  Uiso   1.00
C667   C     0.49850   0.29059   0.50092   0.00000  Uiso   1.00
C668   C     0.50034   0.04306   0.49874   0.00000  Uiso   1.00
C669   C     0.47126   0.13820   0.35413   0.00000  Uiso   1.00
C670   C     0.53114   0.19343   0.64618   0.00000  Uiso   1.00
C671   C     0.46855   0.13988   0.63722   0.00000  Uiso   1.00
C672   C     0.53421   0.19109   0.36259   0.00000  Uiso   1.00
C673   C     0.47363   0.06855   0.36723   0.00000  Uiso   1.00
C674   C     0.44217   0.03240   0.38177   0.00000  Uiso   1.00
C675   C     0.54929   0.25989   0.62726   0.00000  Uiso   1.00
C676   C     0.49865   0.24583   0.50036   0.00000  Uiso   1.00
C677   C     0.58425   0.28598   0.60109   0.00000  Uiso   1.00
C678   C     0.38842   0.10848   0.61741   0.00000  Uiso   1.00
C679   C     0.35660   0.08587   0.57688   0.00000  Uiso   1.00
C680   C     0.58487   0.23991   0.40911   0.00000  Uiso   1.00
C681   C     0.63390   0.26151   0.39911   0.00000  Uiso   1.00
C682   C     0.40166   0.16695   0.48842   0.00000  Uiso   1.00
C683   C     0.59834   0.16742   0.51147   0.00000  Uiso   1.00
C684   C     0.34723   0.16208   0.48234   0.00000  Uiso   1.00
C685   C     0.65254   0.17412   0.51665   0.00000  Uiso   1.00
C686   C     0.54405   0.02090   0.49087   0.00000  Uiso   1.00
C687   C     0.45430   0.31281   0.50751   0.00000  Uiso   1.00
C688   C     0.54293   0.31143   0.49224   0.00000  Uiso   1.00
Cu689  Cu    0.50000   0.16667   0.54689   0.00000  Uiso   1.00
Cu690  Cu    0.50000   0.16666   0.45311   0.00000  Uiso   1.00
H691   H     0.57728   0.29463   0.48765   0.00000  Uiso   1.00
H692   H     0.58916   0.27057   0.56713   0.00000  Uiso   1.00
H693   H     0.56778   0.31718   0.59525   0.00000  Uiso   1.00
H694   H     0.62253   0.28970   0.62136   0.00000  Uiso   1.00
H695   H     0.37225   0.13947   0.62337   0.00000  Uiso   1.00
H696   H     0.38428   0.08979   0.64815   0.00000  Uiso   1.00
H697   H     0.64867   0.08905   0.58054   0.00000  Uiso   1.00
H698   H     0.36449   0.09862   0.54329   0.00000  Uiso   1.00
H699   H     0.36614   0.05243   0.57660   0.00000  Uiso   1.00
H700   H     0.58915   0.23638   0.44723   0.00000  Uiso   1.00
H701   H     0.55100   0.25966   0.40035   0.00000  Uiso   1.00
H702   H     0.42187   0.03979   0.51257   0.00000  Uiso   1.00
H703   H     0.63467   0.29413   0.41259   0.00000  Uiso   1.00
H704   H     0.33416   0.24526   0.41657   0.00000  Uiso   1.00
H705   H     0.63704   0.26100   0.36125   0.00000  Uiso   1.00
H706   H     0.51189   0.06891   0.38803   0.00000  Uiso   1.00
H707   H     0.47959   0.06245   0.66350   0.00000  Uiso   1.00
H708   H     0.42850   0.03962   0.41592   0.00000  Uiso   1.00
H709   H     0.40839   0.02637   0.35557   0.00000  Uiso   1.00
H710   H     0.46569   0.00402   0.38445   0.00000  Uiso   1.00
H711   H     0.55097   0.27360   0.66268   0.00000  Uiso   1.00
H712   H     0.50906   0.26299   0.61147   0.00000  Uiso   1.00
N713   N     0.50001   0.16668   0.61736   0.00000  Uiso   1.00
N714   N     0.49999   0.16666   0.38264   0.00000  Uiso   1.00
O715   O     0.50000   0.10655   0.53958   0.00000  Uiso   1.00
O716   O     0.56575   0.21821   0.62695   0.00000  Uiso   1.00
O717   O     0.43980   0.11116   0.60782   0.00000  Uiso   1.00
O718   O     0.58154   0.20004   0.38743   0.00000  Uiso   1.00
O719   O     0.50000   0.22678   0.46042   0.00000  Uiso   1.00
O720   O     0.50000   0.10654   0.46039   0.00000  Uiso   1.00
O721   O     0.50000   0.22679   0.53961   0.00000  Uiso   1.00
O722   O     0.42495   0.16667   0.53046   0.00000  Uiso   1.00
O723   O     0.57505   0.16666   0.46954   0.00000  Uiso   1.00
O724   O     0.42494   0.16666   0.45127   0.00000  Uiso   1.00
O725   O     0.57506   0.16667   0.54873   0.00000  Uiso   1.00
O726   O     0.44783   0.10620   0.37468   0.00000  Uiso   1.00
Br727  Br    0.98824   0.13108   0.42559   0.00000  Uiso   1.00
Br728  Br    0.67844   0.20684   0.57188   0.00000  Uiso   1.00
Br729  Br    0.93989   0.04729   0.48022   0.00000  Uiso   1.00
Br730  Br    0.72358   0.28642   0.51262   0.00000  Uiso   1.00
C731   C     0.83394   0.08760   0.49952   0.00000  Uiso   1.00
C732   C     0.78917   0.02245   0.50745   0.00000  Uiso   1.00
C733   C     0.83184   0.29059   0.50092   0.00000  Uiso   1.00
C734   C     0.83367   0.04306   0.49874   0.00000  Uiso   1.00
C735   C     0.80459   0.13820   0.35413   0.00000  Uiso   1.00
C736   C     0.86447   0.19343   0.64618   0.00000  Uiso   1.00
C737   C     0.80189   0.13988   0.63722   0.00000  Uiso   1.00
C738   C     0.86754   0.19109   0.36259   0.00000  Uiso   1.00
C739   C     0.80697   0.06855   0.36723   0.00000  Uiso   1.00
C740   C     0.77550   0.03240   0.38177   0.00000  Uiso   1.00
C741   C     0.88262   0.25989   0.62726   0.00000  Uiso   1.00
C742   C     0.83198   0.24583   0.50036   0.00000  Uiso   1.00
C743   C     0.91759   0.28598   0.60109   0.00000  Uiso   1.00
C744   C     0.72175   0.10848   0.61741   0.00000  Uiso   1.00
C745   C     0.68994   0.08587   0.57688   0.00000  Uiso   1.00
C746   C     0.91820   0.23991   0.40911   0.00000  Uiso   1.00
C747   C     0.96724   0.26151   0.39911   0.00000  Uiso   1.00
C748   C     0.73499   0.16695   0.48842   0.00000  Uiso   1.00
C749   C     0.93168   0.16742   0.51147   0.00000  Uiso   1.00
C750   C     0.68056   0.16208   0.48234   0.00000  Uiso   1.00
C751   C     0.98588   0.17412   0.51665   0.00000  Uiso   1.00
C752   C     0.87738   0.02090   0.49087   0.00000  Uiso   1.00
C753   C     0.78764   0.31281   0.50751   0.00000  Uiso   1.00
C754   C     0.87626   0.31143   0.49224   0.00000  Uiso   1.00
Cu755  Cu    0.83333   0.16667   0.54689   0.00000  Uiso   1.00
Cu756  Cu    0.83333   0.16666   0.45311   0.00000  Uiso   1.00
H757   H     0.91062   0.29463   0.48765   0.00000  Uiso   1.00
H758   H     0.92249   0.27057   0.56713   0.00000  Uiso   1.00
H759   H     0.90112   0.31718   0.59525   0.00000  Uiso   1.00
H760   H     0.95587   0.28970   0.62136   0.00000  Uiso   1.00
H761   H     0.70559   0.13947   0.62337   0.00000  Uiso   1.00
H762   H     0.71761   0.08979   0.64815   0.00000  Uiso   1.00
H763   H     0.98201   0.08905   0.58054   0.00000  Uiso   1.00
H764   H     0.69782   0.09862   0.54329   0.00000  Uiso   1.00
H765   H     0.69947   0.05243   0.57660   0.00000  Uiso   1.00
H766   H     0.92249   0.23638   0.44723   0.00000  Uiso   1.00
H767   H     0.88433   0.25966   0.40035   0.00000  Uiso   1.00
H768   H     0.75520   0.03979   0.51257   0.00000  Uiso   1.00
H769   H     0.96800   0.29413   0.41259   0.00000  Uiso   1.00
H770   H     0.66749   0.24526   0.41657   0.00000  Uiso   1.00
H771   H     0.97038   0.26100   0.36125   0.00000  Uiso   1.00
H772   H     0.84522   0.06891   0.38803   0.00000  Uiso   1.00
H773   H     0.81292   0.06245   0.66350   0.00000  Uiso   1.00
H774   H     0.76184   0.03962   0.41592   0.00000  Uiso   1.00
H775   H     0.74172   0.02637   0.35557   0.00000  Uiso   1.00
H776   H     0.79902   0.00402   0.38445   0.00000  Uiso   1.00
H777   H     0.88431   0.27360   0.66268   0.00000  Uiso   1.00
H778   H     0.84240   0.26299   0.61147   0.00000  Uiso   1.00
N779   N     0.83335   0.16668   0.61736   0.00000  Uiso   1.00
N780   N     0.83332   0.16666   0.38264   0.00000  Uiso   1.00
O781   O     0.83333   0.10655   0.53958   0.00000  Uiso   1.00
O782   O     0.89908   0.21821   0.62695   0.00000  Uiso   1.00
O783   O     0.77313   0.11116   0.60782   0.00000  Uiso   1.00
O784   O     0.91487   0.20004   0.38743   0.00000  Uiso   1.00
O785   O     0.83334   0.22678   0.46042   0.00000  Uiso   1.00
O786   O     0.83333   0.10654   0.46039   0.00000  Uiso   1.00
O787   O     0.83334   0.22679   0.53961   0.00000  Uiso   1.00
O788   O     0.75828   0.16667   0.53046   0.00000  Uiso   1.00
O789   O     0.90839   0.16666   0.46954   0.00000  Uiso   1.00
O790   O     0.75828   0.16666   0.45127   0.00000  Uiso   1.00
O791   O     0.90839   0.16667   0.54873   0.00000  Uiso   1.00
O792   O     0.78116   0.10620   0.37468   0.00000  Uiso   1.00
Br793  Br    0.32157   0.46441   0.42559   0.00000  Uiso   1.00
Br794  Br    0.01177   0.54018   0.57188   0.00000  Uiso   1.00
Br795  Br    0.27323   0.38062   0.48022   0.00000  Uiso   1.00
Br796  Br    0.05691   0.61976   0.51262   0.00000  Uiso   1.00
C797   C     0.16727   0.42093   0.49952   0.00000  Uiso   1.00
C798   C     0.12250   0.35578   0.50745   0.00000  Uiso   1.00
C799   C     0.16517   0.62392   0.50092   0.00000  Uiso   1.00
C800   C     0.16701   0.37639   0.49874   0.00000  Uiso   1.00
C801   C     0.13793   0.47153   0.35413   0.00000  Uiso   1.00
C802   C     0.19780   0.52676   0.64618   0.00000  Uiso   1.00
C803   C     0.13522   0.47322   0.63722   0.00000  Uiso   1.00
C804   C     0.20087   0.52442   0.36259   0.00000  Uiso   1.00
C805   C     0.14030   0.40189   0.36723   0.00000  Uiso   1.00
C806   C     0.10883   0.36573   0.38177   0.00000  Uiso   1.00
C807   C     0.21596   0.59323   0.62726   0.00000  Uiso   1.00
C808   C     0.16531   0.57916   0.50036   0.00000  Uiso   1.00
C809   C     0.25092   0.61932   0.60109   0.00000  Uiso   1.00
C810   C     0.05508   0.44182   0.61741   0.00000  Uiso   1.00
C811   C     0.02327   0.41921   0.57688   0.00000  Uiso   1.00
C812   C     0.25153   0.57324   0.40911   0.00000  Uiso   1.00
C813   C     0.30057   0.59484   0.39911   0.00000  Uiso   1.00
C814   C     0.06832   0.50028   0.48842   0.00000  Uiso   1.00
C815   C     0.26501   0.50076   0.51147   0.00000  Uiso   1.00
C816   C     0.01389   0.49542   0.48234   0.00000  Uiso   1.00
C817   C     0.31921   0.50746   0.51665   0.00000  Uiso   1.00
C818   C     0.21071   0.35423   0.49087   0.00000  Uiso   1.00
C819   C     0.12097   0.64614   0.50751   0.00000  Uiso   1.00
C820   C     0.20960   0.64476   0.49224   0.00000  Uiso   1.00
Cu821  Cu    0.16667   0.50001   0.54689   0.00000  Uiso   1.00
Cu822  Cu    0.16667   0.49999   0.45311   0.00000  Uiso   1.00
H823   H     0.24395   0.62797   0.48765   0.00000  Uiso   1.00
H824   H     0.25583   0.60390   0.56713   0.00000  Uiso   1.00
H825   H     0.23445   0.65052   0.59525   0.00000  Uiso   1.00
H826   H     0.28920   0.62303   0.62136   0.00000  Uiso   1.00
H827   H     0.03892   0.47280   0.62337   0.00000  Uiso   1.00
H828   H     0.05094   0.42312   0.64815   0.00000  Uiso   1.00
H829   H     0.31534   0.42238   0.58054   0.00000  Uiso   1.00
H830   H     0.03116   0.43196   0.54329   0.00000  Uiso   1.00
H831   H     0.03281   0.38576   0.57660   0.00000  Uiso   1.00
H832   H     0.25582   0.56972   0.44723   0.00000  Uiso   1.00
H833   H     0.21766   0.59299   0.40035   0.00000  Uiso   1.00
H834   H     0.08853   0.37312   0.51257   0.00000  Uiso   1.00
H835   H     0.30134   0.62747   0.41259   0.00000  Uiso   1.00
H836   H     0.00083   0.57859   0.41657   0.00000  Uiso   1.00
H837   H     0.30371   0.59433   0.36125   0.00000  Uiso   1.00
H838   H     0.17855   0.40224   0.38803   0.00000  Uiso   1.00
H839   H     0.14625   0.39578   0.66350   0.00000  Uiso   1.00
H840   H     0.09517   0.37296   0.41592   0.00000  Uiso   1.00
H841   H     0.07505   0.35970   0.35557   0.00000  Uiso   1.00
H842   H     0.13236   0.33736   0.38445   0.00000  Uiso   1.00
H843   H     0.21764   0.60693   0.66268   0.00000  Uiso   1.00
H844   H     0.17573   0.59632   0.61147   0.00000  Uiso   1.00
N845   N     0.16668   0.50001   0.61736   0.00000  Uiso   1.00
N846   N     0.16665   0.49999   0.38264   0.00000  Uiso   1.00
O847   O     0.16666   0.43989   0.53958   0.00000  Uiso   1.00
O848   O     0.23241   0.55154   0.62695   0.00000  Uiso   1.00
O849   O     0.10647   0.44450   0.60782   0.00000  Uiso   1.00
O850   O     0.24820   0.53338   0.38743   0.00000  Uiso   1.00
O851   O     0.16667   0.56011   0.46042   0.00000  Uiso   1.00
O852   O     0.16666   0.43988   0.46039   0.00000  Uiso   1.00
O853   O     0.16667   0.56012   0.53961   0.00000  Uiso   1.00
O854   O     0.09161   0.50000   0.53046   0.00000  Uiso   1.00
O855   O     0.24172   0.50000   0.46954   0.00000  Uiso   1.00
O856   O     0.09161   0.49999   0.45127   0.00000  Uiso   1.00
O857   O     0.24172   0.50001   0.54873   0.00000  Uiso   1.00
O858   O     0.11450   0.43953   0.37468   0.00000  Uiso   1.00
Br859  Br    0.65490   0.46441   0.42559   0.00000  Uiso   1.00
Br860  Br    0.34510   0.54018   0.57188   0.00000  Uiso   1.00
Br861  Br    0.60656   0.38062   0.48022   0.00000  Uiso   1.00
Br862  Br    0.39024   0.61976   0.51262   0.00000  Uiso   1.00
C863   C     0.50061   0.42093   0.49952   0.00000  Uiso   1.00
C864   C     0.45584   0.35578   0.50745   0.00000  Uiso   1.00
C865   C     0.49850   0.62392   0.50092   0.00000  Uiso   1.00
C866   C     0.50034   0.37639   0.49874   0.00000  Uiso   1.00
C867   C     0.47126   0.47153   0.35413   0.00000  Uiso   1.00
C868   C     0.53114   0.52676   0.64618   0.00000  Uiso   1.00
C869   C     0.46855   0.47322   0.63722   0.00000  Uiso   1.00
C870   C     0.53421   0.52442   0.36259   0.00000  Uiso   1.00
C871   C     0.47363   0.40189   0.36723   0.00000  Uiso   1.00
C872   C     0.44217   0.36573   0.38177   0.00000  Uiso   1.00
C873   C     0.54929   0.59323   0.62726   0.00000  Uiso   1.00
C874   C     0.49865   0.57916   0.50036   0.00000  Uiso   1.00
C875   C     0.58425   0.61932   0.60109   0.00000  Uiso   1.00
C876   C     0.38842   0.44182   0.61741   0.00000  Uiso   1.00
C877   C     0.35660   0.41921   0.57688   0.00000  Uiso   1.00
C878   C     0.58487   0.57324   0.40911   0.00000  Uiso   1.00
C879   C     0.63390   0.59484   0.39911   0.00000  Uiso   1.00
C880   C     0.40166   0.50028   0.48842   0.00000  Uiso   1.00
C881   C     0.59834   0.50076   0.51147   0.00000  Uiso   1.00
C882   C     0.34723   0.49542   0.48234   0.00000  Uiso   1.00
C883   C     0.65254   0.50746   0.51665   0.00000  Uiso   1.00
C884   C     0.54405   0.35423   0.49087   0.00000  Uiso   1.00
C885   C     0.45430   0.64614   0.50751   0.00000  Uiso   1.00
C886   C     0.54293   0.64476   0.49224   0.00000  Uiso   1.00
Cu887  Cu    0.50000   0.50001   0.54689   0.00000  Uiso   1.00
Cu888  Cu    0.50000   0.49999   0.45311   0.00000  Uiso   1.00
H889   H     0.57728   0.62797   0.48765   0.00000  Uiso   1.00
H890   H     0.58916   0.60390   0.56713   0.00000  Uiso   1.00
H891   H     0.56778   0.65052   0.59525   0.00000  Uiso   1.00
H892   H     0.62253   0.62303   0.62136   0.00000  Uiso   1.00
H893   H     0.37225   0.47280   0.62337   0.00000  Uiso   1.00
H894   H     0.38428   0.42312   0.64815   0.00000  Uiso   1.00
H895   H     0.64867   0.42238   0.58054   0.00000  Uiso   1.00
H896   H     0.36449   0.43196   0.54329   0.00000  Uiso   1.00
H897   H     0.36614   0.38576   0.57660   0.00000  Uiso   1.00
H898   H     0.58915   0.56972   0.44723   0.00000  Uiso   1.00
H899   H     0.55100   0.59299   0.40035   0.00000  Uiso   1.00
H900   H     0.42187   0.37312   0.51257   0.00000  Uiso   1.00
H901   H     0.63467   0.62747   0.41259   0.00000  Uiso   1.00
H902   H     0.33416   0.57859   0.41657   0.00000  Uiso   1.00
H903   H     0.63704   0.59433   0.36125   0.00000  Uiso   1.00
H904   H     0.51189   0.40224   0.38803   0.00000  Uiso   1.00
H905   H     0.47959   0.39578   0.66350   0.00000  Uiso   1.00
H906   H     0.42850   0.37296   0.41592   0.00000  Uiso   1.00
H907   H     0.40839   0.35970   0.35557   0.00000  Uiso   1.00
H908   H     0.46569   0.33736   0.38445   0.00000  Uiso   1.00
H909   H     0.55097   0.60693   0.66268   0.00000  Uiso   1.00
H910   H     0.50906   0.59632   0.61147   0.00000  Uiso   1.00
N911   N     0.50001   0.50001   0.61736   0.00000  Uiso   1.00
N912   N     0.49999   0.49999   0.38264   0.00000  Uiso   1.00
O913   O     0.50000   0.43989   0.53958   0.00000  Uiso   1.00
O914   O     0.56575   0.55154   0.62695   0.00000  Uiso   1.00
O915   O     0.43980   0.44450   0.60782   0.00000  Uiso   1.00
O916   O     0.58154   0.53338   0.38743   0.00000  Uiso   1.00
O917   O     0.50000   0.56011   0.46042   0.00000  Uiso   1.00
O918   O     0.50000   0.43988   0.46039   0.00000  Uiso   1.00
O919   O     0.50000   0.56012   0.53961   0.00000  Uiso   1.00
O920   O     0.42495   0.50000   0.53046   0.00000  Uiso   1.00
O921   O     0.57505   0.50000   0.46954   0.00000  Uiso   1.00
O922   O     0.42494   0.49999   0.45127   0.00000  Uiso   1.00
O923   O     0.57506   0.50001   0.54873   0.00000  Uiso   1.00
O924   O     0.44783   0.43953   0.37468   0.00000  Uiso   1.00
Br925  Br    0.98824   0.46441   0.42559   0.00000  Uiso   1.00
Br926  Br    0.67844   0.54018   0.57188   0.00000  Uiso   1.00
Br927  Br    0.93989   0.38062   0.48022   0.00000  Uiso   1.00
Br928  Br    0.72358   0.61976   0.51262   0.00000  Uiso   1.00
C929   C     0.83394   0.42093   0.49952   0.00000  Uiso   1.00
C930   C     0.78917   0.35578   0.50745   0.00000  Uiso   1.00
C931   C     0.83184   0.62392   0.50092   0.00000  Uiso   1.00
C932   C     0.83367   0.37639   0.49874   0.00000  Uiso   1.00
C933   C     0.80459   0.47153   0.35413   0.00000  Uiso   1.00
C934   C     0.86447   0.52676   0.64618   0.00000  Uiso   1.00
C935   C     0.80189   0.47322   0.63722   0.00000  Uiso   1.00
C936   C     0.86754   0.52442   0.36259   0.00000  Uiso   1.00
C937   C     0.80697   0.40189   0.36723   0.00000  Uiso   1.00
C938   C     0.77550   0.36573   0.38177   0.00000  Uiso   1.00
C939   C     0.88262   0.59323   0.62726   0.00000  Uiso   1.00
C940   C     0.83198   0.57916   0.50036   0.00000  Uiso   1.00
C941   C     0.91759   0.61932   0.60109   0.00000  Uiso   1.00
C942   C     0.72175   0.44182   0.61741   0.00000  Uiso   1.00
C943   C     0.68994   0.41921   0.57688   0.00000  Uiso   1.00
C944   C     0.91820   0.57324   0.40911   0.00000  Uiso   1.00
C945   C     0.96724   0.59484   0.39911   0.00000  Uiso   1.00
C946   C     0.73499   0.50028   0.48842   0.00000  Uiso   1.00
C947   C     0.93168   0.50076   0.51147   0.00000  Uiso   1.00
C948   C     0.68056   0.49542   0.48234   0.00000  Uiso   1.00
C949   C     0.98588   0.50746   0.51665   0.00000  Uiso   1.00
C950   C     0.87738   0.35423   0.49087   0.00000  Uiso   1.00
C951   C     0.78764   0.64614   0.50751   0.00000  Uiso   1.00
C952   C     0.87626   0.64476   0.49224   0.00000  Uiso   1.00
Cu953  Cu    0.83333   0.50001   0.54689   0.00000  Uiso   1.00
Cu954  Cu    0.83333   0.49999   0.45311   0.00000  Uiso   1.00
H955   H     0.91062   0.62797   0.48765   0.00000  Uiso   1.00
H956   H     0.92249   0.60390   0.56713   0.00000  Uiso   1.00
H957   H     0.90112   0.65052   0.59525   0.00000  Uiso   1.00
H958   H     0.95587   0.62303   0.62136   0.00000  Uiso   1.00
H959   H     0.70559   0.47280   0.62337   0.00000  Uiso   1.00
H960   H     0.71761   0.42312   0.64815   0.00000  Uiso   1.00
H961   H     0.98201   0.42238   0.58054   0.00000  Uiso   1.00
H962   H     0.69782   0.43196   0.54329   0.00000  Uiso   1.00
H963   H     0.69947   0.38576   0.57660   0.00000  Uiso   1.00
H964   H     0.92249   0.56972   0.44723   0.00000  Uiso   1.00
H965   H     0.88433   0.59299   0.40035   0.00000  Uiso   1.00
H966   H     0.75520   0.37312   0.51257   0.00000  Uiso   1.00
H967   H     0.96800   0.62747   0.41259   0.00000  Uiso   1.00
H968   H     0.66749   0.57859   0.41657   0.00000  Uiso   1.00
H969   H     0.97038   0.59433   0.36125   0.00000  Uiso   1.00
H970   H     0.84522   0.40224   0.38803   0.00000  Uiso   1.00
H971   H     0.81292   0.39578   0.66350   0.00000  Uiso   1.00
H972   H     0.76184   0.37296   0.41592   0.00000  Uiso   1.00
H973   H     0.74172   0.35970   0.35557   0.00000  Uiso   1.00
H974   H     0.79902   0.33736   0.38445   0.00000  Uiso   1.00
H975   H     0.88431   0.60693   0.66268   0.00000  Uiso   1.00
H976   H     0.84240   0.59632   0.61147   0.00000  Uiso   1.00
N977   N     0.83335   0.50001   0.61736   0.00000  Uiso   1.00
N978   N     0.83332   0.49999   0.38264   0.00000  Uiso   1.00
O979   O     0.83333   0.43989   0.53958   0.00000  Uiso   1.00
O980   O     0.89908   0.55154   0.62695   0.00000  Uiso   1.00
O981   O     0.77313   0.44450   0.60782   0.00000  Uiso   1.00
O982   O     0.91487   0.53338   0.38743   0.00000  Uiso   1.00
O983   O     0.83334   0.56011   0.46042   0.00000  Uiso   1.00
O984   O     0.83333   0.43988   0.46039   0.00000  Uiso   1.00
O985   O     0.83334   0.56012   0.53961   0.00000  Uiso   1.00
O986   O     0.75828   0.50000   0.53046   0.00000  Uiso   1.00
O987   O     0.90839   0.50000   0.46954   0.00000  Uiso   1.00
O988   O     0.75828   0.49999   0.45127   0.00000  Uiso   1.00
O989   O     0.90839   0.50001   0.54873   0.00000  Uiso   1.00
O990   O     0.78116   0.43953   0.37468   0.00000  Uiso   1.00
Br991  Br    0.32157   0.79775   0.42559   0.00000  Uiso   1.00
Br992  Br    0.01177   0.87351   0.57188   0.00000  Uiso   1.00
Br993  Br    0.27323   0.71396   0.48022   0.00000  Uiso   1.00
Br994  Br    0.05691   0.95309   0.51262   0.00000  Uiso   1.00
C995   C     0.16727   0.75427   0.49952   0.00000  Uiso   1.00
C996   C     0.12250   0.68911   0.50745   0.00000  Uiso   1.00
C997   C     0.16517   0.95725   0.50092   0.00000  Uiso   1.00
C998   C     0.16701   0.70973   0.49874   0.00000  Uiso   1.00
C999   C     0.13793   0.80487   0.35413   0.00000  Uiso   1.00
C1000  C     0.19780   0.86010   0.64618   0.00000  Uiso   1.00
C1001  C     0.13522   0.80655   0.63722   0.00000  Uiso   1.00
C1002  C     0.20087   0.85776   0.36259   0.00000  Uiso   1.00
C1003  C     0.14030   0.73522   0.36723   0.00000  Uiso   1.00
C1004  C     0.10883   0.69906   0.38177   0.00000  Uiso   1.00
C1005  C     0.21596   0.92656   0.62726   0.00000  Uiso   1.00
C1006  C     0.16531   0.91249   0.50036   0.00000  Uiso   1.00
C1007  C     0.25092   0.95265   0.60109   0.00000  Uiso   1.00
C1008  C     0.05508   0.77515   0.61741   0.00000  Uiso   1.00
C1009  C     0.02327   0.75254   0.57688   0.00000  Uiso   1.00
C1010  C     0.25153   0.90658   0.40911   0.00000  Uiso   1.00
C1011  C     0.30057   0.92817   0.39911   0.00000  Uiso   1.00
C1012  C     0.06832   0.83361   0.48842   0.00000  Uiso   1.00
C1013  C     0.26501   0.83409   0.51147   0.00000  Uiso   1.00
C1014  C     0.01389   0.82875   0.48234   0.00000  Uiso   1.00
C1015  C     0.31921   0.84079   0.51665   0.00000  Uiso   1.00
C1016  C     0.21071   0.68757   0.49087   0.00000  Uiso   1.00
C1017  C     0.12097   0.97948   0.50751   0.00000  Uiso   1.00
C1018  C     0.20960   0.97809   0.49224   0.00000  Uiso   1.00
Cu1019 Cu    0.16667   0.83334   0.54689   0.00000  Uiso   1.00
Cu1020 Cu    0.16667   0.83333   0.45311   0.00000  Uiso   1.00
H1021  H     0.24395   0.96130   0.48765   0.00000  Uiso   1.00
H1022  H     0.25583   0.93724   0.56713   0.00000  Uiso   1.00
H1023  H     0.23445   0.98385   0.59525   0.00000  Uiso   1.00
H1024  H     0.28920   0.95637   0.62136   0.00000  Uiso   1.00
H1025  H     0.03892   0.80614   0.62337   0.00000  Uiso   1.00
H1026  H     0.05094   0.75646   0.64815   0.00000  Uiso   1.00
H1027  H     0.31534   0.75571   0.58054   0.00000  Uiso   1.00
H1028  H     0.03116   0.76529   0.54329   0.00000  Uiso   1.00
H1029  H     0.03281   0.71909   0.57660   0.00000  Uiso   1.00
H1030  H     0.25582   0.90305   0.44723   0.00000  Uiso   1.00
H1031  H     0.21766   0.92633   0.40035   0.00000  Uiso   1.00
H1032  H     0.08853   0.70646   0.51257   0.00000  Uiso   1.00
H1033  H     0.30134   0.96080   0.41259   0.00000  Uiso   1.00
H1034  H     0.00083   0.91192   0.41657   0.00000  Uiso   1.00
H1035  H     0.30371   0.92766   0.36125   0.00000  Uiso   1.00
H1036  H     0.17855   0.73557   0.38803   0.00000  Uiso   1.00
H1037  H     0.14625   0.72912   0.66350   0.00000  Uiso   1.00
H1038  H     0.09517   0.70629   0.41592   0.00000  Uiso   1.00
H1039  H     0.07505   0.69303   0.35557   0.00000  Uiso   1.00
H1040  H     0.13236   0.67069   0.38445   0.00000  Uiso   1.00
H1041  H     0.21764   0.94027   0.66268   0.00000  Uiso   1.00
H1042  H     0.17573   0.92966   0.61147   0.00000  Uiso   1.00
N1043  N     0.16668   0.83334   0.61736   0.00000  Uiso   1.00
N1044  N     0.16665   0.83332   0.38264   0.00000  Uiso   1.00
O1045  O     0.16666   0.77322   0.53958   0.00000  Uiso   1.00
O1046  O     0.23241   0.88488   0.62695   0.00000  Uiso   1.00
O1047  O     0.10647   0.77783   0.60782   0.00000  Uiso   1.00
O1048  O     0.24820   0.86671   0.38743   0.00000  Uiso   1.00
O1049  O     0.16667   0.89345   0.46042   0.00000  Uiso   1.00
O1050  O     0.16666   0.77321   0.46039   0.00000  Uiso   1.00
O1051  O     0.16667   0.89346   0.53961   0.00000  Uiso   1.00
O1052  O     0.09161   0.83334   0.53046   0.00000  Uiso   1.00
O1053  O     0.24172   0.83333   0.46954   0.00000  Uiso   1.00
O1054  O     0.09161   0.83333   0.45127   0.00000  Uiso   1.00
O1055  O     0.24172   0.83334   0.54873   0.00000  Uiso   1.00
O1056  O     0.11450   0.77286   0.37468   0.00000  Uiso   1.00
Br1057 Br    0.65490   0.79775   0.42559   0.00000  Uiso   1.00
Br1058 Br    0.34510   0.87351   0.57188   0.00000  Uiso   1.00
Br1059 Br    0.60656   0.71396   0.48022   0.00000  Uiso   1.00
Br1060 Br    0.39024   0.95309   0.51262   0.00000  Uiso   1.00
C1061  C     0.50061   0.75427   0.49952   0.00000  Uiso   1.00
C1062  C     0.45584   0.68911   0.50745   0.00000  Uiso   1.00
C1063  C     0.49850   0.95725   0.50092   0.00000  Uiso   1.00
C1064  C     0.50034   0.70973   0.49874   0.00000  Uiso   1.00
C1065  C     0.47126   0.80487   0.35413   0.00000  Uiso   1.00
C1066  C     0.53114   0.86010   0.64618   0.00000  Uiso   1.00
C1067  C     0.46855   0.80655   0.63722   0.00000  Uiso   1.00
C1068  C     0.53421   0.85776   0.36259   0.00000  Uiso   1.00
C1069  C     0.47363   0.73522   0.36723   0.00000  Uiso   1.00
C1070  C     0.44217   0.69906   0.38177   0.00000  Uiso   1.00
C1071  C     0.54929   0.92656   0.62726   0.00000  Uiso   1.00
C1072  C     0.49865   0.91249   0.50036   0.00000  Uiso   1.00
C1073  C     0.58425   0.95265   0.60109   0.00000  Uiso   1.00
C1074  C     0.38842   0.77515   0.61741   0.00000  Uiso   1.00
C1075  C     0.35660   0.75254   0.57688   0.00000  Uiso   1.00
C1076  C     0.58487   0.90658   0.40911   0.00000  Uiso   1.00
C1077  C     0.63390   0.92817   0.39911   0.00000  Uiso   1.00
C1078  C     0.40166   0.83361   0.48842   0.00000  Uiso   1.00
C1079  C     0.59834   0.83409   0.51147   0.00000  Uiso   1.00
C1080  C     0.34723   0.82875   0.48234   0.00000  Uiso   1.00
C1081  C     0.65254   0.84079   0.51665   0.00000  Uiso   1.00
C1082  C     0.54405   0.68757   0.49087   0.00000  Uiso   1.00
C1083  C     0.45430   0.97948   0.50751   0.00000  Uiso   1.00
C1084  C     0.54293   0.97809   0.49224   0.00000  Uiso   1.00
Cu1085 Cu    0.50000   0.83334   0.54689   0.00000  Uiso   1.00
Cu1086 Cu    0.50000   0.83333   0.45311   0.00000  Uiso   1.00
H1087  H     0.57728   0.96130   0.48765   0.00000  Uiso   1.00
H1088  H     0.58916   0.93724   0.56713   0.00000  Uiso   1.00
H1089  H     0.56778   0.98385   0.59525   0.00000  Uiso   1.00
H1090  H     0.62253   0.95637   0.62136   0.00000  Uiso   1.00
H1091  H     0.37225   0.80614   0.62337   0.00000  Uiso   1.00
H1092  H     0.38428   0.75646   0.64815   0.00000  Uiso   1.00
H1093  H     0.64867   0.75571   0.58054   0.00000  Uiso   1.00
H1094  H     0.36449   0.76529   0.54329   0.00000  Uiso   1.00
H1095  H     0.36614   0.71909   0.57660   0.00000  Uiso   1.00
H1096  H     0.58915   0.90305   0.44723   0.00000  Uiso   1.00
H1097  H     0.55100   0.92633   0.40035   0.00000  Uiso   1.00
H1098  H     0.42187   0.70646   0.51257   0.00000  Uiso   1.00
H1099  H     0.63467   0.96080   0.41259   0.00000  Uiso   1.00
H1100  H     0.33416   0.91192   0.41657   0.00000  Uiso   1.00
H1101  H     0.63704   0.92766   0.36125   0.00000  Uiso   1.00
H1102  H     0.51189   0.73557   0.38803   0.00000  Uiso   1.00
H1103  H     0.47959   0.72912   0.66350   0.00000  Uiso   1.00
H1104  H     0.42850   0.70629   0.41592   0.00000  Uiso   1.00
H1105  H     0.40839   0.69303   0.35557   0.00000  Uiso   1.00
H1106  H     0.46569   0.67069   0.38445   0.00000  Uiso   1.00
H1107  H     0.55097   0.94027   0.66268   0.00000  Uiso   1.00
H1108  H     0.50906   0.92966   0.61147   0.00000  Uiso   1.00
N1109  N     0.50001   0.83334   0.61736   0.00000  Uiso   1.00
N1110  N     0.49999   0.83332   0.38264   0.00000  Uiso   1.00
O1111  O     0.50000   0.77322   0.53958   0.00000  Uiso   1.00
O1112  O     0.56575   0.88488   0.62695   0.00000  Uiso   1.00
O1113  O     0.43980   0.77783   0.60782   0.00000  Uiso   1.00
O1114  O     0.58154   0.86671   0.38743   0.00000  Uiso   1.00
O1115  O     0.50000   0.89345   0.46042   0.00000  Uiso   1.00
O1116  O     0.50000   0.77321   0.46039   0.00000  Uiso   1.00
O1117  O     0.50000   0.89346   0.53961   0.00000  Uiso   1.00
O1118  O     0.42495   0.83334   0.53046   0.00000  Uiso   1.00
O1119  O     0.57505   0.83333   0.46954   0.00000  Uiso   1.00
O1120  O     0.42494   0.83333   0.45127   0.00000  Uiso   1.00
O1121  O     0.57506   0.83334   0.54873   0.00000  Uiso   1.00
O1122  O     0.44783   0.77286   0.37468   0.00000  Uiso   1.00
Br1123 Br    0.98824   0.79775   0.42559   0.00000  Uiso   1.00
Br1124 Br    0.67844   0.87351   0.57188   0.00000  Uiso   1.00
Br1125 Br    0.93989   0.71396   0.48022   0.00000  Uiso   1.00
Br1126 Br    0.72358   0.95309   0.51262   0.00000  Uiso   1.00
C1127  C     0.83394   0.75427   0.49952   0.00000  Uiso   1.00
C1128  C     0.78917   0.68911   0.50745   0.00000  Uiso   1.00
C1129  C     0.83184   0.95725   0.50092   0.00000  Uiso   1.00
C1130  C     0.83367   0.70973   0.49874   0.00000  Uiso   1.00
C1131  C     0.80459   0.80487   0.35413   0.00000  Uiso   1.00
C1132  C     0.86447   0.86010   0.64618   0.00000  Uiso   1.00
C1133  C     0.80189   0.80655   0.63722   0.00000  Uiso   1.00
C1134  C     0.86754   0.85776   0.36259   0.00000  Uiso   1.00
C1135  C     0.80697   0.73522   0.36723   0.00000  Uiso   1.00
C1136  C     0.77550   0.69906   0.38177   0.00000  Uiso   1.00
C1137  C     0.88262   0.92656   0.62726   0.00000  Uiso   1.00
C1138  C     0.83198   0.91249   0.50036   0.00000  Uiso   1.00
C1139  C     0.91759   0.95265   0.60109   0.00000  Uiso   1.00
C1140  C     0.72175   0.77515   0.61741   0.00000  Uiso   1.00
C1141  C     0.68994   0.75254   0.57688   0.00000  Uiso   1.00
C1142  C     0.91820   0.90658   0.40911   0.00000  Uiso   1.00
C1143  C     0.96724   0.92817   0.39911   0.00000  Uiso   1.00
C1144  C     0.73499   0.83361   0.48842   0.00000  Uiso   1.00
C1145  C     0.93168   0.83409   0.51147   0.00000  Uiso   1.00
C1146  C     0.68056   0.82875   0.48234   0.00000  Uiso   1.00
C1147  C     0.98588   0.84079   0.51665   0.00000  Uiso   1.00
C1148  C     0.87738   0.68757   0.49087   0.00000  Uiso   1.00
C1149  C     0.78764   0.97948   0.50751   0.00000  Uiso   1.00
C1150  C     0.87626   0.97809   0.49224   0.00000  Uiso   1.00
Cu1151 Cu    0.83333   0.83334   0.54689   0.00000  Uiso   1.00
Cu1152 Cu    0.83333   0.83333   0.45311   0.00000  Uiso   1.00
H1153  H     0.91062   0.96130   0.48765   0.00000  Uiso   1.00
H1154  H     0.92249   0.93724   0.56713   0.00000  Uiso   1.00
H1155  H     0.90112   0.98385   0.59525   0.00000  Uiso   1.00
H1156  H     0.95587   0.95637   0.62136   0.00000  Uiso   1.00
H1157  H     0.70559   0.80614   0.62337   0.00000  Uiso   1.00
H1158  H     0.71761   0.75646   0.64815   0.00000  Uiso   1.00
H1159  H     0.98201   0.75571   0.58054   0.00000  Uiso   1.00
H1160  H     0.69782   0.76529   0.54329   0.00000  Uiso   1.00
H1161  H     0.69947   0.71909   0.57660   0.00000  Uiso   1.00
H1162  H     0.92249   0.90305   0.44723   0.00000  Uiso   1.00
H1163  H     0.88433   0.92633   0.40035   0.00000  Uiso   1.00
H1164  H     0.75520   0.70646   0.51257   0.00000  Uiso   1.00
H1165  H     0.96800   0.96080   0.41259   0.00000  Uiso   1.00
H1166  H     0.66749   0.91192   0.41657   0.00000  Uiso   1.00
H1167  H     0.97038   0.92766   0.36125   0.00000  Uiso   1.00
H1168  H     0.84522   0.73557   0.38803   0.00000  Uiso   1.00
H1169  H     0.81292   0.72912   0.66350   0.00000  Uiso   1.00
H1170  H     0.76184   0.70629   0.41592   0.00000  Uiso   1.00
H1171  H     0.74172   0.69303   0.35557   0.00000  Uiso   1.00
H1172  H     0.79902   0.67069   0.38445   0.00000  Uiso   1.00
H1173  H     0.88431   0.94027   0.66268   0.00000  Uiso   1.00
H1174  H     0.84240   0.92966   0.61147   0.00000  Uiso   1.00
N1175  N     0.83335   0.83334   0.61736   0.00000  Uiso   1.00
N1176  N     0.83332   0.83332   0.38264   0.00000  Uiso   1.00
O1177  O     0.83333   0.77322   0.53958   0.00000  Uiso   1.00
O1178  O     0.89908   0.88488   0.62695   0.00000  Uiso   1.00
O1179  O     0.77313   0.77783   0.60782   0.00000  Uiso   1.00
O1180  O     0.91487   0.86671   0.38743   0.00000  Uiso   1.00
O1181  O     0.83334   0.89345   0.46042   0.00000  Uiso   1.00
O1182  O     0.83333   0.77321   0.46039   0.00000  Uiso   1.00
O1183  O     0.83334   0.89346   0.53961   0.00000  Uiso   1.00
O1184  O     0.75828   0.83334   0.53046   0.00000  Uiso   1.00
O1185  O     0.90839   0.83333   0.46954   0.00000  Uiso   1.00
O1186  O     0.75828   0.83333   0.45127   0.00000  Uiso   1.00
O1187  O     0.90839   0.83334   0.54873   0.00000  Uiso   1.00
O1188  O     0.78116   0.77286   0.37468   0.00000  Uiso   1.00
Br1189 Br    0.32157   0.13108   0.75893   0.00000  Uiso   1.00
Br1190 Br    0.01177   0.20684   0.90522   0.00000  Uiso   1.00
Br1191 Br    0.27323   0.04729   0.81355   0.00000  Uiso   1.00
Br1192 Br    0.05691   0.28642   0.84595   0.00000  Uiso   1.00
C1193  C     0.16727   0.08760   0.83286   0.00000  Uiso   1.00
C1194  C     0.12250   0.02245   0.84079   0.00000  Uiso   1.00
C1195  C     0.16517   0.29059   0.83426   0.00000  Uiso   1.00
C1196  C     0.16701   0.04306   0.83208   0.00000  Uiso   1.00
C1197  C     0.13793   0.13820   0.68746   0.00000  Uiso   1.00
C1198  C     0.19780   0.19343   0.97952   0.00000  Uiso   1.00
C1199  C     0.13522   0.13988   0.97055   0.00000  Uiso   1.00
C1200  C     0.20087   0.19109   0.69592   0.00000  Uiso   1.00
C1201  C     0.14030   0.06855   0.70056   0.00000  Uiso   1.00
C1202  C     0.10883   0.03240   0.71511   0.00000  Uiso   1.00
C1203  C     0.21596   0.25989   0.96059   0.00000  Uiso   1.00
C1204  C     0.16531   0.24583   0.83370   0.00000  Uiso   1.00
C1205  C     0.25092   0.28598   0.93442   0.00000  Uiso   1.00
C1206  C     0.05508   0.10848   0.95074   0.00000  Uiso   1.00
C1207  C     0.02327   0.08587   0.91021   0.00000  Uiso   1.00
C1208  C     0.25153   0.23991   0.74244   0.00000  Uiso   1.00
C1209  C     0.30057   0.26151   0.73245   0.00000  Uiso   1.00
C1210  C     0.06832   0.16695   0.82175   0.00000  Uiso   1.00
C1211  C     0.26501   0.16742   0.84480   0.00000  Uiso   1.00
C1212  C     0.01389   0.16208   0.81568   0.00000  Uiso   1.00
C1213  C     0.31921   0.17412   0.84999   0.00000  Uiso   1.00
C1214  C     0.21071   0.02090   0.82421   0.00000  Uiso   1.00
C1215  C     0.12097   0.31281   0.84085   0.00000  Uiso   1.00
C1216  C     0.20960   0.31143   0.82557   0.00000  Uiso   1.00
Cu1217 Cu    0.16667   0.16667   0.88022   0.00000  Uiso   1.00
Cu1218 Cu    0.16667   0.16666   0.78645   0.00000  Uiso   1.00
H1219  H     0.24395   0.29463   0.82098   0.00000  Uiso   1.00
H1220  H     0.25583   0.27057   0.90046   0.00000  Uiso   1.00
H1221  H     0.23445   0.31718   0.92859   0.00000  Uiso   1.00
H1222  H     0.28920   0.28970   0.95469   0.00000  Uiso   1.00
H1223  H     0.03892   0.13947   0.95670   0.00000  Uiso   1.00
H1224  H     0.05094   0.08979   0.98148   0.00000  Uiso   1.00
H1225  H     0.31534   0.08905   0.91388   0.00000  Uiso   1.00
H1226  H     0.03116   0.09862   0.87662   0.00000  Uiso   1.00
H1227  H     0.03281   0.05243   0.90993   0.00000  Uiso   1.00
H1228  H     0.25582   0.23638   0.78056   0.00000  Uiso   1.00
H1229  H     0.21766   0.25966   0.73368   0.00000  Uiso   1.00
H1230  H     0.08853   0.03979   0.84590   0.00000  Uiso   1.00
H1231  H     0.30134   0.29413   0.74592   0.00000  Uiso   1.00
H1232  H     0.00083   0.24526   0.74990   0.00000  Uiso   1.00
H1233  H     0.30371   0.26100   0.69459   0.00000  Uiso   1.00
H1234  H     0.17855   0.06891   0.72136   0.00000  Uiso   1.00
H1235  H     0.14625   0.06245   0.99684   0.00000  Uiso   1.00
H1236  H     0.09517   0.03962   0.74925   0.00000  Uiso   1.00
H1237  H     0.07505   0.02637   0.68890   0.00000  Uiso   1.00
H1238  H     0.13236   0.00402   0.71778   0.00000  Uiso   1.00
H1239  H     0.21764   0.27360   0.99602   0.00000  Uiso   1.00
H1240  H     0.17573   0.26299   0.94480   0.00000  Uiso   1.00
N1241  N     0.16668   0.16668   0.95069   0.00000  Uiso   1.00
N1242  N     0.16665   0.16666   0.71597   0.00000  Uiso   1.00
O1243  O     0.16666   0.10655   0.87291   0.00000  Uiso   1.00
O1244  O     0.23241   0.21821   0.96028   0.00000  Uiso   1.00
O1245  O     0.10647   0.11116   0.94115   0.00000  Uiso   1.00
O1246  O     0.24820   0.20004   0.72076   0.00000  Uiso   1.00
O1247  O     0.16667   0.22678   0.79375   0.00000  Uiso   1.00
O1248  O     0.16666   0.10654   0.79372   0.00000  Uiso   1.00
O1249  O     0.16667   0.22679   0.87294   0.00000  Uiso   1.00
O1250  O     0.09161   0.16667   0.86379   0.00000  Uiso   1.00
O1251  O     0.24172   0.16666   0.80288   0.00000  Uiso   1.00
O1252  O     0.09161   0.16666   0.78460   0.00000  Uiso   1.00
O1253  O     0.24172   0.16667   0.88207   0.00000  Uiso   1.00
O1254  O     0.11450   0.10620   0.70801   0.00000  Uiso   1.00
Br1255 Br    0.65490   0.13108   0.75893   0.00000  Uiso   1.00
Br1256 Br    0.34510   0.20684   0.90522   0.00000  Uiso   1.00
Br1257 Br    0.60656   0.04729   0.81355   0.00000  Uiso   1.00
Br1258 Br    0.39024   0.28642   0.84595   0.00000  Uiso   1.00
C1259  C     0.50061   0.08760   0.83286   0.00000  Uiso   1.00
C1260  C     0.45584   0.02245   0.84079   0.00000  Uiso   1.00
C1261  C     0.49850   0.29059   0.83426   0.00000  Uiso   1.00
C1262  C     0.50034   0.04306   0.83208   0.00000  Uiso   1.00
C1263  C     0.47126   0.13820   0.68746   0.00000  Uiso   1.00
C1264  C     0.53114   0.19343   0.97952   0.00000  Uiso   1.00
C1265  C     0.46855   0.13988   0.97055   0.00000  Uiso   1.00
C1266  C     0.53421   0.19109   0.69592   0.00000  Uiso   1.00
C1267  C     0.47363   0.06855   0.70056   0.00000  Uiso   1.00
C1268  C     0.44217   0.03240   0.71511   0.00000  Uiso   1.00
C1269  C     0.54929   0.25989   0.96059   0.00000  Uiso   1.00
C1270  C     0.49865   0.24583   0.83370   0.00000  Uiso   1.00
C1271  C     0.58425   0.28598   0.93442   0.00000  Uiso   1.00
C1272  C     0.38842   0.10848   0.95074   0.00000  Uiso   1.00
C1273  C     0.35660   0.08587   0.91021   0.00000  Uiso   1.00
C1274  C     0.58487   0.23991   0.74244   0.00000  Uiso   1.00
C1275  C     0.63390   0.26151   0.73245   0.00000  Uiso   1.00
C1276  C     0.40166   0.16695   0.82175   0.00000  Uiso   1.00
C1277  C     0.59834   0.16742   0.84480   0.00000  Uiso   1.00
C1278  C     0.34723   0.16208   0.81568   0.00000  Uiso   1.00
C1279  C     0.65254   0.17412   0.84999   0.00000  Uiso   1.00
C1280  C     0.54405   0.02090   0.82421   0.00000  Uiso   1.00
C1281  C     0.45430   0.31281   0.84085   0.00000  Uiso   1.00
C1282  C     0.54293   0.31143   0.82557   0.00000  Uiso   1.00
Cu1283 Cu    0.50000   0.16667   0.88022   0.00000  Uiso   1.00
Cu1284 Cu    0.50000   0.16666   0.78645   0.00000  Uiso   1.00
H1285  H     0.57728   0.29463   0.82098   0.00000  Uiso   1.00
H1286  H     0.58916   0.27057   0.90046   0.00000  Uiso   1.00
H1287  H     0.56778   0.31718   0.92859   0.00000  Uiso   1.00
H1288  H     0.62253   0.28970   0.95469   0.00000  Uiso   1.00
H1289  H     0.37225   0.13947   0.95670   0.00000  Uiso   1.00
H1290  H     0.38428   0.08979   0.98148   0.00000  Uiso   1.00
H1291  H     0.64867   0.08905   0.91388   0.00000  Uiso   1.00
H1292  H     0.36449   0.09862   0.87662   0.00000  Uiso   1.00
H1293  H     0.36614   0.05243   0.90993   0.00000  Uiso   1.00
H1294  H     0.58915   0.23638   0.78056   0.00000  Uiso   1.00
H1295  H     0.55100   0.25966   0.73368   0.00000  Uiso   1.00
H1296  H     0.42187   0.03979   0.84590   0.00000  Uiso   1.00
H1297  H     0.63467   0.29413   0.74592   0.00000  Uiso   1.00
H1298  H     0.33416   0.24526   0.74990   0.00000  Uiso   1.00
H1299  H     0.63704   0.26100   0.69459   0.00000  Uiso   1.00
H1300  H     0.51189   0.06891   0.72136   0.00000  Uiso   1.00
H1301  H     0.47959   0.06245   0.99684   0.00000  Uiso   1.00
H1302  H     0.42850   0.03962   0.74925   0.00000  Uiso   1.00
H1303  H     0.40839   0.02637   0.68890   0.00000  Uiso   1.00
H1304  H     0.46569   0.00402   0.71778   0.00000  Uiso   1.00
H1305  H     0.55097   0.27360   0.99602   0.00000  Uiso   1.00
H1306  H     0.50906   0.26299   0.94480   0.00000  Uiso   1.00
N1307  N     0.50001   0.16668   0.95069   0.00000  Uiso   1.00
N1308  N     0.49999   0.16666   0.71597   0.00000  Uiso   1.00
O1309  O     0.50000   0.10655   0.87291   0.00000  Uiso   1.00
O1310  O     0.56575   0.21821   0.96028   0.00000  Uiso   1.00
O1311  O     0.43980   0.11116   0.94115   0.00000  Uiso   1.00
O1312  O     0.58154   0.20004   0.72076   0.00000  Uiso   1.00
O1313  O     0.50000   0.22678   0.79375   0.00000  Uiso   1.00
O1314  O     0.50000   0.10654   0.79372   0.00000  Uiso   1.00
O1315  O     0.50000   0.22679   0.87294   0.00000  Uiso   1.00
O1316  O     0.42495   0.16667   0.86379   0.00000  Uiso   1.00
O1317  O     0.57505   0.16666   0.80288   0.00000  Uiso   1.00
O1318  O     0.42494   0.16666   0.78460   0.00000  Uiso   1.00
O1319  O     0.57506   0.16667   0.88207   0.00000  Uiso   1.00
O1320  O     0.44783   0.10620   0.70801   0.00000  Uiso   1.00
Br1321 Br    0.98824   0.13108   0.75893   0.00000  Uiso   1.00
Br1322 Br    0.67844   0.20684   0.90522   0.00000  Uiso   1.00
Br1323 Br    0.93989   0.04729   0.81355   0.00000  Uiso   1.00
Br1324 Br    0.72358   0.28642   0.84595   0.00000  Uiso   1.00
C1325  C     0.83394   0.08760   0.83286   0.00000  Uiso   1.00
C1326  C     0.78917   0.02245   0.84079   0.00000  Uiso   1.00
C1327  C     0.83184   0.29059   0.83426   0.00000  Uiso   1.00
C1328  C     0.83367   0.04306   0.83208   0.00000  Uiso   1.00
C1329  C     0.80459   0.13820   0.68746   0.00000  Uiso   1.00
C1330  C     0.86447   0.19343   0.97952   0.00000  Uiso   1.00
C1331  C     0.80189   0.13988   0.97055   0.00000  Uiso   1.00
C1332  C     0.86754   0.19109   0.69592   0.00000  Uiso   1.00
C1333  C     0.80697   0.06855   0.70056   0.00000  Uiso   1.00
C1334  C     0.77550   0.03240   0.71511   0.00000  Uiso   1.00
C1335  C     0.88262   0.25989   0.96059   0.00000  Uiso   1.00
C1336  C     0.83198   0.24583   0.83370   0.00000  Uiso   1.00
C1337  C     0.91759   0.28598   0.93442   0.00000  Uiso   1.00
C1338  C     0.72175   0.10848   0.95074   0.00000  Uiso   1.00
C1339  C     0.68994   0.08587   0.91021   0.00000  Uiso   1.00
C1340  C     0.91820   0.23991   0.74244   0.00000  Uiso   1.00
C1341  C     0.96724   0.26151   0.73245   0.00000  Uiso   1.00
C1342  C     0.73499   0.16695   0.82175   0.00000  Uiso   1.00
C1343  C     0.93168   0.16742   0.84480   0.00000  Uiso   1.00
C1344  C     0.68056   0.16208   0.81568   0.00000  Uiso   1.00
C1345  C     0.98588   0.17412   0.84999   0.00000  Uiso   1.00
C1346  C     0.87738   0.02090   0.82421   0.00000  Uiso   1.00
C1347  C     0.78764   0.31281   0.84085   0.00000  Uiso   1.00
C1348  C     0.87626   0.31143   0.82557   0.00000  Uiso   1.00
Cu1349 Cu    0.83333   0.16667   0.88022   0.00000  Uiso   1.00
Cu1350 Cu    0.83333   0.16666   0.78645   0.00000  Uiso   1.00
H1351  H     0.91062   0.29463   0.82098   0.00000  Uiso   1.00
H1352  H     0.92249   0.27057   0.90046   0.00000  Uiso   1.00
H1353  H     0.90112   0.31718   0.92859   0.00000  Uiso   1.00
H1354  H     0.95587   0.28970   0.95469   0.00000  Uiso   1.00
H1355  H     0.70559   0.13947   0.95670   0.00000  Uiso   1.00
H1356  H     0.71761   0.08979   0.98148   0.00000  Uiso   1.00
H1357  H     0.98201   0.08905   0.91388   0.00000  Uiso   1.00
H1358  H     0.69782   0.09862   0.87662   0.00000  Uiso   1.00
H1359  H     0.69947   0.05243   0.90993   0.00000  Uiso   1.00
H1360  H     0.92249   0.23638   0.78056   0.00000  Uiso   1.00
H1361  H     0.88433   0.25966   0.73368   0.00000  Uiso   1.00
H1362  H     0.75520   0.03979   0.84590   0.00000  Uiso   1.00
H1363  H     0.96800   0.29413   0.74592   0.00000  Uiso   1.00
H1364  H     0.66749   0.24526   0.74990   0.00000  Uiso   1.00
H1365  H     0.97038   0.26100   0.69459   0.00000  Uiso   1.00
H1366  H     0.84522   0.06891   0.72136   0.00000  Uiso   1.00
H1367  H     0.81292   0.06245   0.99684   0.00000  Uiso   1.00
H1368  H     0.76184   0.03962   0.74925   0.00000  Uiso   1.00
H1369  H     0.74172   0.02637   0.68890   0.00000  Uiso   1.00
H1370  H     0.79902   0.00402   0.71778   0.00000  Uiso   1.00
H1371  H     0.88431   0.27360   0.99602   0.00000  Uiso   1.00
H1372  H     0.84240   0.26299   0.94480   0.00000  Uiso   1.00
N1373  N     0.83335   0.16668   0.95069   0.00000  Uiso   1.00
N1374  N     0.83332   0.16666   0.71597   0.00000  Uiso   1.00
O1375  O     0.83333   0.10655   0.87291   0.00000  Uiso   1.00
O1376  O     0.89908   0.21821   0.96028   0.00000  Uiso   1.00
O1377  O     0.77313   0.11116   0.94115   0.00000  Uiso   1.00
O1378  O     0.91487   0.20004   0.72076   0.00000  Uiso   1.00
O1379  O     0.83334   0.22678   0.79375   0.00000  Uiso   1.00
O1380  O     0.83333   0.10654   0.79372   0.00000  Uiso   1.00
O1381  O     0.83334   0.22679   0.87294   0.00000  Uiso   1.00
O1382  O     0.75828   0.16667   0.86379   0.00000  Uiso   1.00
O1383  O     0.90839   0.16666   0.80288   0.00000  Uiso   1.00
O1384  O     0.75828   0.16666   0.78460   0.00000  Uiso   1.00
O1385  O     0.90839   0.16667   0.88207   0.00000  Uiso   1.00
O1386  O     0.78116   0.10620   0.70801   0.00000  Uiso   1.00
Br1387 Br    0.32157   0.46441   0.75893   0.00000  Uiso   1.00
Br1388 Br    0.01177   0.54018   0.90522   0.00000  Uiso   1.00
Br1389 Br    0.27323   0.38062   0.81355   0.00000  Uiso   1.00
Br1390 Br    0.05691   0.61976   0.84595   0.00000  Uiso   1.00
C1391  C     0.16727   0.42093   0.83286   0.00000  Uiso   1.00
C1392  C     0.12250   0.35578   0.84079   0.00000  Uiso   1.00
C1393  C     0.16517   0.62392   0.83426   0.00000  Uiso   1.00
C1394  C     0.16701   0.37639   0.83208   0.00000  Uiso   1.00
C1395  C     0.13793   0.47153   0.68746   0.00000  Uiso   1.00
C1396  C     0.19780   0.52676   0.97952   0.00000  Uiso   1.00
C1397  C     0.13522   0.47322   0.97055   0.00000  Uiso   1.00
C1398  C     0.20087   0.52442   0.69592   0.00000  Uiso   1.00
C1399  C     0.14030   0.40189   0.70056   0.00000  Uiso   1.00
C1400  C     0.10883   0.36573   0.71511   0.00000  Uiso   1.00
C1401  C     0.21596   0.59323   0.96059   0.00000  Uiso   1.00
C1402  C     0.16531   0.57916   0.83370   0.00000  Uiso   1.00
C1403  C     0.25092   0.61932   0.93442   0.00000  Uiso   1.00
C1404  C     0.05508   0.44182   0.95074   0.00000  Uiso   1.00
C1405  C     0.02327   0.41921   0.91021   0.00000  Uiso   1.00
C1406  C     0.25153   0.57324   0.74244   0.00000  Uiso   1.00
C1407  C     0.30057   0.59484   0.73245   0.00000  Uiso   1.00
C1408  C     0.06832   0.50028   0.82175   0.00000  Uiso   1.00
C1409  C     0.26501   0.50076   0.84480   0.00000  Uiso   1.00
C1410  C     0.01389   0.49542   0.81568   0.00000  Uiso   1.00
C1411  C     0.31921   0.50746   0.84999   0.00000  Uiso   1.00
C1412  C     0.21071   0.35423   0.82421   0.00000  Uiso   1.00
C1413  C     0.12097   0.64614   0.84085   0.00000  Uiso   1.00
C1414  C     0.20960   0.64476   0.82557   0.00000  Uiso   1.00
Cu1415 Cu    0.16667   0.50001   0.88022   0.00000  Uiso   1.00
Cu1416 Cu    0.16667   0.49999   0.78645   0.00000  Uiso   1.00
H1417  H     0.24395   0.62797   0.82098   0.00000  Uiso   1.00
H1418  H     0.25583   0.60390   0.90046   0.00000  Uiso   1.00
H1419  H     0.23445   0.65052   0.92859   0.00000  Uiso   1.00
H1420  H     0.28920   0.62303   0.95469   0.00000  Uiso   1.00
H1421  H     0.03892   0.47280   0.95670   0.00000  Uiso   1.00
H1422  H     0.05094   0.42312   0.98148   0.00000  Uiso   1.00
H1423  H     0.31534   0.42238   0.91388   0.00000  Uiso   1.00
H1424  H     0.03116   0.43196   0.87662   0.00000  Uiso   1.00
H1425  H     0.03281   0.38576   0.90993   0.00000  Uiso   1.00
H1426  H     0.25582   0.56972   0.78056   0.00000  Uiso   1.00
H1427  H     0.21766   0.59299   0.73368   0.00000  Uiso   1.00
H1428  H     0.08853   0.37312   0.84590   0.00000  Uiso   1.00
H1429  H     0.30134   0.62747   0.74592   0.00000  Uiso   1.00
H1430  H     0.00083   0.57859   0.74990   0.00000  Uiso   1.00
H1431  H     0.30371   0.59433   0.69459   0.00000  Uiso   1.00
H1432  H     0.17855   0.40224   0.72136   0.00000  Uiso   1.00
H1433  H     0.14625   0.39578   0.99684   0.00000  Uiso   1.00
H1434  H     0.09517   0.37296   0.74925   0.00000  Uiso   1.00
H1435  H     0.07505   0.35970   0.68890   0.00000  Uiso   1.00
H1436  H     0.13236   0.33736   0.71778   0.00000  Uiso   1.00
H1437  H     0.21764   0.60693   0.99602   0.00000  Uiso   1.00
H1438  H     0.17573   0.59632   0.94480   0.00000  Uiso   1.00
N1439  N     0.16668   0.50001   0.95069   0.00000  Uiso   1.00
N1440  N     0.16665   0.49999   0.71597   0.00000  Uiso   1.00
O1441  O     0.16666   0.43989   0.87291   0.00000  Uiso   1.00
O1442  O     0.23241   0.55154   0.96028   0.00000  Uiso   1.00
O1443  O     0.10647   0.44450   0.94115   0.00000  Uiso   1.00
O1444  O     0.24820   0.53338   0.72076   0.00000  Uiso   1.00
O1445  O     0.16667   0.56011   0.79375   0.00000  Uiso   1.00
O1446  O     0.16666   0.43988   0.79372   0.00000  Uiso   1.00
O1447  O     0.16667   0.56012   0.87294   0.00000  Uiso   1.00
O1448  O     0.09161   0.50000   0.86379   0.00000  Uiso   1.00
O1449  O     0.24172   0.50000   0.80288   0.00000  Uiso   1.00
O1450  O     0.09161   0.49999   0.78460   0.00000  Uiso   1.00
O1451  O     0.24172   0.50001   0.88207   0.00000  Uiso   1.00
O1452  O     0.11450   0.43953   0.70801   0.00000  Uiso   1.00
Br1453 Br    0.65490   0.46441   0.75893   0.00000  Uiso   1.00
Br1454 Br    0.34510   0.54018   0.90522   0.00000  Uiso   1.00
Br1455 Br    0.60656   0.38062   0.81355   0.00000  Uiso   1.00
Br1456 Br    0.39024   0.61976   0.84595   0.00000  Uiso   1.00
C1457  C     0.50061   0.42093   0.83286   0.00000  Uiso   1.00
C1458  C     0.45584   0.35578   0.84079   0.00000  Uiso   1.00
C1459  C     0.49850   0.62392   0.83426   0.00000  Uiso   1.00
C1460  C     0.50034   0.37639   0.83208   0.00000  Uiso   1.00
C1461  C     0.47126   0.47153   0.68746   0.00000  Uiso   1.00
C1462  C     0.53114   0.52676   0.97952   0.00000  Uiso   1.00
C1463  C     0.46855   0.47322   0.97055   0.00000  Uiso   1.00
C1464  C     0.53421   0.52442   0.69592   0.00000  Uiso   1.00
C1465  C     0.47363   0.40189   0.70056   0.00000  Uiso   1.00
C1466  C     0.44217   0.36573   0.71511   0.00000  Uiso   1.00
C1467  C     0.54929   0.59323   0.96059   0.00000  Uiso   1.00
C1468  C     0.49865   0.57916   0.83370   0.00000  Uiso   1.00
C1469  C     0.58425   0.61932   0.93442   0.00000  Uiso   1.00
C1470  C     0.38842   0.44182   0.95074   0.00000  Uiso   1.00
C1471  C     0.35660   0.41921   0.91021   0.00000  Uiso   1.00
C1472  C     0.58487   0.57324   0.74244   0.00000  Uiso   1.00
C1473  C     0.63390   0.59484   0.73245   0.00000  Uiso   1.00
C1474  C     0.40166   0.50028   0.82175   0.00000  Uiso   1.00
C1475  C     0.59834   0.50076   0.84480   0.00000  Uiso   1.00
C1476  C     0.34723   0.49542   0.81568   0.00000  Uiso   1.00
C1477  C     0.65254   0.50746   0.84999   0.00000  Uiso   1.00
C1478  C     0.54405   0.35423   0.82421   0.00000  Uiso   1.00
C1479  C     0.45430   0.64614   0.84085   0.00000  Uiso   1.00
C1480  C     0.54293   0.64476   0.82557   0.00000  Uiso   1.00
Cu1481 Cu    0.50000   0.50001   0.88022   0.00000  Uiso   1.00
Cu1482 Cu    0.50000   0.49999   0.78645   0.00000  Uiso   1.00
H1483  H     0.57728   0.62797   0.82098   0.00000  Uiso   1.00
H1484  H     0.58916   0.60390   0.90046   0.00000  Uiso   1.00
H1485  H     0.56778   0.65052   0.92859   0.00000  Uiso   1.00
H1486  H     0.62253   0.62303   0.95469   0.00000  Uiso   1.00
H1487  H     0.37225   0.47280   0.95670   0.00000  Uiso   1.00
H1488  H     0.38428   0.42312   0.98148   0.00000  Uiso   1.00
H1489  H     0.64867   0.42238   0.91388   0.00000  Uiso   1.00
H1490  H     0.36449   0.43196   0.87662   0.00000  Uiso   1.00
H1491  H     0.36614   0.38576   0.90993   0.00000  Uiso   1.00
H1492  H     0.58915   0.56972   0.78056   0.00000  Uiso   1.00
H1493  H     0.55100   0.59299   0.73368   0.00000  Uiso   1.00
H1494  H     0.42187   0.37312   0.84590   0.00000  Uiso   1.00
H1495  H     0.63467   0.62747   0.74592   0.00000  Uiso   1.00
H1496  H     0.33416   0.57859   0.74990   0.00000  Uiso   1.00
H1497  H     0.63704   0.59433   0.69459   0.00000  Uiso   1.00
H1498  H     0.51189   0.40224   0.72136   0.00000  Uiso   1.00
H1499  H     0.47959   0.39578   0.99684   0.00000  Uiso   1.00
H1500  H     0.42850   0.37296   0.74925   0.00000  Uiso   1.00
H1501  H     0.40839   0.35970   0.68890   0.00000  Uiso   1.00
H1502  H     0.46569   0.33736   0.71778   0.00000  Uiso   1.00
H1503  H     0.55097   0.60693   0.99602   0.00000  Uiso   1.00
H1504  H     0.50906   0.59632   0.94480   0.00000  Uiso   1.00
N1505  N     0.50001   0.50001   0.95069   0.00000  Uiso   1.00
N1506  N     0.49999   0.49999   0.71597   0.00000  Uiso   1.00
O1507  O     0.50000   0.43989   0.87291   0.00000  Uiso   1.00
O1508  O     0.56575   0.55154   0.96028   0.00000  Uiso   1.00
O1509  O     0.43980   0.44450   0.94115   0.00000  Uiso   1.00
O1510  O     0.58154   0.53338   0.72076   0.00000  Uiso   1.00
O1511  O     0.50000   0.56011   0.79375   0.00000  Uiso   1.00
O1512  O     0.50000   0.43988   0.79372   0.00000  Uiso   1.00
O1513  O     0.50000   0.56012   0.87294   0.00000  Uiso   1.00
O1514  O     0.42495   0.50000   0.86379   0.00000  Uiso   1.00
O1515  O     0.57505   0.50000   0.80288   0.00000  Uiso   1.00
O1516  O     0.42494   0.49999   0.78460   0.00000  Uiso   1.00
O1517  O     0.57506   0.50001   0.88207   0.00000  Uiso   1.00
O1518  O     0.44783   0.43953   0.70801   0.00000  Uiso   1.00
Br1519 Br    0.98824   0.46441   0.75893   0.00000  Uiso   1.00
Br1520 Br    0.67844   0.54018   0.90522   0.00000  Uiso   1.00
Br1521 Br    0.93989   0.38062   0.81355   0.00000  Uiso   1.00
Br1522 Br    0.72358   0.61976   0.84595   0.00000  Uiso   1.00
C1523  C     0.83394   0.42093   0.83286   0.00000  Uiso   1.00
C1524  C     0.78917   0.35578   0.84079   0.00000  Uiso   1.00
C1525  C     0.83184   0.62392   0.83426   0.00000  Uiso   1.00
C1526  C     0.83367   0.37639   0.83208   0.00000  Uiso   1.00
C1527  C     0.80459   0.47153   0.68746   0.00000  Uiso   1.00
C1528  C     0.86447   0.52676   0.97952   0.00000  Uiso   1.00
C1529  C     0.80189   0.47322   0.97055   0.00000  Uiso   1.00
C1530  C     0.86754   0.52442   0.69592   0.00000  Uiso   1.00
C1531  C     0.80697   0.40189   0.70056   0.00000  Uiso   1.00
C1532  C     0.77550   0.36573   0.71511   0.00000  Uiso   1.00
C1533  C     0.88262   0.59323   0.96059   0.00000  Uiso   1.00
C1534  C     0.83198   0.57916   0.83370   0.00000  Uiso   1.00
C1535  C     0.91759   0.61932   0.93442   0.00000  Uiso   1.00
C1536  C     0.72175   0.44182   0.95074   0.00000  Uiso   1.00
C1537  C     0.68994   0.41921   0.91021   0.00000  Uiso   1.00
C1538  C     0.91820   0.57324   0.74244   0.00000  Uiso   1.00
C1539  C     0.96724   0.59484   0.73245   0.00000  Uiso   1.00
C1540  C     0.73499   0.50028   0.82175   0.00000  Uiso   1.00
C1541  C     0.93168   0.50076   0.84480   0.00000  Uiso   1.00
C1542  C     0.68056   0.49542   0.81568   0.00000  Uiso   1.00
C1543  C     0.98588   0.50746   0.84999   0.00000  Uiso   1.00
C1544  C     0.87738   0.35423   0.82421   0.00000  Uiso   1.00
C1545  C     0.78764   0.64614   0.84085   0.00000  Uiso   1.00
C1546  C     0.87626   0.64476   0.82557   0.00000  Uiso   1.00
Cu1547 Cu    0.83333   0.50001   0.88022   0.00000  Uiso   1.00
Cu1548 Cu    0.83333   0.49999   0.78645   0.00000  Uiso   1.00
H1549  H     0.91062   0.62797   0.82098   0.00000  Uiso   1.00
H1550  H     0.92249   0.60390   0.90046   0.00000  Uiso   1.00
H1551  H     0.90112   0.65052   0.92859   0.00000  Uiso   1.00
H1552  H     0.95587   0.62303   0.95469   0.00000  Uiso   1.00
H1553  H     0.70559   0.47280   0.95670   0.00000  Uiso   1.00
H1554  H     0.71761   0.42312   0.98148   0.00000  Uiso   1.00
H1555  H     0.98201   0.42238   0.91388   0.00000  Uiso   1.00
H1556  H     0.69782   0.43196   0.87662   0.00000  Uiso   1.00
H1557  H     0.69947   0.38576   0.90993   0.00000  Uiso   1.00
H1558  H     0.92249   0.56972   0.78056   0.00000  Uiso   1.00
H1559  H     0.88433   0.59299   0.73368   0.00000  Uiso   1.00
H1560  H     0.75520   0.37312   0.84590   0.00000  Uiso   1.00
H1561  H     0.96800   0.62747   0.74592   0.00000  Uiso   1.00
H1562  H     0.66749   0.57859   0.74990   0.00000  Uiso   1.00
H1563  H     0.97038   0.59433   0.69459   0.00000  Uiso   1.00
H1564  H     0.84522   0.40224   0.72136   0.00000  Uiso   1.00
H1565  H     0.81292   0.39578   0.99684   0.00000  Uiso   1.00
H1566  H     0.76184   0.37296   0.74925   0.00000  Uiso   1.00
H1567  H     0.74172   0.35970   0.68890   0.00000  Uiso   1.00
H1568  H     0.79902   0.33736   0.71778   0.00000  Uiso   1.00
H1569  H     0.88431   0.60693   0.99602   0.00000  Uiso   1.00
H1570  H     0.84240   0.59632   0.94480   0.00000  Uiso   1.00
N1571  N     0.83335   0.50001   0.95069   0.00000  Uiso   1.00
N1572  N     0.83332   0.49999   0.71597   0.00000  Uiso   1.00
O1573  O     0.83333   0.43989   0.87291   0.00000  Uiso   1.00
O1574  O     0.89908   0.55154   0.96028   0.00000  Uiso   1.00
O1575  O     0.77313   0.44450   0.94115   0.00000  Uiso   1.00
O1576  O     0.91487   0.53338   0.72076   0.00000  Uiso   1.00
O1577  O     0.83334   0.56011   0.79375   0.00000  Uiso   1.00
O1578  O     0.83333   0.43988   0.79372   0.00000  Uiso   1.00
O1579  O     0.83334   0.56012   0.87294   0.00000  Uiso   1.00
O1580  O     0.75828   0.50000   0.86379   0.00000  Uiso   1.00
O1581  O     0.90839   0.50000   0.80288   0.00000  Uiso   1.00
O1582  O     0.75828   0.49999   0.78460   0.00000  Uiso   1.00
O1583  O     0.90839   0.50001   0.88207   0.00000  Uiso   1.00
O1584  O     0.78116   0.43953   0.70801   0.00000  Uiso   1.00
Br1585 Br    0.32157   0.79775   0.75893   0.00000  Uiso   1.00
Br1586 Br    0.01177   0.87351   0.90522   0.00000  Uiso   1.00
Br1587 Br    0.27323   0.71396   0.81355   0.00000  Uiso   1.00
Br1588 Br    0.05691   0.95309   0.84595   0.00000  Uiso   1.00
C1589  C     0.16727   0.75427   0.83286   0.00000  Uiso   1.00
C1590  C     0.12250   0.68911   0.84079   0.00000  Uiso   1.00
C1591  C     0.16517   0.95725   0.83426   0.00000  Uiso   1.00
C1592  C     0.16701   0.70973   0.83208   0.00000  Uiso   1.00
C1593  C     0.13793   0.80487   0.68746   0.00000  Uiso   1.00
C1594  C     0.19780   0.86010   0.97952   0.00000  Uiso   1.00
C1595  C     0.13522   0.80655   0.97055   0.00000  Uiso   1.00
C1596  C     0.20087   0.85776   0.69592   0.00000  Uiso   1.00
C1597  C     0.14030   0.73522   0.70056   0.00000  Uiso   1.00
C1598  C     0.10883   0.69906   0.71511   0.00000  Uiso   1.00
C1599  C     0.21596   0.92656   0.96059   0.00000  Uiso   1.00
C1600  C     0.16531   0.91249   0.83370   0.00000  Uiso   1.00
C1601  C     0.25092   0.95265   0.93442   0.00000  Uiso   1.00
C1602  C     0.05508   0.77515   0.95074   0.00000  Uiso   1.00
C1603  C     0.02327   0.75254   0.91021   0.00000  Uiso   1.00
C1604  C     0.25153   0.90658   0.74244   0.00000  Uiso   1.00
C1605  C     0.30057   0.92817   0.73245   0.00000  Uiso   1.00
C1606  C     0.06832   0.83361   0.82175   0.00000  Uiso   1.00
C1607  C     0.26501   0.83409   0.84480   0.00000  Uiso   1.00
C1608  C     0.01389   0.82875   0.81568   0.00000  Uiso   1.00
C1609  C     0.31921   0.84079   0.84999   0.00000  Uiso   1.00
C1610  C     0.21071   0.68757   0.82421   0.00000  Uiso   1.00
C1611  C     0.12097   0.97948   0.84085   0.00000  Uiso   1.00
C1612  C     0.20960   0.97809   0.82557   0.00000  Uiso   1.00
Cu1613 Cu    0.16667   0.83334   0.88022   0.00000  Uiso   1.00
Cu1614 Cu    0.16667   0.83333   0.78645   0.00000  Uiso   1.00
H1615  H     0.24395   0.96130   0.82098   0.00000  Uiso   1.00
H1616  H     0.25583   0.93724   0.90046   0.00000  Uiso   1.00
H1617  H     0.23445   0.98385   0.92859   0.00000  Uiso   1.00
H1618  H     0.28920   0.95637   0.95469   0.00000  Uiso   1.00
H1619  H     0.03892   0.80614   0.95670   0.00000  Uiso   1.00
H1620  H     0.05094   0.75646   0.98148   0.00000  Uiso   1.00
H1621  H     0.31534   0.75571   0.91388   0.00000  Uiso   1.00
H1622  H     0.03116   0.76529   0.87662   0.00000  Uiso   1.00
H1623  H     0.03281   0.71909   0.90993   0.00000  Uiso   1.00
H1624  H     0.25582   0.90305   0.78056   0.00000  Uiso   1.00
H1625  H     0.21766   0.92633   0.73368   0.00000  Uiso   1.00
H1626  H     0.08853   0.70646   0.84590   0.00000  Uiso   1.00
H1627  H     0.30134   0.96080   0.74592   0.00000  Uiso   1.00
H1628  H     0.00083   0.91192   0.74990   0.00000  Uiso   1.00
H1629  H     0.30371   0.92766   0.69459   0.00000  Uiso   1.00
H1630  H     0.17855   0.73557   0.72136   0.00000  Uiso   1.00
H1631  H     0.14625   0.72912   0.99684   0.00000  Uiso   1.00
H1632  H     0.09517   0.70629   0.74925   0.00000  Uiso   1.00
H1633  H     0.07505   0.69303   0.68890   0.00000  Uiso   1.00
H1634  H     0.13236   0.67069   0.71778   0.00000  Uiso   1.00
H1635  H     0.21764   0.94027   0.99602   0.00000  Uiso   1.00
H1636  H     0.17573   0.92966   0.94480   0.00000  Uiso   1.00
N1637  N     0.16668   0.83334   0.95069   0.00000  Uiso   1.00
N1638  N     0.16665   0.83332   0.71597   0.00000  Uiso   1.00
O1639  O     0.16666   0.77322   0.87291   0.00000  Uiso   1.00
O1640  O     0.23241   0.88488   0.96028   0.00000  Uiso   1.00
O1641  O     0.10647   0.77783   0.94115   0.00000  Uiso   1.00
O1642  O     0.24820   0.86671   0.72076   0.00000  Uiso   1.00
O1643  O     0.16667   0.89345   0.79375   0.00000  Uiso   1.00
O1644  O     0.16666   0.77321   0.79372   0.00000  Uiso   1.00
O1645  O     0.16667   0.89346   0.87294   0.00000  Uiso   1.00
O1646  O     0.09161   0.83334   0.86379   0.00000  Uiso   1.00
O1647  O     0.24172   0.83333   0.80288   0.00000  Uiso   1.00
O1648  O     0.09161   0.83333   0.78460   0.00000  Uiso   1.00
O1649  O     0.24172   0.83334   0.88207   0.00000  Uiso   1.00
O1650  O     0.11450   0.77286   0.70801   0.00000  Uiso   1.00
Br1651 Br    0.65490   0.79775   0.75893   0.00000  Uiso   1.00
Br1652 Br    0.34510   0.87351   0.90522   0.00000  Uiso   1.00
Br1653 Br    0.60656   0.71396   0.81355   0.00000  Uiso   1.00
Br1654 Br    0.39024   0.95309   0.84595   0.00000  Uiso   1.00
C1655  C     0.50061   0.75427   0.83286   0.00000  Uiso   1.00
C1656  C     0.45584   0.68911   0.84079   0.00000  Uiso   1.00
C1657  C     0.49850   0.95725   0.83426   0.00000  Uiso   1.00
C1658  C     0.50034   0.70973   0.83208   0.00000  Uiso   1.00
C1659  C     0.47126   0.80487   0.68746   0.00000  Uiso   1.00
C1660  C     0.53114   0.86010   0.97952   0.00000  Uiso   1.00
C1661  C     0.46855   0.80655   0.97055   0.00000  Uiso   1.00
C1662  C     0.53421   0.85776   0.69592   0.00000  Uiso   1.00
C1663  C     0.47363   0.73522   0.70056   0.00000  Uiso   1.00
C1664  C     0.44217   0.69906   0.71511   0.00000  Uiso   1.00
C1665  C     0.54929   0.92656   0.96059   0.00000  Uiso   1.00
C1666  C     0.49865   0.91249   0.83370   0.00000  Uiso   1.00
C1667  C     0.58425   0.95265   0.93442   0.00000  Uiso   1.00
C1668  C     0.38842   0.77515   0.95074   0.00000  Uiso   1.00
C1669  C     0.35660   0.75254   0.91021   0.00000  Uiso   1.00
C1670  C     0.58487   0.90658   0.74244   0.00000  Uiso   1.00
C1671  C     0.63390   0.92817   0.73245   0.00000  Uiso   1.00
C1672  C     0.40166   0.83361   0.82175   0.00000  Uiso   1.00
C1673  C     0.59834   0.83409   0.84480   0.00000  Uiso   1.00
C1674  C     0.34723   0.82875   0.81568   0.00000  Uiso   1.00
C1675  C     0.65254   0.84079   0.84999   0.00000  Uiso   1.00
C1676  C     0.54405   0.68757   0.82421   0.00000  Uiso   1.00
C1677  C     0.45430   0.97948   0.84085   0.00000  Uiso   1.00
C1678  C     0.54293   0.97809   0.82557   0.00000  Uiso   1.00
Cu1679 Cu    0.50000   0.83334   0.88022   0.00000  Uiso   1.00
Cu1680 Cu    0.50000   0.83333   0.78645   0.00000  Uiso   1.00
H1681  H     0.57728   0.96130   0.82098   0.00000  Uiso   1.00
H1682  H     0.58916   0.93724   0.90046   0.00000  Uiso   1.00
H1683  H     0.56778   0.98385   0.92859   0.00000  Uiso   1.00
H1684  H     0.62253   0.95637   0.95469   0.00000  Uiso   1.00
H1685  H     0.37225   0.80614   0.95670   0.00000  Uiso   1.00
H1686  H     0.38428   0.75646   0.98148   0.00000  Uiso   1.00
H1687  H     0.64867   0.75571   0.91388   0.00000  Uiso   1.00
H1688  H     0.36449   0.76529   0.87662   0.00000  Uiso   1.00
H1689  H     0.36614   0.71909   0.90993   0.00000  Uiso   1.00
H1690  H     0.58915   0.90305   0.78056   0.00000  Uiso   1.00
H1691  H     0.55100   0.92633   0.73368   0.00000  Uiso   1.00
H1692  H     0.42187   0.70646   0.84590   0.00000  Uiso   1.00
H1693  H     0.63467   0.96080   0.74592   0.00000  Uiso   1.00
H1694  H     0.33416   0.91192   0.74990   0.00000  Uiso   1.00
H1695  H     0.63704   0.92766   0.69459   0.00000  Uiso   1.00
H1696  H     0.51189   0.73557   0.72136   0.00000  Uiso   1.00
H1697  H     0.47959   0.72912   0.99684   0.00000  Uiso   1.00
H1698  H     0.42850   0.70629   0.74925   0.00000  Uiso   1.00
H1699  H     0.40839   0.69303   0.68890   0.00000  Uiso   1.00
H1700  H     0.46569   0.67069   0.71778   0.00000  Uiso   1.00
H1701  H     0.55097   0.94027   0.99602   0.00000  Uiso   1.00
H1702  H     0.50906   0.92966   0.94480   0.00000  Uiso   1.00
N1703  N     0.50001   0.83334   0.95069   0.00000  Uiso   1.00
N1704  N     0.49999   0.83332   0.71597   0.00000  Uiso   1.00
O1705  O     0.50000   0.77322   0.87291   0.00000  Uiso   1.00
O1706  O     0.56575   0.88488   0.96028   0.00000  Uiso   1.00
O1707  O     0.43980   0.77783   0.94115   0.00000  Uiso   1.00
O1708  O     0.58154   0.86671   0.72076   0.00000  Uiso   1.00
O1709  O     0.50000   0.89345   0.79375   0.00000  Uiso   1.00
O1710  O     0.50000   0.77321   0.79372   0.00000  Uiso   1.00
O1711  O     0.50000   0.89346   0.87294   0.00000  Uiso   1.00
O1712  O     0.42495   0.83334   0.86379   0.00000  Uiso   1.00
O1713  O     0.57505   0.83333   0.80288   0.00000  Uiso   1.00
O1714  O     0.42494   0.83333   0.78460   0.00000  Uiso   1.00
O1715  O     0.57506   0.83334   0.88207   0.00000  Uiso   1.00
O1716  O     0.44783   0.77286   0.70801   0.00000  Uiso   1.00
Br1717 Br    0.98824   0.79775   0.75893   0.00000  Uiso   1.00
Br1718 Br    0.67844   0.87351   0.90522   0.00000  Uiso   1.00
Br1719 Br    0.93989   0.71396   0.81355   0.00000  Uiso   1.00
Br1720 Br    0.72358   0.95309   0.84595   0.00000  Uiso   1.00
C1721  C     0.83394   0.75427   0.83286   0.00000  Uiso   1.00
C1722  C     0.78917   0.68911   0.84079   0.00000  Uiso   1.00
C1723  C     0.83184   0.95725   0.83426   0.00000  Uiso   1.00
C1724  C     0.83367   0.70973   0.83208   0.00000  Uiso   1.00
C1725  C     0.80459   0.80487   0.68746   0.00000  Uiso   1.00
C1726  C     0.86447   0.86010   0.97952   0.00000  Uiso   1.00
C1727  C     0.80189   0.80655   0.97055   0.00000  Uiso   1.00
C1728  C     0.86754   0.85776   0.69592   0.00000  Uiso   1.00
C1729  C     0.80697   0.73522   0.70056   0.00000  Uiso   1.00
C1730  C     0.77550   0.69906   0.71511   0.00000  Uiso   1.00
C1731  C     0.88262   0.92656   0.96059   0.00000  Uiso   1.00
C1732  C     0.83198   0.91249   0.83370   0.00000  Uiso   1.00
C1733  C     0.91759   0.95265   0.93442   0.00000  Uiso   1.00
C1734  C     0.72175   0.77515   0.95074   0.00000  Uiso   1.00
C1735  C     0.68994   0.75254   0.91021   0.00000  Uiso   1.00
C1736  C     0.91820   0.90658   0.74244   0.00000  Uiso   1.00
C1737  C     0.96724   0.92817   0.73245   0.00000  Uiso   1.00
C1738  C     0.73499   0.83361   0.82175   0.00000  Uiso   1.00
C1739  C     0.93168   0.83409   0.84480   0.00000  Uiso   1.00
C1740  C     0.68056   0.82875   0.81568   0.00000  Uiso   1.00
C1741  C     0.98588   0.84079   0.84999   0.00000  Uiso   1.00
C1742  C     0.87738   0.68757   0.82421   0.00000  Uiso   1.00
C1743  C     0.78764   0.97948   0.84085   0.00000  Uiso   1.00
C1744  C     0.87626   0.97809   0.82557   0.00000  Uiso   1.00
Cu1745 Cu    0.83333   0.83334   0.88022   0.00000  Uiso   1.00
Cu1746 Cu    0.83333   0.83333   0.78645   0.00000  Uiso   1.00
H1747  H     0.91062   0.96130   0.82098   0.00000  Uiso   1.00
H1748  H     0.92249   0.93724   0.90046   0.00000  Uiso   1.00
H1749  H     0.90112   0.98385   0.92859   0.00000  Uiso   1.00
H1750  H     0.95587   0.95637   0.95469   0.00000  Uiso   1.00
H1751  H     0.70559   0.80614   0.95670   0.00000  Uiso   1.00
H1752  H     0.71761   0.75646   0.98148   0.00000  Uiso   1.00
H1753  H     0.98201   0.75571   0.91388   0.00000  Uiso   1.00
H1754  H     0.69782   0.76529   0.87662   0.00000  Uiso   1.00
H1755  H     0.69947   0.71909   0.90993   0.00000  Uiso   1.00
H1756  H     0.92249   0.90305   0.78056   0.00000  Uiso   1.00
H1757  H     0.88433   0.92633   0.73368   0.00000  Uiso   1.00
H1758  H     0.75520   0.70646   0.84590   0.00000  Uiso   1.00
H1759  H     0.96800   0.96080   0.74592   0.00000  Uiso   1.00
H1760  H     0.66749   0.91192   0.74990   0.00000  Uiso   1.00
H1761  H     0.97038   0.92766   0.69459   0.00000  Uiso   1.00
H1762  H     0.84522   0.73557   0.72136   0.00000  Uiso   1.00
H1763  H     0.81292   0.72912   0.99684   0.00000  Uiso   1.00
H1764  H     0.76184   0.70629   0.74925   0.00000  Uiso   1.00
H1765  H     0.74172   0.69303   0.68890   0.00000  Uiso   1.00
H1766  H     0.79902   0.67069   0.71778   0.00000  Uiso   1.00
H1767  H     0.88431   0.94027   0.99602   0.00000  Uiso   1.00
H1768  H     0.84240   0.92966   0.94480   0.00000  Uiso   1.00
N1769  N     0.83335   0.83334   0.95069   0.00000  Uiso   1.00
N1770  N     0.83332   0.83332   0.71597   0.00000  Uiso   1.00
O1771  O     0.83333   0.77322   0.87291   0.00000  Uiso   1.00
O1772  O     0.89908   0.88488   0.96028   0.00000  Uiso   1.00
O1773  O     0.77313   0.77783   0.94115   0.00000  Uiso   1.00
O1774  O     0.91487   0.86671   0.72076   0.00000  Uiso   1.00
O1775  O     0.83334   0.89345   0.79375   0.00000  Uiso   1.00
O1776  O     0.83333   0.77321   0.79372   0.00000  Uiso   1.00
O1777  O     0.83334   0.89346   0.87294   0.00000  Uiso   1.00
O1778  O     0.75828   0.83334   0.86379   0.00000  Uiso   1.00
O1779  O     0.90839   0.83333   0.80288   0.00000  Uiso   1.00
O1780  O     0.75828   0.83333   0.78460   0.00000  Uiso   1.00
O1781  O     0.90839   0.83334   0.88207   0.00000  Uiso   1.00
O1782  O     0.78116   0.77286   0.70801   0.00000  Uiso   1.00
loop_
_geom_bond_atom_site_label_1
_geom_bond_atom_site_label_2
_geom_bond_distance
_geom_bond_site_symmetry_2
_ccdc_geom_bond_type
Br1    C90     1.941   .     S
Br2    C157    1.936   1_455 S
Br3    C26     1.909   .     S
Br4    C27     1.907   .     S
C5     C8      1.437   .     S
C5     O60     1.300   .     A
C5     O55     1.293   .     A
C6     C8      1.395   .     A
C6     H42     1.083   .     S
C6     C423    1.387   1_545 S
C7     C27     1.403   .     A
C7     C16     1.444   .     S
C7     C28     1.397   .     A
C8     C26     1.400   .     A
C9     O66     1.383   .     S
C9     N54     1.374   .     A
C9     C1199   1.447   1_554 S
C10    O56     1.383   .     S
C10    N53     1.375   .     A
C10    C606    1.433   .     S
C11    N53     1.376   .     A
C11    O57     1.393   .     S
C11    C603    1.447   .     S
C12    O58     1.387   .     S
C12    N54     1.381   .     A
C12    C1198   1.433   1_554 S
C13    O66     1.421   .     S
C13    H46     1.111   .     S
C13    C14     1.523   .     S
C13    H1235   1.111   1_554 S
C14    H50     1.111   .     S
C14    H49     1.110   .     S
C14    H48     1.108   .     S
C15    C17     1.522   .     S
C15    O56     1.418   .     S
C15    H52     1.111   .     S
C15    H51     1.097   .     S
C16    O61     1.303   .     A
C16    O59     1.294   .     A
C17    H33     1.111   .     S
C17    H34     1.109   .     S
C17    H32     1.107   .     S
C18    H35     1.108   .     S
C18    O57     1.416   .     S
C18    C19     1.520   .     S
C18    H36     1.104   .     S
C19    H38     1.106   .     S
C19    H39     1.111   .     S
C19    H169    1.111   1_455 S
C20    H41     1.112   .     S
C20    C21     1.524   .     S
C20    H40     1.103   .     S
C20    O58     1.411   .     S
C21    H45     1.105   .     S
C21    H43     1.110   .     S
C21    H110    1.111   .     S
C22    O64     1.297   .     A
C22    O62     1.295   .     A
C22    C24     1.431   .     S
C23    O65     1.301   .     A
C23    O63     1.291   .     A
C23    C25     1.433   .     S
C24    Br133   1.941   1_455 S
C24    C157    1.353   1_455 S
C25    C90     1.353   .     S
C25    Br68    1.936   .     S
C26    C424    1.384   1_545 S
C27    C204    1.387   .     S
C28    H31     1.079   .     S
C28    C224    1.384   .     S
Cu29   Cu30    2.707   .     S
Cu29   O65     1.973   .     S
Cu29   O61     1.958   .     S
Cu29   O62     1.980   .     S
Cu29   O55     1.945   .     S
Cu29   N53     2.035   .     S
Cu30   O64     1.973   .     S
Cu30   O63     1.980   .     S
Cu30   N54     2.035   .     S
Cu30   O59     1.945   .     S
Cu30   O60     1.958   .     S
H37    C85     1.111   .     S
H44    C153    1.111   1_455 S
H47    C607    1.111   .     S
Br67   C156    1.941   .     S
Br69   C92     1.909   .     S
Br70   C93     1.907   .     S
C71    C74     1.437   .     S
C71    O126    1.300   .     A
C71    O121    1.293   .     A
C72    C74     1.395   .     A
C72    H108    1.083   .     S
C72    C489    1.387   1_545 S
C73    C93     1.403   .     A
C73    C82     1.444   .     S
C73    C94     1.397   .     A
C74    C92     1.400   .     A
C75    O132    1.383   .     S
C75    N120    1.374   .     A
C75    C1265   1.447   1_554 S
C76    O122    1.383   .     S
C76    N119    1.375   .     A
C76    C672    1.433   .     S
C77    N119    1.376   .     A
C77    O123    1.393   .     S
C77    C669    1.447   .     S
C78    O124    1.387   .     S
C78    N120    1.381   .     A
C78    C1264   1.433   1_554 S
C79    O132    1.421   .     S
C79    H112    1.111   .     S
C79    C80     1.523   .     S
C79    H1301   1.111   1_554 S
C80    H116    1.111   .     S
C80    H115    1.110   .     S
C80    H114    1.108   .     S
C81    C83     1.522   .     S
C81    O122    1.418   .     S
C81    H118    1.111   .     S
C81    H117    1.097   .     S
C82    O127    1.303   .     A
C82    O125    1.294   .     A
C83    H99     1.111   .     S
C83    H100    1.109   .     S
C83    H98     1.107   .     S
C84    H101    1.108   .     S
C84    O123    1.416   .     S
C84    C85     1.520   .     S
C84    H102    1.104   .     S
C85    H104    1.106   .     S
C85    H105    1.111   .     S
C86    H107    1.112   .     S
C86    C87     1.524   .     S
C86    H106    1.103   .     S
C86    O124    1.411   .     S
C87    H111    1.105   .     S
C87    H109    1.110   .     S
C87    H176    1.111   .     S
C88    O130    1.297   .     A
C88    O128    1.295   .     A
C88    C90     1.431   .     S
C89    O131    1.301   .     A
C89    O129    1.291   .     A
C89    C91     1.433   .     S
C91    C156    1.353   .     S
C91    Br134   1.936   .     S
C92    C490    1.384   1_545 S
C93    C270    1.387   .     S
C94    H97     1.079   .     S
C94    C290    1.384   .     S
Cu95   Cu96    2.707   .     S
Cu95   O131    1.973   .     S
Cu95   O127    1.958   .     S
Cu95   O128    1.980   .     S
Cu95   O121    1.945   .     S
Cu95   N119    2.035   .     S
Cu96   O130    1.973   .     S
Cu96   O129    1.980   .     S
Cu96   N120    2.035   .     S
Cu96   O125    1.945   .     S
Cu96   O126    1.958   .     S
H103   C151    1.111   .     S
H113   C673    1.111   .     S
Br133  C24     1.941   1_655 S
Br135  C158    1.909   .     S
Br136  C159    1.907   .     S
C137   C140    1.437   .     S
C137   O192    1.300   .     A
C137   O187    1.293   .     A
C138   C140    1.395   .     A
C138   H174    1.083   .     S
C138   C555    1.387   1_545 S
C139   C159    1.403   .     A
C139   C148    1.444   .     S
C139   C160    1.397   .     A
C140   C158    1.400   .     A
C141   O198    1.383   .     S
C141   N186    1.374   .     A
C141   C1331   1.447   1_554 S
C142   O188    1.383   .     S
C142   N185    1.375   .     A
C142   C738    1.433   .     S
C143   N185    1.376   .     A
C143   O189    1.393   .     S
C143   C735    1.447   .     S
C144   O190    1.387   .     S
C144   N186    1.381   .     A
C144   C1330   1.433   1_554 S
C145   O198    1.421   .     S
C145   H178    1.111   .     S
C145   C146    1.523   .     S
C145   H1367   1.111   1_554 S
C146   H182    1.111   .     S
C146   H181    1.110   .     S
C146   H180    1.108   .     S
C147   C149    1.522   .     S
C147   O188    1.418   .     S
C147   H184    1.111   .     S
C147   H183    1.097   .     S
C148   O193    1.303   .     A
C148   O191    1.294   .     A
C149   H165    1.111   .     S
C149   H166    1.109   .     S
C149   H164    1.107   .     S
C150   H167    1.108   .     S
C150   O189    1.416   .     S
C150   C151    1.520   .     S
C150   H168    1.104   .     S
C151   H170    1.106   .     S
C151   H171    1.111   .     S
C152   H173    1.112   .     S
C152   C153    1.524   .     S
C152   H172    1.103   .     S
C152   O190    1.411   .     S
C153   H177    1.105   .     S
C153   H175    1.110   .     S
C153   H44     1.111   1_655 S
C154   O196    1.297   .     A
C154   O194    1.295   .     A
C154   C156    1.431   .     S
C155   O197    1.301   .     A
C155   O195    1.291   .     A
C155   C157    1.433   .     S
C157   C24     1.353   1_655 S
C157   Br2     1.936   1_655 S
C158   C556    1.384   1_545 S
C159   C336    1.387   .     S
C160   H163    1.079   .     S
C160   C356    1.384   .     S
Cu161  Cu162   2.707   .     S
Cu161  O197    1.973   .     S
Cu161  O193    1.958   .     S
Cu161  O194    1.980   .     S
Cu161  O187    1.945   .     S
Cu161  N185    2.035   .     S
Cu162  O196    1.973   .     S
Cu162  O195    1.980   .     S
Cu162  N186    2.035   .     S
Cu162  O191    1.945   .     S
Cu162  O192    1.958   .     S
H169   C19     1.111   1_655 S
H179   C739    1.111   .     S
Br199  C288    1.941   .     S
Br200  C355    1.936   1_455 S
Br201  C224    1.909   .     S
Br202  C225    1.907   .     S
C203   C206    1.437   .     S
C203   O258    1.300   .     A
C203   O253    1.293   .     A
C204   C206    1.395   .     A
C204   H240    1.083   .     S
C205   C225    1.403   .     A
C205   C214    1.444   .     S
C205   C226    1.397   .     A
C206   C224    1.400   .     A
C207   O264    1.383   .     S
C207   N252    1.374   .     A
C207   C1397   1.447   1_554 S
C208   O254    1.383   .     S
C208   N251    1.375   .     A
C208   C804    1.433   .     S
C209   N251    1.376   .     A
C209   O255    1.393   .     S
C209   C801    1.447   .     S
C210   O256    1.387   .     S
C210   N252    1.381   .     A
C210   C1396   1.433   1_554 S
C211   O264    1.421   .     S
C211   H244    1.111   .     S
C211   C212    1.523   .     S
C211   H1433   1.111   1_554 S
C212   H248    1.111   .     S
C212   H247    1.110   .     S
C212   H246    1.108   .     S
C213   C215    1.522   .     S
C213   O254    1.418   .     S
C213   H250    1.111   .     S
C213   H249    1.097   .     S
C214   O259    1.303   .     A
C214   O257    1.294   .     A
C215   H231    1.111   .     S
C215   H232    1.109   .     S
C215   H230    1.107   .     S
C216   H233    1.108   .     S
C216   O255    1.416   .     S
C216   C217    1.520   .     S
C216   H234    1.104   .     S
C217   H236    1.106   .     S
C217   H237    1.111   .     S
C217   H367    1.111   1_455 S
C218   H239    1.112   .     S
C218   C219    1.524   .     S
C218   H238    1.103   .     S
C218   O256    1.411   .     S
C219   H243    1.105   .     S
C219   H241    1.110   .     S
C219   H308    1.111   .     S
C220   O262    1.297   .     A
C220   O260    1.295   .     A
C220   C222    1.431   .     S
C221   O263    1.301   .     A
C221   O261    1.291   .     A
C221   C223    1.433   .     S
C222   Br331   1.941   1_455 S
C222   C355    1.353   1_455 S
C223   C288    1.353   .     S
C223   Br266   1.936   .     S
C225   C402    1.387   .     S
C226   H229    1.079   .     S
C226   C422    1.384   .     S
Cu227  Cu228   2.707   .     S
Cu227  O263    1.973   .     S
Cu227  O259    1.958   .     S
Cu227  O260    1.980   .     S
Cu227  O253    1.945   .     S
Cu227  N251    2.035   .     S
Cu228  O262    1.973   .     S
Cu228  O261    1.980   .     S
Cu228  N252    2.035   .     S
Cu228  O257    1.945   .     S
Cu228  O258    1.958   .     S
H235   C283    1.111   .     S
H242   C351    1.111   1_455 S
H245   C805    1.111   .     S
Br265  C354    1.941   .     S
Br267  C290    1.909   .     S
Br268  C291    1.907   .     S
C269   C272    1.437   .     S
C269   O324    1.300   .     A
C269   O319    1.293   .     A
C270   C272    1.395   .     A
C270   H306    1.083   .     S
C271   C291    1.403   .     A
C271   C280    1.444   .     S
C271   C292    1.397   .     A
C272   C290    1.400   .     A
C273   O330    1.383   .     S
C273   N318    1.374   .     A
C273   C1463   1.447   1_554 S
C274   O320    1.383   .     S
C274   N317    1.375   .     A
C274   C870    1.433   .     S
C275   N317    1.376   .     A
C275   O321    1.393   .     S
C275   C867    1.447   .     S
C276   O322    1.387   .     S
C276   N318    1.381   .     A
C276   C1462   1.433   1_554 S
C277   O330    1.421   .     S
C277   H310    1.111   .     S
C277   C278    1.523   .     S
C277   H1499   1.111   1_554 S
C278   H314    1.111   .     S
C278   H313    1.110   .     S
C278   H312    1.108   .     S
C279   C281    1.522   .     S
C279   O320    1.418   .     S
C279   H316    1.111   .     S
C279   H315    1.097   .     S
C280   O325    1.303   .     A
C280   O323    1.294   .     A
C281   H297    1.111   .     S
C281   H298    1.109   .     S
C281   H296    1.107   .     S
C282   H299    1.108   .     S
C282   O321    1.416   .     S
C282   C283    1.520   .     S
C282   H300    1.104   .     S
C283   H302    1.106   .     S
C283   H303    1.111   .     S
C284   H305    1.112   .     S
C284   C285    1.524   .     S
C284   H304    1.103   .     S
C284   O322    1.411   .     S
C285   H309    1.105   .     S
C285   H307    1.110   .     S
C285   H374    1.111   .     S
C286   O328    1.297   .     A
C286   O326    1.295   .     A
C286   C288    1.431   .     S
C287   O329    1.301   .     A
C287   O327    1.291   .     A
C287   C289    1.433   .     S
C289   C354    1.353   .     S
C289   Br332   1.936   .     S
C291   C468    1.387   .     S
C292   H295    1.079   .     S
C292   C488    1.384   .     S
Cu293  Cu294   2.707   .     S
Cu293  O329    1.973   .     S
Cu293  O325    1.958   .     S
Cu293  O326    1.980   .     S
Cu293  O319    1.945   .     S
Cu293  N317    2.035   .     S
Cu294  O328    1.973   .     S
Cu294  O327    1.980   .     S
Cu294  N318    2.035   .     S
Cu294  O323    1.945   .     S
Cu294  O324    1.958   .     S
H301   C349    1.111   .     S
H311   C871    1.111   .     S
Br331  C222    1.941   1_655 S
Br333  C356    1.909   .     S
Br334  C357    1.907   .     S
C335   C338    1.437   .     S
C335   O390    1.300   .     A
C335   O385    1.293   .     A
C336   C338    1.395   .     A
C336   H372    1.083   .     S
C337   C357    1.403   .     A
C337   C346    1.444   .     S
C337   C358    1.397   .     A
C338   C356    1.400   .     A
C339   O396    1.383   .     S
C339   N384    1.374   .     A
C339   C1529   1.447   1_554 S
C340   O386    1.383   .     S
C340   N383    1.375   .     A
C340   C936    1.433   .     S
C341   N383    1.376   .     A
C341   O387    1.393   .     S
C341   C933    1.447   .     S
C342   O388    1.387   .     S
C342   N384    1.381   .     A
C342   C1528   1.433   1_554 S
C343   O396    1.421   .     S
C343   H376    1.111   .     S
C343   C344    1.523   .     S
C343   H1565   1.111   1_554 S
C344   H380    1.111   .     S
C344   H379    1.110   .     S
C344   H378    1.108   .     S
C345   C347    1.522   .     S
C345   O386    1.418   .     S
C345   H382    1.111   .     S
C345   H381    1.097   .     S
C346   O391    1.303   .     A
C346   O389    1.294   .     A
C347   H363    1.111   .     S
C347   H364    1.109   .     S
C347   H362    1.107   .     S
C348   H365    1.108   .     S
C348   O387    1.416   .     S
C348   C349    1.520   .     S
C348   H366    1.104   .     S
C349   H368    1.106   .     S
C349   H369    1.111   .     S
C350   H371    1.112   .     S
C350   C351    1.524   .     S
C350   H370    1.103   .     S
C350   O388    1.411   .     S
C351   H375    1.105   .     S
C351   H373    1.110   .     S
C351   H242    1.111   1_655 S
C352   O394    1.297   .     A
C352   O392    1.295   .     A
C352   C354    1.431   .     S
C353   O395    1.301   .     A
C353   O393    1.291   .     A
C353   C355    1.433   .     S
C355   C222    1.353   1_655 S
C355   Br200   1.936   1_655 S
C357   C534    1.387   .     S
C358   H361    1.079   .     S
C358   C554    1.384   .     S
Cu359  Cu360   2.707   .     S
Cu359  O395    1.973   .     S
Cu359  O391    1.958   .     S
Cu359  O392    1.980   .     S
Cu359  O385    1.945   .     S
Cu359  N383    2.035   .     S
Cu360  O394    1.973   .     S
Cu360  O393    1.980   .     S
Cu360  N384    2.035   .     S
Cu360  O389    1.945   .     S
Cu360  O390    1.958   .     S
H367   C217    1.111   1_655 S
H377   C937    1.111   .     S
Br397  C486    1.941   .     S
Br398  C553    1.936   1_455 S
Br399  C422    1.909   .     S
Br400  C423    1.907   .     S
C401   C404    1.437   .     S
C401   O456    1.300   .     A
C401   O451    1.293   .     A
C402   C404    1.395   .     A
C402   H438    1.083   .     S
C403   C423    1.403   .     A
C403   C412    1.444   .     S
C403   C424    1.397   .     A
C404   C422    1.400   .     A
C405   O462    1.383   .     S
C405   N450    1.374   .     A
C405   C1595   1.447   1_554 S
C406   O452    1.383   .     S
C406   N449    1.375   .     A
C406   C1002   1.433   .     S
C407   N449    1.376   .     A
C407   O453    1.393   .     S
C407   C999    1.447   .     S
C408   O454    1.387   .     S
C408   N450    1.381   .     A
C408   C1594   1.433   1_554 S
C409   O462    1.421   .     S
C409   H442    1.111   .     S
C409   C410    1.523   .     S
C409   H1631   1.111   1_554 S
C410   H446    1.111   .     S
C410   H445    1.110   .     S
C410   H444    1.108   .     S
C411   C413    1.522   .     S
C411   O452    1.418   .     S
C411   H448    1.111   .     S
C411   H447    1.097   .     S
C412   O457    1.303   .     A
C412   O455    1.294   .     A
C413   H429    1.111   .     S
C413   H430    1.109   .     S
C413   H428    1.107   .     S
C414   H431    1.108   .     S
C414   O453    1.416   .     S
C414   C415    1.520   .     S
C414   H432    1.104   .     S
C415   H434    1.106   .     S
C415   H435    1.111   .     S
C415   H565    1.111   1_455 S
C416   H437    1.112   .     S
C416   C417    1.524   .     S
C416   H436    1.103   .     S
C416   O454    1.411   .     S
C417   H441    1.105   .     S
C417   H439    1.110   .     S
C417   H506    1.111   .     S
C418   O460    1.297   .     A
C418   O458    1.295   .     A
C418   C420    1.431   .     S
C419   O461    1.301   .     A
C419   O459    1.291   .     A
C419   C421    1.433   .     S
C420   Br529   1.941   1_455 S
C420   C553    1.353   1_455 S
C421   C486    1.353   .     S
C421   Br464   1.936   .     S
C423   C6      1.387   1_565 S
C424   H427    1.079   .     S
C424   C26     1.384   1_565 S
Cu425  Cu426   2.707   .     S
Cu425  O461    1.973   .     S
Cu425  O457    1.958   .     S
Cu425  O458    1.980   .     S
Cu425  O451    1.945   .     S
Cu425  N449    2.035   .     S
Cu426  O460    1.973   .     S
Cu426  O459    1.980   .     S
Cu426  N450    2.035   .     S
Cu426  O455    1.945   .     S
Cu426  O456    1.958   .     S
H433   C481    1.111   .     S
H440   C549    1.111   1_455 S
H443   C1003   1.111   .     S
Br463  C552    1.941   .     S
Br465  C488    1.909   .     S
Br466  C489    1.907   .     S
C467   C470    1.437   .     S
C467   O522    1.300   .     A
C467   O517    1.293   .     A
C468   C470    1.395   .     A
C468   H504    1.083   .     S
C469   C489    1.403   .     A
C469   C478    1.444   .     S
C469   C490    1.397   .     A
C470   C488    1.400   .     A
C471   O528    1.383   .     S
C471   N516    1.374   .     A
C471   C1661   1.447   1_554 S
C472   O518    1.383   .     S
C472   N515    1.375   .     A
C472   C1068   1.433   .     S
C473   N515    1.376   .     A
C473   O519    1.393   .     S
C473   C1065   1.447   .     S
C474   O520    1.387   .     S
C474   N516    1.381   .     A
C474   C1660   1.433   1_554 S
C475   O528    1.421   .     S
C475   H508    1.111   .     S
C475   C476    1.523   .     S
C475   H1697   1.111   1_554 S
C476   H512    1.111   .     S
C476   H511    1.110   .     S
C476   H510    1.108   .     S
C477   C479    1.522   .     S
C477   O518    1.418   .     S
C477   H514    1.111   .     S
C477   H513    1.097   .     S
C478   O523    1.303   .     A
C478   O521    1.294   .     A
C479   H495    1.111   .     S
C479   H496    1.109   .     S
C479   H494    1.107   .     S
C480   H497    1.108   .     S
C480   O519    1.416   .     S
C480   C481    1.520   .     S
C480   H498    1.104   .     S
C481   H500    1.106   .     S
C481   H501    1.111   .     S
C482   H503    1.112   .     S
C482   C483    1.524   .     S
C482   H502    1.103   .     S
C482   O520    1.411   .     S
C483   H507    1.105   .     S
C483   H505    1.110   .     S
C483   H572    1.111   .     S
C484   O526    1.297   .     A
C484   O524    1.295   .     A
C484   C486    1.431   .     S
C485   O527    1.301   .     A
C485   O525    1.291   .     A
C485   C487    1.433   .     S
C487   C552    1.353   .     S
C487   Br530   1.936   .     S
C489   C72     1.387   1_565 S
C490   H493    1.079   .     S
C490   C92     1.384   1_565 S
Cu491  Cu492   2.707   .     S
Cu491  O527    1.973   .     S
Cu491  O523    1.958   .     S
Cu491  O524    1.980   .     S
Cu491  O517    1.945   .     S
Cu491  N515    2.035   .     S
Cu492  O526    1.973   .     S
Cu492  O525    1.980   .     S
Cu492  N516    2.035   .     S
Cu492  O521    1.945   .     S
Cu492  O522    1.958   .     S
H499   C547    1.111   .     S
H509   C1069   1.111   .     S
Br529  C420    1.941   1_655 S
Br531  C554    1.909   .     S
Br532  C555    1.907   .     S
C533   C536    1.437   .     S
C533   O588    1.300   .     A
C533   O583    1.293   .     A
C534   C536    1.395   .     A
C534   H570    1.083   .     S
C535   C555    1.403   .     A
C535   C544    1.444   .     S
C535   C556    1.397   .     A
C536   C554    1.400   .     A
C537   O594    1.383   .     S
C537   N582    1.374   .     A
C537   C1727   1.447   1_554 S
C538   O584    1.383   .     S
C538   N581    1.375   .     A
C538   C1134   1.433   .     S
C539   N581    1.376   .     A
C539   O585    1.393   .     S
C539   C1131   1.447   .     S
C540   O586    1.387   .     S
C540   N582    1.381   .     A
C540   C1726   1.433   1_554 S
C541   O594    1.421   .     S
C541   H574    1.111   .     S
C541   C542    1.523   .     S
C541   H1763   1.111   1_554 S
C542   H578    1.111   .     S
C542   H577    1.110   .     S
C542   H576    1.108   .     S
C543   C545    1.522   .     S
C543   O584    1.418   .     S
C543   H580    1.111   .     S
C543   H579    1.097   .     S
C544   O589    1.303   .     A
C544   O587    1.294   .     A
C545   H561    1.111   .     S
C545   H562    1.109   .     S
C545   H560    1.107   .     S
C546   H563    1.108   .     S
C546   O585    1.416   .     S
C546   C547    1.520   .     S
C546   H564    1.104   .     S
C547   H566    1.106   .     S
C547   H567    1.111   .     S
C548   H569    1.112   .     S
C548   C549    1.524   .     S
C548   H568    1.103   .     S
C548   O586    1.411   .     S
C549   H573    1.105   .     S
C549   H571    1.110   .     S
C549   H440    1.111   1_655 S
C550   O592    1.297   .     A
C550   O590    1.295   .     A
C550   C552    1.431   .     S
C551   O593    1.301   .     A
C551   O591    1.291   .     A
C551   C553    1.433   .     S
C553   C420    1.353   1_655 S
C553   Br398   1.936   1_655 S
C555   C138    1.387   1_565 S
C556   H559    1.079   .     S
C556   C158    1.384   1_565 S
Cu557  Cu558   2.707   .     S
Cu557  O593    1.973   .     S
Cu557  O589    1.958   .     S
Cu557  O590    1.980   .     S
Cu557  O583    1.945   .     S
Cu557  N581    2.035   .     S
Cu558  O592    1.973   .     S
Cu558  O591    1.980   .     S
Cu558  N582    2.035   .     S
Cu558  O587    1.945   .     S
Cu558  O588    1.958   .     S
H565   C415    1.111   1_655 S
H575   C1135   1.111   .     S
Br595  C684    1.941   .     S
Br596  C751    1.936   1_455 S
Br597  C620    1.909   .     S
Br598  C621    1.907   .     S
C599   C602    1.437   .     S
C599   O654    1.300   .     A
C599   O649    1.293   .     A
C600   C602    1.395   .     A
C600   H636    1.083   .     S
C600   C1017   1.387   1_545 S
C601   C621    1.403   .     A
C601   C610    1.444   .     S
C601   C622    1.397   .     A
C602   C620    1.400   .     A
C603   O660    1.383   .     S
C603   N648    1.374   .     A
C604   O650    1.383   .     S
C604   N647    1.375   .     A
C604   C1200   1.433   .     S
C605   N647    1.376   .     A
C605   O651    1.393   .     S
C605   C1197   1.447   .     S
C606   O652    1.387   .     S
C606   N648    1.381   .     A
C607   O660    1.421   .     S
C607   H640    1.111   .     S
C607   C608    1.523   .     S
C608   H644    1.111   .     S
C608   H643    1.110   .     S
C608   H642    1.108   .     S
C609   C611    1.522   .     S
C609   O650    1.418   .     S
C609   H646    1.111   .     S
C609   H645    1.097   .     S
C610   O655    1.303   .     A
C610   O653    1.294   .     A
C611   H627    1.111   .     S
C611   H628    1.109   .     S
C611   H626    1.107   .     S
C612   H629    1.108   .     S
C612   O651    1.416   .     S
C612   C613    1.520   .     S
C612   H630    1.104   .     S
C613   H632    1.106   .     S
C613   H633    1.111   .     S
C613   H763    1.111   1_455 S
C614   H635    1.112   .     S
C614   C615    1.524   .     S
C614   H634    1.103   .     S
C614   O652    1.411   .     S
C615   H639    1.105   .     S
C615   H637    1.110   .     S
C615   H704    1.111   .     S
C616   O658    1.297   .     A
C616   O656    1.295   .     A
C616   C618    1.431   .     S
C617   O659    1.301   .     A
C617   O657    1.291   .     A
C617   C619    1.433   .     S
C618   Br727   1.941   1_455 S
C618   C751    1.353   1_455 S
C619   C684    1.353   .     S
C619   Br662   1.936   .     S
C620   C1018   1.384   1_545 S
C621   C798    1.387   .     S
C622   H625    1.079   .     S
C622   C818    1.384   .     S
Cu623  Cu624   2.707   .     S
Cu623  O659    1.973   .     S
Cu623  O655    1.958   .     S
Cu623  O656    1.980   .     S
Cu623  O649    1.945   .     S
Cu623  N647    2.035   .     S
Cu624  O658    1.973   .     S
Cu624  O657    1.980   .     S
Cu624  N648    2.035   .     S
Cu624  O653    1.945   .     S
Cu624  O654    1.958   .     S
H631   C679    1.111   .     S
H638   C747    1.111   1_455 S
H641   C1201   1.111   .     S
Br661  C750    1.941   .     S
Br663  C686    1.909   .     S
Br664  C687    1.907   .     S
C665   C668    1.437   .     S
C665   O720    1.300   .     A
C665   O715    1.293   .     A
C666   C668    1.395   .     A
C666   H702    1.083   .     S
C666   C1083   1.387   1_545 S
C667   C687    1.403   .     A
C667   C676    1.444   .     S
C667   C688    1.397   .     A
C668   C686    1.400   .     A
C669   O726    1.383   .     S
C669   N714    1.374   .     A
C670   O716    1.383   .     S
C670   N713    1.375   .     A
C670   C1266   1.433   .     S
C671   N713    1.376   .     A
C671   O717    1.393   .     S
C671   C1263   1.447   .     S
C672   O718    1.387   .     S
C672   N714    1.381   .     A
C673   O726    1.421   .     S
C673   H706    1.111   .     S
C673   C674    1.523   .     S
C674   H710    1.111   .     S
C674   H709    1.110   .     S
C674   H708    1.108   .     S
C675   C677    1.522   .     S
C675   O716    1.418   .     S
C675   H712    1.111   .     S
C675   H711    1.097   .     S
C676   O721    1.303   .     A
C676   O719    1.294   .     A
C677   H693    1.111   .     S
C677   H694    1.109   .     S
C677   H692    1.107   .     S
C678   H695    1.108   .     S
C678   O717    1.416   .     S
C678   C679    1.520   .     S
C678   H696    1.104   .     S
C679   H698    1.106   .     S
C679   H699    1.111   .     S
C680   H701    1.112   .     S
C680   C681    1.524   .     S
C680   H700    1.103   .     S
C680   O718    1.411   .     S
C681   H705    1.105   .     S
C681   H703    1.110   .     S
C681   H770    1.111   .     S
C682   O724    1.297   .     A
C682   O722    1.295   .     A
C682   C684    1.431   .     S
C683   O725    1.301   .     A
C683   O723    1.291   .     A
C683   C685    1.433   .     S
C685   C750    1.353   .     S
C685   Br728   1.936   .     S
C686   C1084   1.384   1_545 S
C687   C864    1.387   .     S
C688   H691    1.079   .     S
C688   C884    1.384   .     S
Cu689  Cu690   2.707   .     S
Cu689  O725    1.973   .     S
Cu689  O721    1.958   .     S
Cu689  O722    1.980   .     S
Cu689  O715    1.945   .     S
Cu689  N713    2.035   .     S
Cu690  O724    1.973   .     S
Cu690  O723    1.980   .     S
Cu690  N714    2.035   .     S
Cu690  O719    1.945   .     S
Cu690  O720    1.958   .     S
H697   C745    1.111   .     S
H707   C1267   1.111   .     S
Br727  C618    1.941   1_655 S
Br729  C752    1.909   .     S
Br730  C753    1.907   .     S
C731   C734    1.437   .     S
C731   O786    1.300   .     A
C731   O781    1.293   .     A
C732   C734    1.395   .     A
C732   H768    1.083   .     S
C732   C1149   1.387   1_545 S
C733   C753    1.403   .     A
C733   C742    1.444   .     S
C733   C754    1.397   .     A
C734   C752    1.400   .     A
C735   O792    1.383   .     S
C735   N780    1.374   .     A
C736   O782    1.383   .     S
C736   N779    1.375   .     A
C736   C1332   1.433   .     S
C737   N779    1.376   .     A
C737   O783    1.393   .     S
C737   C1329   1.447   .     S
C738   O784    1.387   .     S
C738   N780    1.381   .     A
C739   O792    1.421   .     S
C739   H772    1.111   .     S
C739   C740    1.523   .     S
C740   H776    1.111   .     S
C740   H775    1.110   .     S
C740   H774    1.108   .     S
C741   C743    1.522   .     S
C741   O782    1.418   .     S
C741   H778    1.111   .     S
C741   H777    1.097   .     S
C742   O787    1.303   .     A
C742   O785    1.294   .     A
C743   H759    1.111   .     S
C743   H760    1.109   .     S
C743   H758    1.107   .     S
C744   H761    1.108   .     S
C744   O783    1.416   .     S
C744   C745    1.520   .     S
C744   H762    1.104   .     S
C745   H764    1.106   .     S
C745   H765    1.111   .     S
C746   H767    1.112   .     S
C746   C747    1.524   .     S
C746   H766    1.103   .     S
C746   O784    1.411   .     S
C747   H771    1.105   .     S
C747   H769    1.110   .     S
C747   H638    1.111   1_655 S
C748   O790    1.297   .     A
C748   O788    1.295   .     A
C748   C750    1.431   .     S
C749   O791    1.301   .     A
C749   O789    1.291   .     A
C749   C751    1.433   .     S
C751   C618    1.353   1_655 S
C751   Br596   1.936   1_655 S
C752   C1150   1.384   1_545 S
C753   C930    1.387   .     S
C754   H757    1.079   .     S
C754   C950    1.384   .     S
Cu755  Cu756   2.707   .     S
Cu755  O791    1.973   .     S
Cu755  O787    1.958   .     S
Cu755  O788    1.980   .     S
Cu755  O781    1.945   .     S
Cu755  N779    2.035   .     S
Cu756  O790    1.973   .     S
Cu756  O789    1.980   .     S
Cu756  N780    2.035   .     S
Cu756  O785    1.945   .     S
Cu756  O786    1.958   .     S
H763   C613    1.111   1_655 S
H773   C1333   1.111   .     S
Br793  C882    1.941   .     S
Br794  C949    1.936   1_455 S
Br795  C818    1.909   .     S
Br796  C819    1.907   .     S
C797   C800    1.437   .     S
C797   O852    1.300   .     A
C797   O847    1.293   .     A
C798   C800    1.395   .     A
C798   H834    1.083   .     S
C799   C819    1.403   .     A
C799   C808    1.444   .     S
C799   C820    1.397   .     A
C800   C818    1.400   .     A
C801   O858    1.383   .     S
C801   N846    1.374   .     A
C802   O848    1.383   .     S
C802   N845    1.375   .     A
C802   C1398   1.433   .     S
C803   N845    1.376   .     A
C803   O849    1.393   .     S
C803   C1395   1.447   .     S
C804   O850    1.387   .     S
C804   N846    1.381   .     A
C805   O858    1.421   .     S
C805   H838    1.111   .     S
C805   C806    1.523   .     S
C806   H842    1.111   .     S
C806   H841    1.110   .     S
C806   H840    1.108   .     S
C807   C809    1.522   .     S
C807   O848    1.418   .     S
C807   H844    1.111   .     S
C807   H843    1.097   .     S
C808   O853    1.303   .     A
C808   O851    1.294   .     A
C809   H825    1.111   .     S
C809   H826    1.109   .     S
C809   H824    1.107   .     S
C810   H827    1.108   .     S
C810   O849    1.416   .     S
C810   C811    1.520   .     S
C810   H828    1.104   .     S
C811   H830    1.106   .     S
C811   H831    1.111   .     S
C811   H961    1.111   1_455 S
C812   H833    1.112   .     S
C812   C813    1.524   .     S
C812   H832    1.103   .     S
C812   O850    1.411   .     S
C813   H837    1.105   .     S
C813   H835    1.110   .     S
C813   H902    1.111   .     S
C814   O856    1.297   .     A
C814   O854    1.295   .     A
C814   C816    1.431   .     S
C815   O857    1.301   .     A
C815   O855    1.291   .     A
C815   C817    1.433   .     S
C816   Br925   1.941   1_455 S
C816   C949    1.353   1_455 S
C817   C882    1.353   .     S
C817   Br860   1.936   .     S
C819   C996    1.387   .     S
C820   H823    1.079   .     S
C820   C1016   1.384   .     S
Cu821  Cu822   2.707   .     S
Cu821  O857    1.973   .     S
Cu821  O853    1.958   .     S
Cu821  O854    1.980   .     S
Cu821  O847    1.945   .     S
Cu821  N845    2.035   .     S
Cu822  O856    1.973   .     S
Cu822  O855    1.980   .     S
Cu822  N846    2.035   .     S
Cu822  O851    1.945   .     S
Cu822  O852    1.958   .     S
H829   C877    1.111   .     S
H836   C945    1.111   1_455 S
H839   C1399   1.111   .     S
Br859  C948    1.941   .     S
Br861  C884    1.909   .     S
Br862  C885    1.907   .     S
C863   C866    1.437   .     S
C863   O918    1.300   .     A
C863   O913    1.293   .     A
C864   C866    1.395   .     A
C864   H900    1.083   .     S
C865   C885    1.403   .     A
C865   C874    1.444   .     S
C865   C886    1.397   .     A
C866   C884    1.400   .     A
C867   O924    1.383   .     S
C867   N912    1.374   .     A
C868   O914    1.383   .     S
C868   N911    1.375   .     A
C868   C1464   1.433   .     S
C869   N911    1.376   .     A
C869   O915    1.393   .     S
C869   C1461   1.447   .     S
C870   O916    1.387   .     S
C870   N912    1.381   .     A
C871   O924    1.421   .     S
C871   H904    1.111   .     S
C871   C872    1.523   .     S
C872   H908    1.111   .     S
C872   H907    1.110   .     S
C872   H906    1.108   .     S
C873   C875    1.522   .     S
C873   O914    1.418   .     S
C873   H910    1.111   .     S
C873   H909    1.097   .     S
C874   O919    1.303   .     A
C874   O917    1.294   .     A
C875   H891    1.111   .     S
C875   H892    1.109   .     S
C875   H890    1.107   .     S
C876   H893    1.108   .     S
C876   O915    1.416   .     S
C876   C877    1.520   .     S
C876   H894    1.104   .     S
C877   H896    1.106   .     S
C877   H897    1.111   .     S
C878   H899    1.112   .     S
C878   C879    1.524   .     S
C878   H898    1.103   .     S
C878   O916    1.411   .     S
C879   H903    1.105   .     S
C879   H901    1.110   .     S
C879   H968    1.111   .     S
C880   O922    1.297   .     A
C880   O920    1.295   .     A
C880   C882    1.431   .     S
C881   O923    1.301   .     A
C881   O921    1.291   .     A
C881   C883    1.433   .     S
C883   C948    1.353   .     S
C883   Br926   1.936   .     S
C885   C1062   1.387   .     S
C886   H889    1.079   .     S
C886   C1082   1.384   .     S
Cu887  Cu888   2.707   .     S
Cu887  O923    1.973   .     S
Cu887  O919    1.958   .     S
Cu887  O920    1.980   .     S
Cu887  O913    1.945   .     S
Cu887  N911    2.035   .     S
Cu888  O922    1.973   .     S
Cu888  O921    1.980   .     S
Cu888  N912    2.035   .     S
Cu888  O917    1.945   .     S
Cu888  O918    1.958   .     S
H895   C943    1.111   .     S
H905   C1465   1.111   .     S
Br925  C816    1.941   1_655 S
Br927  C950    1.909   .     S
Br928  C951    1.907   .     S
C929   C932    1.437   .     S
C929   O984    1.300   .     A
C929   O979    1.293   .     A
C930   C932    1.395   .     A
C930   H966    1.083   .     S
C931   C951    1.403   .     A
C931   C940    1.444   .     S
C931   C952    1.397   .     A
C932   C950    1.400   .     A
C933   O990    1.383   .     S
C933   N978    1.374   .     A
C934   O980    1.383   .     S
C934   N977    1.375   .     A
C934   C1530   1.433   .     S
C935   N977    1.376   .     A
C935   O981    1.393   .     S
C935   C1527   1.447   .     S
C936   O982    1.387   .     S
C936   N978    1.381   .     A
C937   O990    1.421   .     S
C937   H970    1.111   .     S
C937   C938    1.523   .     S
C938   H974    1.111   .     S
C938   H973    1.110   .     S
C938   H972    1.108   .     S
C939   C941    1.522   .     S
C939   O980    1.418   .     S
C939   H976    1.111   .     S
C939   H975    1.097   .     S
C940   O985    1.303   .     A
C940   O983    1.294   .     A
C941   H957    1.111   .     S
C941   H958    1.109   .     S
C941   H956    1.107   .     S
C942   H959    1.108   .     S
C942   O981    1.416   .     S
C942   C943    1.520   .     S
C942   H960    1.104   .     S
C943   H962    1.106   .     S
C943   H963    1.111   .     S
C944   H965    1.112   .     S
C944   C945    1.524   .     S
C944   H964    1.103   .     S
C944   O982    1.411   .     S
C945   H969    1.105   .     S
C945   H967    1.110   .     S
C945   H836    1.111   1_655 S
C946   O988    1.297   .     A
C946   O986    1.295   .     A
C946   C948    1.431   .     S
C947   O989    1.301   .     A
C947   O987    1.291   .     A
C947   C949    1.433   .     S
C949   C816    1.353   1_655 S
C949   Br794   1.936   1_655 S
C951   C1128   1.387   .     S
C952   H955    1.079   .     S
C952   C1148   1.384   .     S
Cu953  Cu954   2.707   .     S
Cu953  O989    1.973   .     S
Cu953  O985    1.958   .     S
Cu953  O986    1.980   .     S
Cu953  O979    1.945   .     S
Cu953  N977    2.035   .     S
Cu954  O988    1.973   .     S
Cu954  O987    1.980   .     S
Cu954  N978    2.035   .     S
Cu954  O983    1.945   .     S
Cu954  O984    1.958   .     S
H961   C811    1.111   1_655 S
H971   C1531   1.111   .     S
Br991  C1080   1.941   .     S
Br992  C1147   1.936   1_455 S
Br993  C1016   1.909   .     S
Br994  C1017   1.907   .     S
C995   C998    1.437   .     S
C995   O1050   1.300   .     A
C995   O1045   1.293   .     A
C996   C998    1.395   .     A
C996   H1032   1.083   .     S
C997   C1017   1.403   .     A
C997   C1006   1.444   .     S
C997   C1018   1.397   .     A
C998   C1016   1.400   .     A
C999   O1056   1.383   .     S
C999   N1044   1.374   .     A
C1000  O1046   1.383   .     S
C1000  N1043   1.375   .     A
C1000  C1596   1.433   .     S
C1001  N1043   1.376   .     A
C1001  O1047   1.393   .     S
C1001  C1593   1.447   .     S
C1002  O1048   1.387   .     S
C1002  N1044   1.381   .     A
C1003  O1056   1.421   .     S
C1003  H1036   1.111   .     S
C1003  C1004   1.523   .     S
C1004  H1040   1.111   .     S
C1004  H1039   1.110   .     S
C1004  H1038   1.108   .     S
C1005  C1007   1.522   .     S
C1005  O1046   1.418   .     S
C1005  H1042   1.111   .     S
C1005  H1041   1.097   .     S
C1006  O1051   1.303   .     A
C1006  O1049   1.294   .     A
C1007  H1023   1.111   .     S
C1007  H1024   1.109   .     S
C1007  H1022   1.107   .     S
C1008  H1025   1.108   .     S
C1008  O1047   1.416   .     S
C1008  C1009   1.520   .     S
C1008  H1026   1.104   .     S
C1009  H1028   1.106   .     S
C1009  H1029   1.111   .     S
C1009  H1159   1.111   1_455 S
C1010  H1031   1.112   .     S
C1010  C1011   1.524   .     S
C1010  H1030   1.103   .     S
C1010  O1048   1.411   .     S
C1011  H1035   1.105   .     S
C1011  H1033   1.110   .     S
C1011  H1100   1.111   .     S
C1012  O1054   1.297   .     A
C1012  O1052   1.295   .     A
C1012  C1014   1.431   .     S
C1013  O1055   1.301   .     A
C1013  O1053   1.291   .     A
C1013  C1015   1.433   .     S
C1014  Br1123  1.941   1_455 S
C1014  C1147   1.353   1_455 S
C1015  C1080   1.353   .     S
C1015  Br1058  1.936   .     S
C1017  C600    1.387   1_565 S
C1018  H1021   1.079   .     S
C1018  C620    1.384   1_565 S
Cu1019 Cu1020  2.707   .     S
Cu1019 O1055   1.973   .     S
Cu1019 O1051   1.958   .     S
Cu1019 O1052   1.980   .     S
Cu1019 O1045   1.945   .     S
Cu1019 N1043   2.035   .     S
Cu1020 O1054   1.973   .     S
Cu1020 O1053   1.980   .     S
Cu1020 N1044   2.035   .     S
Cu1020 O1049   1.945   .     S
Cu1020 O1050   1.958   .     S
H1027  C1075   1.111   .     S
H1034  C1143   1.111   1_455 S
H1037  C1597   1.111   .     S
Br1057 C1146   1.941   .     S
Br1059 C1082   1.909   .     S
Br1060 C1083   1.907   .     S
C1061  C1064   1.437   .     S
C1061  O1116   1.300   .     A
C1061  O1111   1.293   .     A
C1062  C1064   1.395   .     A
C1062  H1098   1.083   .     S
C1063  C1083   1.403   .     A
C1063  C1072   1.444   .     S
C1063  C1084   1.397   .     A
C1064  C1082   1.400   .     A
C1065  O1122   1.383   .     S
C1065  N1110   1.374   .     A
C1066  O1112   1.383   .     S
C1066  N1109   1.375   .     A
C1066  C1662   1.433   .     S
C1067  N1109   1.376   .     A
C1067  O1113   1.393   .     S
C1067  C1659   1.447   .     S
C1068  O1114   1.387   .     S
C1068  N1110   1.381   .     A
C1069  O1122   1.421   .     S
C1069  H1102   1.111   .     S
C1069  C1070   1.523   .     S
C1070  H1106   1.111   .     S
C1070  H1105   1.110   .     S
C1070  H1104   1.108   .     S
C1071  C1073   1.522   .     S
C1071  O1112   1.418   .     S
C1071  H1108   1.111   .     S
C1071  H1107   1.097   .     S
C1072  O1117   1.303   .     A
C1072  O1115   1.294   .     A
C1073  H1089   1.111   .     S
C1073  H1090   1.109   .     S
C1073  H1088   1.107   .     S
C1074  H1091   1.108   .     S
C1074  O1113   1.416   .     S
C1074  C1075   1.520   .     S
C1074  H1092   1.104   .     S
C1075  H1094   1.106   .     S
C1075  H1095   1.111   .     S
C1076  H1097   1.112   .     S
C1076  C1077   1.524   .     S
C1076  H1096   1.103   .     S
C1076  O1114   1.411   .     S
C1077  H1101   1.105   .     S
C1077  H1099   1.110   .     S
C1077  H1166   1.111   .     S
C1078  O1120   1.297   .     A
C1078  O1118   1.295   .     A
C1078  C1080   1.431   .     S
C1079  O1121   1.301   .     A
C1079  O1119   1.291   .     A
C1079  C1081   1.433   .     S
C1081  C1146   1.353   .     S
C1081  Br1124  1.936   .     S
C1083  C666    1.387   1_565 S
C1084  H1087   1.079   .     S
C1084  C686    1.384   1_565 S
Cu1085 Cu1086  2.707   .     S
Cu1085 O1121   1.973   .     S
Cu1085 O1117   1.958   .     S
Cu1085 O1118   1.980   .     S
Cu1085 O1111   1.945   .     S
Cu1085 N1109   2.035   .     S
Cu1086 O1120   1.973   .     S
Cu1086 O1119   1.980   .     S
Cu1086 N1110   2.035   .     S
Cu1086 O1115   1.945   .     S
Cu1086 O1116   1.958   .     S
H1093  C1141   1.111   .     S
H1103  C1663   1.111   .     S
Br1123 C1014   1.941   1_655 S
Br1125 C1148   1.909   .     S
Br1126 C1149   1.907   .     S
C1127  C1130   1.437   .     S
C1127  O1182   1.300   .     A
C1127  O1177   1.293   .     A
C1128  C1130   1.395   .     A
C1128  H1164   1.083   .     S
C1129  C1149   1.403   .     A
C1129  C1138   1.444   .     S
C1129  C1150   1.397   .     A
C1130  C1148   1.400   .     A
C1131  O1188   1.383   .     S
C1131  N1176   1.374   .     A
C1132  O1178   1.383   .     S
C1132  N1175   1.375   .     A
C1132  C1728   1.433   .     S
C1133  N1175   1.376   .     A
C1133  O1179   1.393   .     S
C1133  C1725   1.447   .     S
C1134  O1180   1.387   .     S
C1134  N1176   1.381   .     A
C1135  O1188   1.421   .     S
C1135  H1168   1.111   .     S
C1135  C1136   1.523   .     S
C1136  H1172   1.111   .     S
C1136  H1171   1.110   .     S
C1136  H1170   1.108   .     S
C1137  C1139   1.522   .     S
C1137  O1178   1.418   .     S
C1137  H1174   1.111   .     S
C1137  H1173   1.097   .     S
C1138  O1183   1.303   .     A
C1138  O1181   1.294   .     A
C1139  H1155   1.111   .     S
C1139  H1156   1.109   .     S
C1139  H1154   1.107   .     S
C1140  H1157   1.108   .     S
C1140  O1179   1.416   .     S
C1140  C1141   1.520   .     S
C1140  H1158   1.104   .     S
C1141  H1160   1.106   .     S
C1141  H1161   1.111   .     S
C1142  H1163   1.112   .     S
C1142  C1143   1.524   .     S
C1142  H1162   1.103   .     S
C1142  O1180   1.411   .     S
C1143  H1167   1.105   .     S
C1143  H1165   1.110   .     S
C1143  H1034   1.111   1_655 S
C1144  O1186   1.297   .     A
C1144  O1184   1.295   .     A
C1144  C1146   1.431   .     S
C1145  O1187   1.301   .     A
C1145  O1185   1.291   .     A
C1145  C1147   1.433   .     S
C1147  C1014   1.353   1_655 S
C1147  Br992   1.936   1_655 S
C1149  C732    1.387   1_565 S
C1150  H1153   1.079   .     S
C1150  C752    1.384   1_565 S
Cu1151 Cu1152  2.707   .     S
Cu1151 O1187   1.973   .     S
Cu1151 O1183   1.958   .     S
Cu1151 O1184   1.980   .     S
Cu1151 O1177   1.945   .     S
Cu1151 N1175   2.035   .     S
Cu1152 O1186   1.973   .     S
Cu1152 O1185   1.980   .     S
Cu1152 N1176   2.035   .     S
Cu1152 O1181   1.945   .     S
Cu1152 O1182   1.958   .     S
H1159  C1009   1.111   1_655 S
H1169  C1729   1.111   .     S
Br1189 C1278   1.941   .     S
Br1190 C1345   1.936   1_455 S
Br1191 C1214   1.909   .     S
Br1192 C1215   1.907   .     S
C1193  C1196   1.437   .     S
C1193  O1248   1.300   .     A
C1193  O1243   1.293   .     A
C1194  C1196   1.395   .     A
C1194  H1230   1.083   .     S
C1194  C1611   1.387   1_545 S
C1195  C1215   1.403   .     A
C1195  C1204   1.444   .     S
C1195  C1216   1.397   .     A
C1196  C1214   1.400   .     A
C1197  O1254   1.383   .     S
C1197  N1242   1.374   .     A
C1198  O1244   1.383   .     S
C1198  N1241   1.375   .     A
C1198  C12     1.433   1_556 S
C1199  N1241   1.376   .     A
C1199  O1245   1.393   .     S
C1199  C9      1.447   1_556 S
C1200  O1246   1.387   .     S
C1200  N1242   1.381   .     A
C1201  O1254   1.421   .     S
C1201  H1234   1.111   .     S
C1201  C1202   1.523   .     S
C1202  H1238   1.111   .     S
C1202  H1237   1.110   .     S
C1202  H1236   1.108   .     S
C1203  C1205   1.522   .     S
C1203  O1244   1.418   .     S
C1203  H1240   1.111   .     S
C1203  H1239   1.097   .     S
C1204  O1249   1.303   .     A
C1204  O1247   1.294   .     A
C1205  H1221   1.111   .     S
C1205  H1222   1.109   .     S
C1205  H1220   1.107   .     S
C1206  H1223   1.108   .     S
C1206  O1245   1.416   .     S
C1206  C1207   1.520   .     S
C1206  H1224   1.104   .     S
C1207  H1226   1.106   .     S
C1207  H1227   1.111   .     S
C1207  H1357   1.111   1_455 S
C1208  H1229   1.112   .     S
C1208  C1209   1.524   .     S
C1208  H1228   1.103   .     S
C1208  O1246   1.411   .     S
C1209  H1233   1.105   .     S
C1209  H1231   1.110   .     S
C1209  H1298   1.111   .     S
C1210  O1252   1.297   .     A
C1210  O1250   1.295   .     A
C1210  C1212   1.431   .     S
C1211  O1253   1.301   .     A
C1211  O1251   1.291   .     A
C1211  C1213   1.433   .     S
C1212  Br1321  1.941   1_455 S
C1212  C1345   1.353   1_455 S
C1213  C1278   1.353   .     S
C1213  Br1256  1.936   .     S
C1214  C1612   1.384   1_545 S
C1215  C1392   1.387   .     S
C1216  H1219   1.079   .     S
C1216  C1412   1.384   .     S
Cu1217 Cu1218  2.707   .     S
Cu1217 O1253   1.973   .     S
Cu1217 O1249   1.958   .     S
Cu1217 O1250   1.980   .     S
Cu1217 O1243   1.945   .     S
Cu1217 N1241   2.035   .     S
Cu1218 O1252   1.973   .     S
Cu1218 O1251   1.980   .     S
Cu1218 N1242   2.035   .     S
Cu1218 O1247   1.945   .     S
Cu1218 O1248   1.958   .     S
H1225  C1273   1.111   .     S
H1232  C1341   1.111   1_455 S
H1235  C13     1.111   1_556 S
Br1255 C1344   1.941   .     S
Br1257 C1280   1.909   .     S
Br1258 C1281   1.907   .     S
C1259  C1262   1.437   .     S
C1259  O1314   1.300   .     A
C1259  O1309   1.293   .     A
C1260  C1262   1.395   .     A
C1260  H1296   1.083   .     S
C1260  C1677   1.387   1_545 S
C1261  C1281   1.403   .     A
C1261  C1270   1.444   .     S
C1261  C1282   1.397   .     A
C1262  C1280   1.400   .     A
C1263  O1320   1.383   .     S
C1263  N1308   1.374   .     A
C1264  O1310   1.383   .     S
C1264  N1307   1.375   .     A
C1264  C78     1.433   1_556 S
C1265  N1307   1.376   .     A
C1265  O1311   1.393   .     S
C1265  C75     1.447   1_556 S
C1266  O1312   1.387   .     S
C1266  N1308   1.381   .     A
C1267  O1320   1.421   .     S
C1267  H1300   1.111   .     S
C1267  C1268   1.523   .     S
C1268  H1304   1.111   .     S
C1268  H1303   1.110   .     S
C1268  H1302   1.108   .     S
C1269  C1271   1.522   .     S
C1269  O1310   1.418   .     S
C1269  H1306   1.111   .     S
C1269  H1305   1.097   .     S
C1270  O1315   1.303   .     A
C1270  O1313   1.294   .     A
C1271  H1287   1.111   .     S
C1271  H1288   1.109   .     S
C1271  H1286   1.107   .     S
C1272  H1289   1.108   .     S
C1272  O1311   1.416   .     S
C1272  C1273   1.520   .     S
C1272  H1290   1.104   .     S
C1273  H1292   1.106   .     S
C1273  H1293   1.111   .     S
C1274  H1295   1.112   .     S
C1274  C1275   1.524   .     S
C1274  H1294   1.103   .     S
C1274  O1312   1.411   .     S
C1275  H1299   1.105   .     S
C1275  H1297   1.110   .     S
C1275  H1364   1.111   .     S
C1276  O1318   1.297   .     A
C1276  O1316   1.295   .     A
C1276  C1278   1.431   .     S
C1277  O1319   1.301   .     A
C1277  O1317   1.291   .     A
C1277  C1279   1.433   .     S
C1279  C1344   1.353   .     S
C1279  Br1322  1.936   .     S
C1280  C1678   1.384   1_545 S
C1281  C1458   1.387   .     S
C1282  H1285   1.079   .     S
C1282  C1478   1.384   .     S
Cu1283 Cu1284  2.707   .     S
Cu1283 O1319   1.973   .     S
Cu1283 O1315   1.958   .     S
Cu1283 O1316   1.980   .     S
Cu1283 O1309   1.945   .     S
Cu1283 N1307   2.035   .     S
Cu1284 O1318   1.973   .     S
Cu1284 O1317   1.980   .     S
Cu1284 N1308   2.035   .     S
Cu1284 O1313   1.945   .     S
Cu1284 O1314   1.958   .     S
H1291  C1339   1.111   .     S
H1301  C79     1.111   1_556 S
Br1321 C1212   1.941   1_655 S
Br1323 C1346   1.909   .     S
Br1324 C1347   1.907   .     S
C1325  C1328   1.437   .     S
C1325  O1380   1.300   .     A
C1325  O1375   1.293   .     A
C1326  C1328   1.395   .     A
C1326  H1362   1.083   .     S
C1326  C1743   1.387   1_545 S
C1327  C1347   1.403   .     A
C1327  C1336   1.444   .     S
C1327  C1348   1.397   .     A
C1328  C1346   1.400   .     A
C1329  O1386   1.383   .     S
C1329  N1374   1.374   .     A
C1330  O1376   1.383   .     S
C1330  N1373   1.375   .     A
C1330  C144    1.433   1_556 S
C1331  N1373   1.376   .     A
C1331  O1377   1.393   .     S
C1331  C141    1.447   1_556 S
C1332  O1378   1.387   .     S
C1332  N1374   1.381   .     A
C1333  O1386   1.421   .     S
C1333  H1366   1.111   .     S
C1333  C1334   1.523   .     S
C1334  H1370   1.111   .     S
C1334  H1369   1.110   .     S
C1334  H1368   1.108   .     S
C1335  C1337   1.522   .     S
C1335  O1376   1.418   .     S
C1335  H1372   1.111   .     S
C1335  H1371   1.097   .     S
C1336  O1381   1.303   .     A
C1336  O1379   1.294   .     A
C1337  H1353   1.111   .     S
C1337  H1354   1.109   .     S
C1337  H1352   1.107   .     S
C1338  H1355   1.108   .     S
C1338  O1377   1.416   .     S
C1338  C1339   1.520   .     S
C1338  H1356   1.104   .     S
C1339  H1358   1.106   .     S
C1339  H1359   1.111   .     S
C1340  H1361   1.112   .     S
C1340  C1341   1.524   .     S
C1340  H1360   1.103   .     S
C1340  O1378   1.411   .     S
C1341  H1365   1.105   .     S
C1341  H1363   1.110   .     S
C1341  H1232   1.111   1_655 S
C1342  O1384   1.297   .     A
C1342  O1382   1.295   .     A
C1342  C1344   1.431   .     S
C1343  O1385   1.301   .     A
C1343  O1383   1.291   .     A
C1343  C1345   1.433   .     S
C1345  C1212   1.353   1_655 S
C1345  Br1190  1.936   1_655 S
C1346  C1744   1.384   1_545 S
C1347  C1524   1.387   .     S
C1348  H1351   1.079   .     S
C1348  C1544   1.384   .     S
Cu1349 Cu1350  2.707   .     S
Cu1349 O1385   1.973   .     S
Cu1349 O1381   1.958   .     S
Cu1349 O1382   1.980   .     S
Cu1349 O1375   1.945   .     S
Cu1349 N1373   2.035   .     S
Cu1350 O1384   1.973   .     S
Cu1350 O1383   1.980   .     S
Cu1350 N1374   2.035   .     S
Cu1350 O1379   1.945   .     S
Cu1350 O1380   1.958   .     S
H1357  C1207   1.111   1_655 S
H1367  C145    1.111   1_556 S
Br1387 C1476   1.941   .     S
Br1388 C1543   1.936   1_455 S
Br1389 C1412   1.909   .     S
Br1390 C1413   1.907   .     S
C1391  C1394   1.437   .     S
C1391  O1446   1.300   .     A
C1391  O1441   1.293   .     A
C1392  C1394   1.395   .     A
C1392  H1428   1.083   .     S
C1393  C1413   1.403   .     A
C1393  C1402   1.444   .     S
C1393  C1414   1.397   .     A
C1394  C1412   1.400   .     A
C1395  O1452   1.383   .     S
C1395  N1440   1.374   .     A
C1396  O1442   1.383   .     S
C1396  N1439   1.375   .     A
C1396  C210    1.433   1_556 S
C1397  N1439   1.376   .     A
C1397  O1443   1.393   .     S
C1397  C207    1.447   1_556 S
C1398  O1444   1.387   .     S
C1398  N1440   1.381   .     A
C1399  O1452   1.421   .     S
C1399  H1432   1.111   .     S
C1399  C1400   1.523   .     S
C1400  H1436   1.111   .     S
C1400  H1435   1.110   .     S
C1400  H1434   1.108   .     S
C1401  C1403   1.522   .     S
C1401  O1442   1.418   .     S
C1401  H1438   1.111   .     S
C1401  H1437   1.097   .     S
C1402  O1447   1.303   .     A
C1402  O1445   1.294   .     A
C1403  H1419   1.111   .     S
C1403  H1420   1.109   .     S
C1403  H1418   1.107   .     S
C1404  H1421   1.108   .     S
C1404  O1443   1.416   .     S
C1404  C1405   1.520   .     S
C1404  H1422   1.104   .     S
C1405  H1424   1.106   .     S
C1405  H1425   1.111   .     S
C1405  H1555   1.111   1_455 S
C1406  H1427   1.112   .     S
C1406  C1407   1.524   .     S
C1406  H1426   1.103   .     S
C1406  O1444   1.411   .     S
C1407  H1431   1.105   .     S
C1407  H1429   1.110   .     S
C1407  H1496   1.111   .     S
C1408  O1450   1.297   .     A
C1408  O1448   1.295   .     A
C1408  C1410   1.431   .     S
C1409  O1451   1.301   .     A
C1409  O1449   1.291   .     A
C1409  C1411   1.433   .     S
C1410  Br1519  1.941   1_455 S
C1410  C1543   1.353   1_455 S
C1411  C1476   1.353   .     S
C1411  Br1454  1.936   .     S
C1413  C1590   1.387   .     S
C1414  H1417   1.079   .     S
C1414  C1610   1.384   .     S
Cu1415 Cu1416  2.707   .     S
Cu1415 O1451   1.973   .     S
Cu1415 O1447   1.958   .     S
Cu1415 O1448   1.980   .     S
Cu1415 O1441   1.945   .     S
Cu1415 N1439   2.035   .     S
Cu1416 O1450   1.973   .     S
Cu1416 O1449   1.980   .     S
Cu1416 N1440   2.035   .     S
Cu1416 O1445   1.945   .     S
Cu1416 O1446   1.958   .     S
H1423  C1471   1.111   .     S
H1430  C1539   1.111   1_455 S
H1433  C211    1.111   1_556 S
Br1453 C1542   1.941   .     S
Br1455 C1478   1.909   .     S
Br1456 C1479   1.907   .     S
C1457  C1460   1.437   .     S
C1457  O1512   1.300   .     A
C1457  O1507   1.293   .     A
C1458  C1460   1.395   .     A
C1458  H1494   1.083   .     S
C1459  C1479   1.403   .     A
C1459  C1468   1.444   .     S
C1459  C1480   1.397   .     A
C1460  C1478   1.400   .     A
C1461  O1518   1.383   .     S
C1461  N1506   1.374   .     A
C1462  O1508   1.383   .     S
C1462  N1505   1.375   .     A
C1462  C276    1.433   1_556 S
C1463  N1505   1.376   .     A
C1463  O1509   1.393   .     S
C1463  C273    1.447   1_556 S
C1464  O1510   1.387   .     S
C1464  N1506   1.381   .     A
C1465  O1518   1.421   .     S
C1465  H1498   1.111   .     S
C1465  C1466   1.523   .     S
C1466  H1502   1.111   .     S
C1466  H1501   1.110   .     S
C1466  H1500   1.108   .     S
C1467  C1469   1.522   .     S
C1467  O1508   1.418   .     S
C1467  H1504   1.111   .     S
C1467  H1503   1.097   .     S
C1468  O1513   1.303   .     A
C1468  O1511   1.294   .     A
C1469  H1485   1.111   .     S
C1469  H1486   1.109   .     S
C1469  H1484   1.107   .     S
C1470  H1487   1.108   .     S
C1470  O1509   1.416   .     S
C1470  C1471   1.520   .     S
C1470  H1488   1.104   .     S
C1471  H1490   1.106   .     S
C1471  H1491   1.111   .     S
C1472  H1493   1.112   .     S
C1472  C1473   1.524   .     S
C1472  H1492   1.103   .     S
C1472  O1510   1.411   .     S
C1473  H1497   1.105   .     S
C1473  H1495   1.110   .     S
C1473  H1562   1.111   .     S
C1474  O1516   1.297   .     A
C1474  O1514   1.295   .     A
C1474  C1476   1.431   .     S
C1475  O1517   1.301   .     A
C1475  O1515   1.291   .     A
C1475  C1477   1.433   .     S
C1477  C1542   1.353   .     S
C1477  Br1520  1.936   .     S
C1479  C1656   1.387   .     S
C1480  H1483   1.079   .     S
C1480  C1676   1.384   .     S
Cu1481 Cu1482  2.707   .     S
Cu1481 O1517   1.973   .     S
Cu1481 O1513   1.958   .     S
Cu1481 O1514   1.980   .     S
Cu1481 O1507   1.945   .     S
Cu1481 N1505   2.035   .     S
Cu1482 O1516   1.973   .     S
Cu1482 O1515   1.980   .     S
Cu1482 N1506   2.035   .     S
Cu1482 O1511   1.945   .     S
Cu1482 O1512   1.958   .     S
H1489  C1537   1.111   .     S
H1499  C277    1.111   1_556 S
Br1519 C1410   1.941   1_655 S
Br1521 C1544   1.909   .     S
Br1522 C1545   1.907   .     S
C1523  C1526   1.437   .     S
C1523  O1578   1.300   .     A
C1523  O1573   1.293   .     A
C1524  C1526   1.395   .     A
C1524  H1560   1.083   .     S
C1525  C1545   1.403   .     A
C1525  C1534   1.444   .     S
C1525  C1546   1.397   .     A
C1526  C1544   1.400   .     A
C1527  O1584   1.383   .     S
C1527  N1572   1.374   .     A
C1528  O1574   1.383   .     S
C1528  N1571   1.375   .     A
C1528  C342    1.433   1_556 S
C1529  N1571   1.376   .     A
C1529  O1575   1.393   .     S
C1529  C339    1.447   1_556 S
C1530  O1576   1.387   .     S
C1530  N1572   1.381   .     A
C1531  O1584   1.421   .     S
C1531  H1564   1.111   .     S
C1531  C1532   1.523   .     S
C1532  H1568   1.111   .     S
C1532  H1567   1.110   .     S
C1532  H1566   1.108   .     S
C1533  C1535   1.522   .     S
C1533  O1574   1.418   .     S
C1533  H1570   1.111   .     S
C1533  H1569   1.097   .     S
C1534  O1579   1.303   .     A
C1534  O1577   1.294   .     A
C1535  H1551   1.111   .     S
C1535  H1552   1.109   .     S
C1535  H1550   1.107   .     S
C1536  H1553   1.108   .     S
C1536  O1575   1.416   .     S
C1536  C1537   1.520   .     S
C1536  H1554   1.104   .     S
C1537  H1556   1.106   .     S
C1537  H1557   1.111   .     S
C1538  H1559   1.112   .     S
C1538  C1539   1.524   .     S
C1538  H1558   1.103   .     S
C1538  O1576   1.411   .     S
C1539  H1563   1.105   .     S
C1539  H1561   1.110   .     S
C1539  H1430   1.111   1_655 S
C1540  O1582   1.297   .     A
C1540  O1580   1.295   .     A
C1540  C1542   1.431   .     S
C1541  O1583   1.301   .     A
C1541  O1581   1.291   .     A
C1541  C1543   1.433   .     S
C1543  C1410   1.353   1_655 S
C1543  Br1388  1.936   1_655 S
C1545  C1722   1.387   .     S
C1546  H1549   1.079   .     S
C1546  C1742   1.384   .     S
Cu1547 Cu1548  2.707   .     S
Cu1547 O1583   1.973   .     S
Cu1547 O1579   1.958   .     S
Cu1547 O1580   1.980   .     S
Cu1547 O1573   1.945   .     S
Cu1547 N1571   2.035   .     S
Cu1548 O1582   1.973   .     S
Cu1548 O1581   1.980   .     S
Cu1548 N1572   2.035   .     S
Cu1548 O1577   1.945   .     S
Cu1548 O1578   1.958   .     S
H1555  C1405   1.111   1_655 S
H1565  C343    1.111   1_556 S
Br1585 C1674   1.941   .     S
Br1586 C1741   1.936   1_455 S
Br1587 C1610   1.909   .     S
Br1588 C1611   1.907   .     S
C1589  C1592   1.437   .     S
C1589  O1644   1.300   .     A
C1589  O1639   1.293   .     A
C1590  C1592   1.395   .     A
C1590  H1626   1.083   .     S
C1591  C1611   1.403   .     A
C1591  C1600   1.444   .     S
C1591  C1612   1.397   .     A
C1592  C1610   1.400   .     A
C1593  O1650   1.383   .     S
C1593  N1638   1.374   .     A
C1594  O1640   1.383   .     S
C1594  N1637   1.375   .     A
C1594  C408    1.433   1_556 S
C1595  N1637   1.376   .     A
C1595  O1641   1.393   .     S
C1595  C405    1.447   1_556 S
C1596  O1642   1.387   .     S
C1596  N1638   1.381   .     A
C1597  O1650   1.421   .     S
C1597  H1630   1.111   .     S
C1597  C1598   1.523   .     S
C1598  H1634   1.111   .     S
C1598  H1633   1.110   .     S
C1598  H1632   1.108   .     S
C1599  C1601   1.522   .     S
C1599  O1640   1.418   .     S
C1599  H1636   1.111   .     S
C1599  H1635   1.097   .     S
C1600  O1645   1.303   .     A
C1600  O1643   1.294   .     A
C1601  H1617   1.111   .     S
C1601  H1618   1.109   .     S
C1601  H1616   1.107   .     S
C1602  H1619   1.108   .     S
C1602  O1641   1.416   .     S
C1602  C1603   1.520   .     S
C1602  H1620   1.104   .     S
C1603  H1622   1.106   .     S
C1603  H1623   1.111   .     S
C1603  H1753   1.111   1_455 S
C1604  H1625   1.112   .     S
C1604  C1605   1.524   .     S
C1604  H1624   1.103   .     S
C1604  O1642   1.411   .     S
C1605  H1629   1.105   .     S
C1605  H1627   1.110   .     S
C1605  H1694   1.111   .     S
C1606  O1648   1.297   .     A
C1606  O1646   1.295   .     A
C1606  C1608   1.431   .     S
C1607  O1649   1.301   .     A
C1607  O1647   1.291   .     A
C1607  C1609   1.433   .     S
C1608  Br1717  1.941   1_455 S
C1608  C1741   1.353   1_455 S
C1609  C1674   1.353   .     S
C1609  Br1652  1.936   .     S
C1611  C1194   1.387   1_565 S
C1612  H1615   1.079   .     S
C1612  C1214   1.384   1_565 S
Cu1613 Cu1614  2.707   .     S
Cu1613 O1649   1.973   .     S
Cu1613 O1645   1.958   .     S
Cu1613 O1646   1.980   .     S
Cu1613 O1639   1.945   .     S
Cu1613 N1637   2.035   .     S
Cu1614 O1648   1.973   .     S
Cu1614 O1647   1.980   .     S
Cu1614 N1638   2.035   .     S
Cu1614 O1643   1.945   .     S
Cu1614 O1644   1.958   .     S
H1621  C1669   1.111   .     S
H1628  C1737   1.111   1_455 S
H1631  C409    1.111   1_556 S
Br1651 C1740   1.941   .     S
Br1653 C1676   1.909   .     S
Br1654 C1677   1.907   .     S
C1655  C1658   1.437   .     S
C1655  O1710   1.300   .     A
C1655  O1705   1.293   .     A
C1656  C1658   1.395   .     A
C1656  H1692   1.083   .     S
C1657  C1677   1.403   .     A
C1657  C1666   1.444   .     S
C1657  C1678   1.397   .     A
C1658  C1676   1.400   .     A
C1659  O1716   1.383   .     S
C1659  N1704   1.374   .     A
C1660  O1706   1.383   .     S
C1660  N1703   1.375   .     A
C1660  C474    1.433   1_556 S
C1661  N1703   1.376   .     A
C1661  O1707   1.393   .     S
C1661  C471    1.447   1_556 S
C1662  O1708   1.387   .     S
C1662  N1704   1.381   .     A
C1663  O1716   1.421   .     S
C1663  H1696   1.111   .     S
C1663  C1664   1.523   .     S
C1664  H1700   1.111   .     S
C1664  H1699   1.110   .     S
C1664  H1698   1.108   .     S
C1665  C1667   1.522   .     S
C1665  O1706   1.418   .     S
C1665  H1702   1.111   .     S
C1665  H1701   1.097   .     S
C1666  O1711   1.303   .     A
C1666  O1709   1.294   .     A
C1667  H1683   1.111   .     S
C1667  H1684   1.109   .     S
C1667  H1682   1.107   .     S
C1668  H1685   1.108   .     S
C1668  O1707   1.416   .     S
C1668  C1669   1.520   .     S
C1668  H1686   1.104   .     S
C1669  H1688   1.106   .     S
C1669  H1689   1.111   .     S
C1670  H1691   1.112   .     S
C1670  C1671   1.524   .     S
C1670  H1690   1.103   .     S
C1670  O1708   1.411   .     S
C1671  H1695   1.105   .     S
C1671  H1693   1.110   .     S
C1671  H1760   1.111   .     S
C1672  O1714   1.297   .     A
C1672  O1712   1.295   .     A
C1672  C1674   1.431   .     S
C1673  O1715   1.301   .     A
C1673  O1713   1.291   .     A
C1673  C1675   1.433   .     S
C1675  C1740   1.353   .     S
C1675  Br1718  1.936   .     S
C1677  C1260   1.387   1_565 S
C1678  H1681   1.079   .     S
C1678  C1280   1.384   1_565 S
Cu1679 Cu1680  2.707   .     S
Cu1679 O1715   1.973   .     S
Cu1679 O1711   1.958   .     S
Cu1679 O1712   1.980   .     S
Cu1679 O1705   1.945   .     S
Cu1679 N1703   2.035   .     S
Cu1680 O1714   1.973   .     S
Cu1680 O1713   1.980   .     S
Cu1680 N1704   2.035   .     S
Cu1680 O1709   1.945   .     S
Cu1680 O1710   1.958   .     S
H1687  C1735   1.111   .     S
H1697  C475    1.111   1_556 S
Br1717 C1608   1.941   1_655 S
Br1719 C1742   1.909   .     S
Br1720 C1743   1.907   .     S
C1721  C1724   1.437   .     S
C1721  O1776   1.300   .     A
C1721  O1771   1.293   .     A
C1722  C1724   1.395   .     A
C1722  H1758   1.083   .     S
C1723  C1743   1.403   .     A
C1723  C1732   1.444   .     S
C1723  C1744   1.397   .     A
C1724  C1742   1.400   .     A
C1725  O1782   1.383   .     S
C1725  N1770   1.374   .     A
C1726  O1772   1.383   .     S
C1726  N1769   1.375   .     A
C1726  C540    1.433   1_556 S
C1727  N1769   1.376   .     A
C1727  O1773   1.393   .     S
C1727  C537    1.447   1_556 S
C1728  O1774   1.387   .     S
C1728  N1770   1.381   .     A
C1729  O1782   1.421   .     S
C1729  H1762   1.111   .     S
C1729  C1730   1.523   .     S
C1730  H1766   1.111   .     S
C1730  H1765   1.110   .     S
C1730  H1764   1.108   .     S
C1731  C1733   1.522   .     S
C1731  O1772   1.418   .     S
C1731  H1768   1.111   .     S
C1731  H1767   1.097   .     S
C1732  O1777   1.303   .     A
C1732  O1775   1.294   .     A
C1733  H1749   1.111   .     S
C1733  H1750   1.109   .     S
C1733  H1748   1.107   .     S
C1734  H1751   1.108   .     S
C1734  O1773   1.416   .     S
C1734  C1735   1.520   .     S
C1734  H1752   1.104   .     S
C1735  H1754   1.106   .     S
C1735  H1755   1.111   .     S
C1736  H1757   1.112   .     S
C1736  C1737   1.524   .     S
C1736  H1756   1.103   .     S
C1736  O1774   1.411   .     S
C1737  H1761   1.105   .     S
C1737  H1759   1.110   .     S
C1737  H1628   1.111   1_655 S
C1738  O1780   1.297   .     A
C1738  O1778   1.295   .     A
C1738  C1740   1.431   .     S
C1739  O1781   1.301   .     A
C1739  O1779   1.291   .     A
C1739  C1741   1.433   .     S
C1741  C1608   1.353   1_655 S
C1741  Br1586  1.936   1_655 S
C1743  C1326   1.387   1_565 S
C1744  H1747   1.079   .     S
C1744  C1346   1.384   1_565 S
Cu1745 Cu1746  2.707   .     S
Cu1745 O1781   1.973   .     S
Cu1745 O1777   1.958   .     S
Cu1745 O1778   1.980   .     S
Cu1745 O1771   1.945   .     S
Cu1745 N1769   2.035   .     S
Cu1746 O1780   1.973   .     S
Cu1746 O1779   1.980   .     S
Cu1746 N1770   2.035   .     S
Cu1746 O1775   1.945   .     S
Cu1746 O1776   1.958   .     S
H1753  C1603   1.111   1_655 S
H1763  C541    1.111   1_556 S
