data_str_m2_o10_o16_pcu_sym.153
_audit_creation_date              2020-01-03
_audit_creation_method            'Materials Studio'
_symmetry_space_group_name_H-M    'P1'
_symmetry_Int_Tables_number       1
_symmetry_cell_setting            triclinic
loop_
_symmetry_equiv_pos_as_xyz
  x,y,z
_cell_length_a                    22.2631
_cell_length_b                    26.5331
_cell_length_c                    26.8330
_cell_angle_alpha                 94.9001
_cell_angle_beta                  76.5591
_cell_angle_gamma                 102.2668
loop_
_atom_site_label
_atom_site_type_symbol
_atom_site_fract_x
_atom_site_fract_y
_atom_site_fract_z
_atom_site_U_iso_or_equiv
_atom_site_adp_type
_atom_site_occupancy
C1     C     0.18191   0.26637   0.24976   0.00000  Uiso   1.00
C2     C     0.13450   0.15365   0.48798   0.00000  Uiso   1.00
C3     C     0.14764   0.17472   0.43864   0.00000  Uiso   1.00
C4     C     0.18248   0.16862   0.01745   0.00000  Uiso   1.00
C5     C     0.23856   0.20443   0.49678   0.00000  Uiso   1.00
C6     C     0.24213   0.23115   0.45340   0.00000  Uiso   1.00
C7     C     0.19273   0.22000   0.42865   0.00000  Uiso   1.00
C8     C     0.17689   0.15175   0.06700   0.00000  Uiso   1.00
C9     C     0.28026   0.20165   0.07202   0.00000  Uiso   1.00
C10    C     0.10868   0.15668   0.40376   0.00000  Uiso   1.00
C11    C     0.19045   0.32191   0.24980   0.00000  Uiso   1.00
C12    C     0.13214   0.16366   0.34754   0.00000  Uiso   1.00
C13    C     0.14520   0.01159   0.24166   0.00000  Uiso   1.00
C14    C     0.15259   0.06694   0.24667   0.00000  Uiso   1.00
C15    C     0.20095   0.16873   0.15257   0.00000  Uiso   1.00
C16    C     0.28786   0.21773   0.02258   0.00000  Uiso   1.00
C17    C     0.22184   0.17230   0.09627   0.00000  Uiso   1.00
C18    C     0.04854   0.12850   0.42239   0.00000  Uiso   1.00
C19    C     0.03044   0.11267   0.47257   0.00000  Uiso   1.00
C20    C     0.07329   0.12200   0.00512   0.00000  Uiso   1.00
Cu21   Cu    0.10710   0.16105   0.24436   0.00000  Uiso   1.00
Cu22   Cu    0.22623   0.17228   0.25565   0.00000  Uiso   1.00
H23    H     0.00293   0.20492   0.29028   0.00000  Uiso   1.00
H24    H     0.33017   0.12804   0.21010   0.00000  Uiso   1.00
H25    H     0.27859   0.26519   0.44337   0.00000  Uiso   1.00
H26    H     0.33141   0.24311   0.00526   0.00000  Uiso   1.00
H27    H     0.13717   0.12425   0.08540   0.00000  Uiso   1.00
H28    H     0.01504   0.11999   0.39835   0.00000  Uiso   1.00
H29    H     0.31541   0.09338   0.48644   0.00000  Uiso   1.00
N30    N     0.31574   0.18074   0.26416   0.00000  Uiso   1.00
N31    N     0.01759   0.15259   0.23584   0.00000  Uiso   1.00
O32    O     0.12797   0.23807   0.24633   0.00000  Uiso   1.00
O33    O     0.22858   0.24755   0.25587   0.00000  Uiso   1.00
O34    O     0.09181   0.15960   0.31840   0.00000  Uiso   1.00
O35    O     0.19242   0.16908   0.32793   0.00000  Uiso   1.00
O36    O     0.10476   0.08578   0.24414   0.00000  Uiso   1.00
O37    O     0.20536   0.09526   0.25367   0.00000  Uiso   1.00
O38    O     0.14092   0.16425   0.17207   0.00000  Uiso   1.00
O39    O     0.24152   0.17373   0.18161   0.00000  Uiso   1.00
I40    I     0.02584   0.22584   0.10576   0.00000  Uiso   1.00
I41    I     0.05782   0.30768   0.22144   0.00000  Uiso   1.00
O42    O     0.04977   0.11016   0.05603   0.00000  Uiso   1.00
C43    C     0.03339   0.05610   0.06113   0.00000  Uiso   1.00
H44    H     0.07557   0.03830   0.04694   0.00000  Uiso   1.00
H45    H     0.32951   0.03781   0.04020   0.00000  Uiso   1.00
C46    C     0.00750   0.04494   0.11762   0.00000  Uiso   1.00
H47    H     0.29955   0.06339   0.13294   0.00000  Uiso   1.00
H48    H     0.32559   0.00272   0.12245   0.00000  Uiso   1.00
H49    H     0.04432   0.06028   0.13974   0.00000  Uiso   1.00
I50    I     0.15789   0.28394   0.41419   0.00000  Uiso   1.00
O51    O     0.24659   0.01770   0.25956   0.00000  Uiso   1.00
C52    C     0.24282   0.01751   0.31268   0.00000  Uiso   1.00
H53    H     0.24980   0.31309   0.32263   0.00000  Uiso   1.00
H54    H     0.19716   0.02641   0.33517   0.00000  Uiso   1.00
C55    C     0.29417   0.05790   0.32871   0.00000  Uiso   1.00
H56    H     0.28800   0.09713   0.32272   0.00000  Uiso   1.00
H57    H     0.29023   0.05333   0.37007   0.00000  Uiso   1.00
H58    H     0.00767   0.05169   0.30753   0.00000  Uiso   1.00
C59    C     0.51525   0.26637   0.24976   0.00000  Uiso   1.00
C60    C     0.46783   0.15365   0.48798   0.00000  Uiso   1.00
C61    C     0.48097   0.17472   0.43864   0.00000  Uiso   1.00
C62    C     0.51581   0.16862   0.01745   0.00000  Uiso   1.00
C63    C     0.57189   0.20443   0.49678   0.00000  Uiso   1.00
C64    C     0.57547   0.23115   0.45340   0.00000  Uiso   1.00
C65    C     0.52607   0.22000   0.42865   0.00000  Uiso   1.00
C66    C     0.51022   0.15175   0.06700   0.00000  Uiso   1.00
C67    C     0.61360   0.20165   0.07202   0.00000  Uiso   1.00
C68    C     0.44201   0.15668   0.40376   0.00000  Uiso   1.00
C69    C     0.52378   0.32191   0.24980   0.00000  Uiso   1.00
C70    C     0.46548   0.16366   0.34754   0.00000  Uiso   1.00
C71    C     0.47853   0.01159   0.24166   0.00000  Uiso   1.00
C72    C     0.48593   0.06694   0.24667   0.00000  Uiso   1.00
C73    C     0.53428   0.16873   0.15257   0.00000  Uiso   1.00
C74    C     0.62120   0.21773   0.02258   0.00000  Uiso   1.00
C75    C     0.55517   0.17230   0.09627   0.00000  Uiso   1.00
C76    C     0.38187   0.12850   0.42239   0.00000  Uiso   1.00
C77    C     0.36378   0.11267   0.47257   0.00000  Uiso   1.00
C78    C     0.40663   0.12200   0.00512   0.00000  Uiso   1.00
Cu79   Cu    0.44043   0.16105   0.24436   0.00000  Uiso   1.00
Cu80   Cu    0.55957   0.17228   0.25565   0.00000  Uiso   1.00
H81    H     0.33626   0.20492   0.29028   0.00000  Uiso   1.00
H82    H     0.66350   0.12804   0.21010   0.00000  Uiso   1.00
H83    H     0.61192   0.26519   0.44337   0.00000  Uiso   1.00
H84    H     0.66475   0.24311   0.00526   0.00000  Uiso   1.00
H85    H     0.47050   0.12425   0.08540   0.00000  Uiso   1.00
H86    H     0.34838   0.11999   0.39835   0.00000  Uiso   1.00
H87    H     0.64875   0.09338   0.48644   0.00000  Uiso   1.00
N88    N     0.64908   0.18074   0.26416   0.00000  Uiso   1.00
N89    N     0.35092   0.15259   0.23584   0.00000  Uiso   1.00
O90    O     0.46131   0.23807   0.24633   0.00000  Uiso   1.00
O91    O     0.56191   0.24755   0.25587   0.00000  Uiso   1.00
O92    O     0.42515   0.15960   0.31840   0.00000  Uiso   1.00
O93    O     0.52575   0.16908   0.32793   0.00000  Uiso   1.00
O94    O     0.43809   0.08578   0.24414   0.00000  Uiso   1.00
O95    O     0.53869   0.09526   0.25367   0.00000  Uiso   1.00
O96    O     0.47425   0.16425   0.17207   0.00000  Uiso   1.00
O97    O     0.57485   0.17373   0.18161   0.00000  Uiso   1.00
I98    I     0.35917   0.22584   0.10576   0.00000  Uiso   1.00
I99    I     0.39115   0.30768   0.22144   0.00000  Uiso   1.00
O100   O     0.38310   0.11016   0.05603   0.00000  Uiso   1.00
C101   C     0.36673   0.05610   0.06113   0.00000  Uiso   1.00
H102   H     0.40891   0.03830   0.04694   0.00000  Uiso   1.00
H103   H     0.66284   0.03781   0.04020   0.00000  Uiso   1.00
C104   C     0.34083   0.04494   0.11762   0.00000  Uiso   1.00
H105   H     0.63288   0.06339   0.13294   0.00000  Uiso   1.00
H106   H     0.65893   0.00272   0.12245   0.00000  Uiso   1.00
H107   H     0.37766   0.06028   0.13974   0.00000  Uiso   1.00
I108   I     0.49122   0.28394   0.41419   0.00000  Uiso   1.00
O109   O     0.57992   0.01770   0.25956   0.00000  Uiso   1.00
C110   C     0.57615   0.01751   0.31268   0.00000  Uiso   1.00
H111   H     0.58313   0.31309   0.32263   0.00000  Uiso   1.00
H112   H     0.53049   0.02641   0.33517   0.00000  Uiso   1.00
C113   C     0.62750   0.05790   0.32871   0.00000  Uiso   1.00
H114   H     0.62134   0.09713   0.32272   0.00000  Uiso   1.00
H115   H     0.62357   0.05333   0.37007   0.00000  Uiso   1.00
H116   H     0.34100   0.05169   0.30753   0.00000  Uiso   1.00
C117   C     0.84858   0.26637   0.24976   0.00000  Uiso   1.00
C118   C     0.80116   0.15365   0.48798   0.00000  Uiso   1.00
C119   C     0.81431   0.17472   0.43864   0.00000  Uiso   1.00
C120   C     0.84914   0.16862   0.01745   0.00000  Uiso   1.00
C121   C     0.90522   0.20443   0.49678   0.00000  Uiso   1.00
C122   C     0.90880   0.23115   0.45340   0.00000  Uiso   1.00
C123   C     0.85940   0.22000   0.42865   0.00000  Uiso   1.00
C124   C     0.84355   0.15175   0.06700   0.00000  Uiso   1.00
C125   C     0.94693   0.20165   0.07202   0.00000  Uiso   1.00
C126   C     0.77534   0.15668   0.40376   0.00000  Uiso   1.00
C127   C     0.85711   0.32191   0.24980   0.00000  Uiso   1.00
C128   C     0.79881   0.16366   0.34754   0.00000  Uiso   1.00
C129   C     0.81186   0.01159   0.24166   0.00000  Uiso   1.00
C130   C     0.81926   0.06694   0.24667   0.00000  Uiso   1.00
C131   C     0.86762   0.16873   0.15257   0.00000  Uiso   1.00
C132   C     0.95453   0.21773   0.02258   0.00000  Uiso   1.00
C133   C     0.88850   0.17230   0.09627   0.00000  Uiso   1.00
C134   C     0.71521   0.12850   0.42239   0.00000  Uiso   1.00
C135   C     0.69711   0.11267   0.47257   0.00000  Uiso   1.00
C136   C     0.73996   0.12200   0.00512   0.00000  Uiso   1.00
Cu137  Cu    0.77377   0.16105   0.24436   0.00000  Uiso   1.00
Cu138  Cu    0.89290   0.17228   0.25565   0.00000  Uiso   1.00
H139   H     0.66959   0.20492   0.29028   0.00000  Uiso   1.00
H140   H     0.99684   0.12804   0.21010   0.00000  Uiso   1.00
H141   H     0.94526   0.26519   0.44337   0.00000  Uiso   1.00
H142   H     0.99808   0.24311   0.00526   0.00000  Uiso   1.00
H143   H     0.80384   0.12425   0.08540   0.00000  Uiso   1.00
H144   H     0.68171   0.11999   0.39835   0.00000  Uiso   1.00
H145   H     0.98208   0.09338   0.48644   0.00000  Uiso   1.00
N146   N     0.98241   0.18074   0.26416   0.00000  Uiso   1.00
N147   N     0.68426   0.15259   0.23584   0.00000  Uiso   1.00
O148   O     0.79464   0.23807   0.24633   0.00000  Uiso   1.00
O149   O     0.89524   0.24755   0.25587   0.00000  Uiso   1.00
O150   O     0.75848   0.15960   0.31840   0.00000  Uiso   1.00
O151   O     0.85908   0.16908   0.32793   0.00000  Uiso   1.00
O152   O     0.77142   0.08578   0.24414   0.00000  Uiso   1.00
O153   O     0.87203   0.09526   0.25367   0.00000  Uiso   1.00
O154   O     0.80758   0.16425   0.17207   0.00000  Uiso   1.00
O155   O     0.90819   0.17373   0.18161   0.00000  Uiso   1.00
I156   I     0.69250   0.22584   0.10576   0.00000  Uiso   1.00
I157   I     0.72448   0.30768   0.22144   0.00000  Uiso   1.00
O158   O     0.71643   0.11016   0.05603   0.00000  Uiso   1.00
C159   C     0.70006   0.05610   0.06113   0.00000  Uiso   1.00
H160   H     0.74224   0.03830   0.04694   0.00000  Uiso   1.00
H161   H     0.99617   0.03781   0.04020   0.00000  Uiso   1.00
C162   C     0.67416   0.04494   0.11762   0.00000  Uiso   1.00
H163   H     0.96622   0.06339   0.13294   0.00000  Uiso   1.00
H164   H     0.99226   0.00272   0.12245   0.00000  Uiso   1.00
H165   H     0.71099   0.06028   0.13974   0.00000  Uiso   1.00
I166   I     0.82455   0.28394   0.41419   0.00000  Uiso   1.00
O167   O     0.91326   0.01770   0.25956   0.00000  Uiso   1.00
C168   C     0.90949   0.01751   0.31268   0.00000  Uiso   1.00
H169   H     0.91647   0.31309   0.32263   0.00000  Uiso   1.00
H170   H     0.86383   0.02641   0.33517   0.00000  Uiso   1.00
C171   C     0.96083   0.05790   0.32871   0.00000  Uiso   1.00
H172   H     0.95467   0.09713   0.32272   0.00000  Uiso   1.00
H173   H     0.95690   0.05333   0.37007   0.00000  Uiso   1.00
H174   H     0.67434   0.05169   0.30753   0.00000  Uiso   1.00
C175   C     0.18191   0.59971   0.24976   0.00000  Uiso   1.00
C176   C     0.13450   0.48698   0.48798   0.00000  Uiso   1.00
C177   C     0.14764   0.50806   0.43864   0.00000  Uiso   1.00
C178   C     0.18248   0.50195   0.01745   0.00000  Uiso   1.00
C179   C     0.23856   0.53777   0.49678   0.00000  Uiso   1.00
C180   C     0.24213   0.56448   0.45340   0.00000  Uiso   1.00
C181   C     0.19273   0.55333   0.42865   0.00000  Uiso   1.00
C182   C     0.17689   0.48508   0.06700   0.00000  Uiso   1.00
C183   C     0.28026   0.53498   0.07202   0.00000  Uiso   1.00
C184   C     0.10868   0.49001   0.40376   0.00000  Uiso   1.00
C185   C     0.19045   0.65524   0.24980   0.00000  Uiso   1.00
C186   C     0.13214   0.49700   0.34754   0.00000  Uiso   1.00
C187   C     0.14520   0.34492   0.24166   0.00000  Uiso   1.00
C188   C     0.15259   0.40027   0.24667   0.00000  Uiso   1.00
C189   C     0.20095   0.50207   0.15257   0.00000  Uiso   1.00
C190   C     0.28786   0.55106   0.02258   0.00000  Uiso   1.00
C191   C     0.22184   0.50563   0.09627   0.00000  Uiso   1.00
C192   C     0.04854   0.46183   0.42239   0.00000  Uiso   1.00
C193   C     0.03044   0.44600   0.47257   0.00000  Uiso   1.00
C194   C     0.07329   0.45534   0.00512   0.00000  Uiso   1.00
Cu195  Cu    0.10710   0.49439   0.24436   0.00000  Uiso   1.00
Cu196  Cu    0.22623   0.50561   0.25565   0.00000  Uiso   1.00
H197   H     0.00293   0.53826   0.29028   0.00000  Uiso   1.00
H198   H     0.33017   0.46138   0.21010   0.00000  Uiso   1.00
H199   H     0.27859   0.59853   0.44337   0.00000  Uiso   1.00
H200   H     0.33141   0.57644   0.00526   0.00000  Uiso   1.00
H201   H     0.13717   0.45758   0.08540   0.00000  Uiso   1.00
H202   H     0.01504   0.45332   0.39835   0.00000  Uiso   1.00
H203   H     0.31541   0.42672   0.48644   0.00000  Uiso   1.00
N204   N     0.31574   0.51407   0.26416   0.00000  Uiso   1.00
N205   N     0.01759   0.48593   0.23584   0.00000  Uiso   1.00
O206   O     0.12797   0.57141   0.24633   0.00000  Uiso   1.00
O207   O     0.22858   0.58089   0.25587   0.00000  Uiso   1.00
O208   O     0.09181   0.49293   0.31840   0.00000  Uiso   1.00
O209   O     0.19242   0.50241   0.32793   0.00000  Uiso   1.00
O210   O     0.10476   0.41911   0.24414   0.00000  Uiso   1.00
O211   O     0.20536   0.42859   0.25367   0.00000  Uiso   1.00
O212   O     0.14092   0.49759   0.17207   0.00000  Uiso   1.00
O213   O     0.24152   0.50707   0.18161   0.00000  Uiso   1.00
I214   I     0.02584   0.55918   0.10576   0.00000  Uiso   1.00
I215   I     0.05782   0.64101   0.22144   0.00000  Uiso   1.00
O216   O     0.04977   0.44349   0.05603   0.00000  Uiso   1.00
C217   C     0.03339   0.38943   0.06113   0.00000  Uiso   1.00
H218   H     0.07557   0.37163   0.04694   0.00000  Uiso   1.00
H219   H     0.32951   0.37114   0.04020   0.00000  Uiso   1.00
C220   C     0.00750   0.37827   0.11762   0.00000  Uiso   1.00
H221   H     0.29955   0.39673   0.13294   0.00000  Uiso   1.00
H222   H     0.32559   0.33605   0.12245   0.00000  Uiso   1.00
H223   H     0.04432   0.39361   0.13974   0.00000  Uiso   1.00
I224   I     0.15789   0.61727   0.41419   0.00000  Uiso   1.00
O225   O     0.24659   0.35103   0.25956   0.00000  Uiso   1.00
C226   C     0.24282   0.35084   0.31268   0.00000  Uiso   1.00
H227   H     0.24980   0.64642   0.32263   0.00000  Uiso   1.00
H228   H     0.19716   0.35974   0.33517   0.00000  Uiso   1.00
C229   C     0.29417   0.39124   0.32871   0.00000  Uiso   1.00
H230   H     0.28800   0.43047   0.32272   0.00000  Uiso   1.00
H231   H     0.29023   0.38667   0.37007   0.00000  Uiso   1.00
H232   H     0.00767   0.38502   0.30753   0.00000  Uiso   1.00
C233   C     0.51525   0.59971   0.24976   0.00000  Uiso   1.00
C234   C     0.46783   0.48698   0.48798   0.00000  Uiso   1.00
C235   C     0.48097   0.50806   0.43864   0.00000  Uiso   1.00
C236   C     0.51581   0.50195   0.01745   0.00000  Uiso   1.00
C237   C     0.57189   0.53777   0.49678   0.00000  Uiso   1.00
C238   C     0.57547   0.56448   0.45340   0.00000  Uiso   1.00
C239   C     0.52607   0.55333   0.42865   0.00000  Uiso   1.00
C240   C     0.51022   0.48508   0.06700   0.00000  Uiso   1.00
C241   C     0.61360   0.53498   0.07202   0.00000  Uiso   1.00
C242   C     0.44201   0.49001   0.40376   0.00000  Uiso   1.00
C243   C     0.52378   0.65524   0.24980   0.00000  Uiso   1.00
C244   C     0.46548   0.49700   0.34754   0.00000  Uiso   1.00
C245   C     0.47853   0.34492   0.24166   0.00000  Uiso   1.00
C246   C     0.48593   0.40027   0.24667   0.00000  Uiso   1.00
C247   C     0.53428   0.50207   0.15257   0.00000  Uiso   1.00
C248   C     0.62120   0.55106   0.02258   0.00000  Uiso   1.00
C249   C     0.55517   0.50563   0.09627   0.00000  Uiso   1.00
C250   C     0.38187   0.46183   0.42239   0.00000  Uiso   1.00
C251   C     0.36378   0.44600   0.47257   0.00000  Uiso   1.00
C252   C     0.40663   0.45534   0.00512   0.00000  Uiso   1.00
Cu253  Cu    0.44043   0.49439   0.24436   0.00000  Uiso   1.00
Cu254  Cu    0.55957   0.50561   0.25565   0.00000  Uiso   1.00
H255   H     0.33626   0.53826   0.29028   0.00000  Uiso   1.00
H256   H     0.66350   0.46138   0.21010   0.00000  Uiso   1.00
H257   H     0.61192   0.59853   0.44337   0.00000  Uiso   1.00
H258   H     0.66475   0.57644   0.00526   0.00000  Uiso   1.00
H259   H     0.47050   0.45758   0.08540   0.00000  Uiso   1.00
H260   H     0.34838   0.45332   0.39835   0.00000  Uiso   1.00
H261   H     0.64875   0.42672   0.48644   0.00000  Uiso   1.00
N262   N     0.64908   0.51407   0.26416   0.00000  Uiso   1.00
N263   N     0.35092   0.48593   0.23584   0.00000  Uiso   1.00
O264   O     0.46131   0.57141   0.24633   0.00000  Uiso   1.00
O265   O     0.56191   0.58089   0.25587   0.00000  Uiso   1.00
O266   O     0.42515   0.49293   0.31840   0.00000  Uiso   1.00
O267   O     0.52575   0.50241   0.32793   0.00000  Uiso   1.00
O268   O     0.43809   0.41911   0.24414   0.00000  Uiso   1.00
O269   O     0.53869   0.42859   0.25367   0.00000  Uiso   1.00
O270   O     0.47425   0.49759   0.17207   0.00000  Uiso   1.00
O271   O     0.57485   0.50707   0.18161   0.00000  Uiso   1.00
I272   I     0.35917   0.55918   0.10576   0.00000  Uiso   1.00
I273   I     0.39115   0.64101   0.22144   0.00000  Uiso   1.00
O274   O     0.38310   0.44349   0.05603   0.00000  Uiso   1.00
C275   C     0.36673   0.38943   0.06113   0.00000  Uiso   1.00
H276   H     0.40891   0.37163   0.04694   0.00000  Uiso   1.00
H277   H     0.66284   0.37114   0.04020   0.00000  Uiso   1.00
C278   C     0.34083   0.37827   0.11762   0.00000  Uiso   1.00
H279   H     0.63288   0.39673   0.13294   0.00000  Uiso   1.00
H280   H     0.65893   0.33605   0.12245   0.00000  Uiso   1.00
H281   H     0.37766   0.39361   0.13974   0.00000  Uiso   1.00
I282   I     0.49122   0.61727   0.41419   0.00000  Uiso   1.00
O283   O     0.57992   0.35103   0.25956   0.00000  Uiso   1.00
C284   C     0.57615   0.35084   0.31268   0.00000  Uiso   1.00
H285   H     0.58313   0.64642   0.32263   0.00000  Uiso   1.00
H286   H     0.53049   0.35974   0.33517   0.00000  Uiso   1.00
C287   C     0.62750   0.39124   0.32871   0.00000  Uiso   1.00
H288   H     0.62134   0.43047   0.32272   0.00000  Uiso   1.00
H289   H     0.62357   0.38667   0.37007   0.00000  Uiso   1.00
H290   H     0.34100   0.38502   0.30753   0.00000  Uiso   1.00
C291   C     0.84858   0.59971   0.24976   0.00000  Uiso   1.00
C292   C     0.80116   0.48698   0.48798   0.00000  Uiso   1.00
C293   C     0.81431   0.50806   0.43864   0.00000  Uiso   1.00
C294   C     0.84914   0.50195   0.01745   0.00000  Uiso   1.00
C295   C     0.90522   0.53777   0.49678   0.00000  Uiso   1.00
C296   C     0.90880   0.56448   0.45340   0.00000  Uiso   1.00
C297   C     0.85940   0.55333   0.42865   0.00000  Uiso   1.00
C298   C     0.84355   0.48508   0.06700   0.00000  Uiso   1.00
C299   C     0.94693   0.53498   0.07202   0.00000  Uiso   1.00
C300   C     0.77534   0.49001   0.40376   0.00000  Uiso   1.00
C301   C     0.85711   0.65524   0.24980   0.00000  Uiso   1.00
C302   C     0.79881   0.49700   0.34754   0.00000  Uiso   1.00
C303   C     0.81186   0.34492   0.24166   0.00000  Uiso   1.00
C304   C     0.81926   0.40027   0.24667   0.00000  Uiso   1.00
C305   C     0.86762   0.50207   0.15257   0.00000  Uiso   1.00
C306   C     0.95453   0.55106   0.02258   0.00000  Uiso   1.00
C307   C     0.88850   0.50563   0.09627   0.00000  Uiso   1.00
C308   C     0.71521   0.46183   0.42239   0.00000  Uiso   1.00
C309   C     0.69711   0.44600   0.47257   0.00000  Uiso   1.00
C310   C     0.73996   0.45534   0.00512   0.00000  Uiso   1.00
Cu311  Cu    0.77377   0.49439   0.24436   0.00000  Uiso   1.00
Cu312  Cu    0.89290   0.50561   0.25565   0.00000  Uiso   1.00
H313   H     0.66959   0.53826   0.29028   0.00000  Uiso   1.00
H314   H     0.99684   0.46138   0.21010   0.00000  Uiso   1.00
H315   H     0.94526   0.59853   0.44337   0.00000  Uiso   1.00
H316   H     0.99808   0.57644   0.00526   0.00000  Uiso   1.00
H317   H     0.80384   0.45758   0.08540   0.00000  Uiso   1.00
H318   H     0.68171   0.45332   0.39835   0.00000  Uiso   1.00
H319   H     0.98208   0.42672   0.48644   0.00000  Uiso   1.00
N320   N     0.98241   0.51407   0.26416   0.00000  Uiso   1.00
N321   N     0.68426   0.48593   0.23584   0.00000  Uiso   1.00
O322   O     0.79464   0.57141   0.24633   0.00000  Uiso   1.00
O323   O     0.89524   0.58089   0.25587   0.00000  Uiso   1.00
O324   O     0.75848   0.49293   0.31840   0.00000  Uiso   1.00
O325   O     0.85908   0.50241   0.32793   0.00000  Uiso   1.00
O326   O     0.77142   0.41911   0.24414   0.00000  Uiso   1.00
O327   O     0.87203   0.42859   0.25367   0.00000  Uiso   1.00
O328   O     0.80758   0.49759   0.17207   0.00000  Uiso   1.00
O329   O     0.90819   0.50707   0.18161   0.00000  Uiso   1.00
I330   I     0.69250   0.55918   0.10576   0.00000  Uiso   1.00
I331   I     0.72448   0.64101   0.22144   0.00000  Uiso   1.00
O332   O     0.71643   0.44349   0.05603   0.00000  Uiso   1.00
C333   C     0.70006   0.38943   0.06113   0.00000  Uiso   1.00
H334   H     0.74224   0.37163   0.04694   0.00000  Uiso   1.00
H335   H     0.99617   0.37114   0.04020   0.00000  Uiso   1.00
C336   C     0.67416   0.37827   0.11762   0.00000  Uiso   1.00
H337   H     0.96622   0.39673   0.13294   0.00000  Uiso   1.00
H338   H     0.99226   0.33605   0.12245   0.00000  Uiso   1.00
H339   H     0.71099   0.39361   0.13974   0.00000  Uiso   1.00
I340   I     0.82455   0.61727   0.41419   0.00000  Uiso   1.00
O341   O     0.91326   0.35103   0.25956   0.00000  Uiso   1.00
C342   C     0.90949   0.35084   0.31268   0.00000  Uiso   1.00
H343   H     0.91647   0.64642   0.32263   0.00000  Uiso   1.00
H344   H     0.86383   0.35974   0.33517   0.00000  Uiso   1.00
C345   C     0.96083   0.39124   0.32871   0.00000  Uiso   1.00
H346   H     0.95467   0.43047   0.32272   0.00000  Uiso   1.00
H347   H     0.95690   0.38667   0.37007   0.00000  Uiso   1.00
H348   H     0.67434   0.38502   0.30753   0.00000  Uiso   1.00
C349   C     0.18191   0.93304   0.24976   0.00000  Uiso   1.00
C350   C     0.13450   0.82031   0.48798   0.00000  Uiso   1.00
C351   C     0.14764   0.84139   0.43864   0.00000  Uiso   1.00
C352   C     0.18248   0.83528   0.01745   0.00000  Uiso   1.00
C353   C     0.23856   0.87110   0.49678   0.00000  Uiso   1.00
C354   C     0.24213   0.89781   0.45340   0.00000  Uiso   1.00
C355   C     0.19273   0.88667   0.42865   0.00000  Uiso   1.00
C356   C     0.17689   0.81841   0.06700   0.00000  Uiso   1.00
C357   C     0.28026   0.86831   0.07202   0.00000  Uiso   1.00
C358   C     0.10868   0.82335   0.40376   0.00000  Uiso   1.00
C359   C     0.19045   0.98857   0.24980   0.00000  Uiso   1.00
C360   C     0.13214   0.83033   0.34754   0.00000  Uiso   1.00
C361   C     0.14520   0.67825   0.24166   0.00000  Uiso   1.00
C362   C     0.15259   0.73360   0.24667   0.00000  Uiso   1.00
C363   C     0.20095   0.83540   0.15257   0.00000  Uiso   1.00
C364   C     0.28786   0.88440   0.02258   0.00000  Uiso   1.00
C365   C     0.22184   0.83896   0.09627   0.00000  Uiso   1.00
C366   C     0.04854   0.79517   0.42239   0.00000  Uiso   1.00
C367   C     0.03044   0.77933   0.47257   0.00000  Uiso   1.00
C368   C     0.07329   0.78867   0.00512   0.00000  Uiso   1.00
Cu369  Cu    0.10710   0.82772   0.24436   0.00000  Uiso   1.00
Cu370  Cu    0.22623   0.83895   0.25565   0.00000  Uiso   1.00
H371   H     0.00293   0.87159   0.29028   0.00000  Uiso   1.00
H372   H     0.33017   0.79471   0.21010   0.00000  Uiso   1.00
H373   H     0.27859   0.93186   0.44337   0.00000  Uiso   1.00
H374   H     0.33141   0.90978   0.00526   0.00000  Uiso   1.00
H375   H     0.13717   0.79091   0.08540   0.00000  Uiso   1.00
H376   H     0.01504   0.78666   0.39835   0.00000  Uiso   1.00
H377   H     0.31541   0.76005   0.48644   0.00000  Uiso   1.00
N378   N     0.31574   0.84741   0.26416   0.00000  Uiso   1.00
N379   N     0.01759   0.81926   0.23584   0.00000  Uiso   1.00
O380   O     0.12797   0.90474   0.24633   0.00000  Uiso   1.00
O381   O     0.22858   0.91422   0.25587   0.00000  Uiso   1.00
O382   O     0.09181   0.82627   0.31840   0.00000  Uiso   1.00
O383   O     0.19242   0.83575   0.32793   0.00000  Uiso   1.00
O384   O     0.10476   0.75245   0.24414   0.00000  Uiso   1.00
O385   O     0.20536   0.76193   0.25367   0.00000  Uiso   1.00
O386   O     0.14092   0.83092   0.17207   0.00000  Uiso   1.00
O387   O     0.24152   0.84040   0.18161   0.00000  Uiso   1.00
I388   I     0.02584   0.89251   0.10576   0.00000  Uiso   1.00
I389   I     0.05782   0.97434   0.22144   0.00000  Uiso   1.00
O390   O     0.04977   0.77683   0.05603   0.00000  Uiso   1.00
C391   C     0.03339   0.72276   0.06113   0.00000  Uiso   1.00
H392   H     0.07557   0.70496   0.04694   0.00000  Uiso   1.00
H393   H     0.32951   0.70447   0.04020   0.00000  Uiso   1.00
C394   C     0.00750   0.71160   0.11762   0.00000  Uiso   1.00
H395   H     0.29955   0.73006   0.13294   0.00000  Uiso   1.00
H396   H     0.32559   0.66938   0.12245   0.00000  Uiso   1.00
H397   H     0.04432   0.72694   0.13974   0.00000  Uiso   1.00
I398   I     0.15789   0.95061   0.41419   0.00000  Uiso   1.00
O399   O     0.24659   0.68437   0.25956   0.00000  Uiso   1.00
C400   C     0.24282   0.68417   0.31268   0.00000  Uiso   1.00
H401   H     0.24980   0.97976   0.32263   0.00000  Uiso   1.00
H402   H     0.19716   0.69307   0.33517   0.00000  Uiso   1.00
C403   C     0.29417   0.72457   0.32871   0.00000  Uiso   1.00
H404   H     0.28800   0.76380   0.32272   0.00000  Uiso   1.00
H405   H     0.29023   0.72000   0.37007   0.00000  Uiso   1.00
H406   H     0.00767   0.71835   0.30753   0.00000  Uiso   1.00
C407   C     0.51525   0.93304   0.24976   0.00000  Uiso   1.00
C408   C     0.46783   0.82031   0.48798   0.00000  Uiso   1.00
C409   C     0.48097   0.84139   0.43864   0.00000  Uiso   1.00
C410   C     0.51581   0.83528   0.01745   0.00000  Uiso   1.00
C411   C     0.57189   0.87110   0.49678   0.00000  Uiso   1.00
C412   C     0.57547   0.89781   0.45340   0.00000  Uiso   1.00
C413   C     0.52607   0.88667   0.42865   0.00000  Uiso   1.00
C414   C     0.51022   0.81841   0.06700   0.00000  Uiso   1.00
C415   C     0.61360   0.86831   0.07202   0.00000  Uiso   1.00
C416   C     0.44201   0.82335   0.40376   0.00000  Uiso   1.00
C417   C     0.52378   0.98857   0.24980   0.00000  Uiso   1.00
C418   C     0.46548   0.83033   0.34754   0.00000  Uiso   1.00
C419   C     0.47853   0.67825   0.24166   0.00000  Uiso   1.00
C420   C     0.48593   0.73360   0.24667   0.00000  Uiso   1.00
C421   C     0.53428   0.83540   0.15257   0.00000  Uiso   1.00
C422   C     0.62120   0.88440   0.02258   0.00000  Uiso   1.00
C423   C     0.55517   0.83896   0.09627   0.00000  Uiso   1.00
C424   C     0.38187   0.79517   0.42239   0.00000  Uiso   1.00
C425   C     0.36378   0.77933   0.47257   0.00000  Uiso   1.00
C426   C     0.40663   0.78867   0.00512   0.00000  Uiso   1.00
Cu427  Cu    0.44043   0.82772   0.24436   0.00000  Uiso   1.00
Cu428  Cu    0.55957   0.83895   0.25565   0.00000  Uiso   1.00
H429   H     0.33626   0.87159   0.29028   0.00000  Uiso   1.00
H430   H     0.66350   0.79471   0.21010   0.00000  Uiso   1.00
H431   H     0.61192   0.93186   0.44337   0.00000  Uiso   1.00
H432   H     0.66475   0.90978   0.00526   0.00000  Uiso   1.00
H433   H     0.47050   0.79091   0.08540   0.00000  Uiso   1.00
H434   H     0.34838   0.78666   0.39835   0.00000  Uiso   1.00
H435   H     0.64875   0.76005   0.48644   0.00000  Uiso   1.00
N436   N     0.64908   0.84741   0.26416   0.00000  Uiso   1.00
N437   N     0.35092   0.81926   0.23584   0.00000  Uiso   1.00
O438   O     0.46131   0.90474   0.24633   0.00000  Uiso   1.00
O439   O     0.56191   0.91422   0.25587   0.00000  Uiso   1.00
O440   O     0.42515   0.82627   0.31840   0.00000  Uiso   1.00
O441   O     0.52575   0.83575   0.32793   0.00000  Uiso   1.00
O442   O     0.43809   0.75245   0.24414   0.00000  Uiso   1.00
O443   O     0.53869   0.76193   0.25367   0.00000  Uiso   1.00
O444   O     0.47425   0.83092   0.17207   0.00000  Uiso   1.00
O445   O     0.57485   0.84040   0.18161   0.00000  Uiso   1.00
I446   I     0.35917   0.89251   0.10576   0.00000  Uiso   1.00
I447   I     0.39115   0.97434   0.22144   0.00000  Uiso   1.00
O448   O     0.38310   0.77683   0.05603   0.00000  Uiso   1.00
C449   C     0.36673   0.72276   0.06113   0.00000  Uiso   1.00
H450   H     0.40891   0.70496   0.04694   0.00000  Uiso   1.00
H451   H     0.66284   0.70447   0.04020   0.00000  Uiso   1.00
C452   C     0.34083   0.71160   0.11762   0.00000  Uiso   1.00
H453   H     0.63288   0.73006   0.13294   0.00000  Uiso   1.00
H454   H     0.65893   0.66938   0.12245   0.00000  Uiso   1.00
H455   H     0.37766   0.72694   0.13974   0.00000  Uiso   1.00
I456   I     0.49122   0.95061   0.41419   0.00000  Uiso   1.00
O457   O     0.57992   0.68437   0.25956   0.00000  Uiso   1.00
C458   C     0.57615   0.68417   0.31268   0.00000  Uiso   1.00
H459   H     0.58313   0.97976   0.32263   0.00000  Uiso   1.00
H460   H     0.53049   0.69307   0.33517   0.00000  Uiso   1.00
C461   C     0.62750   0.72457   0.32871   0.00000  Uiso   1.00
H462   H     0.62134   0.76380   0.32272   0.00000  Uiso   1.00
H463   H     0.62357   0.72000   0.37007   0.00000  Uiso   1.00
H464   H     0.34100   0.71835   0.30753   0.00000  Uiso   1.00
C465   C     0.84858   0.93304   0.24976   0.00000  Uiso   1.00
C466   C     0.80116   0.82031   0.48798   0.00000  Uiso   1.00
C467   C     0.81431   0.84139   0.43864   0.00000  Uiso   1.00
C468   C     0.84914   0.83528   0.01745   0.00000  Uiso   1.00
C469   C     0.90522   0.87110   0.49678   0.00000  Uiso   1.00
C470   C     0.90880   0.89781   0.45340   0.00000  Uiso   1.00
C471   C     0.85940   0.88667   0.42865   0.00000  Uiso   1.00
C472   C     0.84355   0.81841   0.06700   0.00000  Uiso   1.00
C473   C     0.94693   0.86831   0.07202   0.00000  Uiso   1.00
C474   C     0.77534   0.82335   0.40376   0.00000  Uiso   1.00
C475   C     0.85711   0.98857   0.24980   0.00000  Uiso   1.00
C476   C     0.79881   0.83033   0.34754   0.00000  Uiso   1.00
C477   C     0.81186   0.67825   0.24166   0.00000  Uiso   1.00
C478   C     0.81926   0.73360   0.24667   0.00000  Uiso   1.00
C479   C     0.86762   0.83540   0.15257   0.00000  Uiso   1.00
C480   C     0.95453   0.88440   0.02258   0.00000  Uiso   1.00
C481   C     0.88850   0.83896   0.09627   0.00000  Uiso   1.00
C482   C     0.71521   0.79517   0.42239   0.00000  Uiso   1.00
C483   C     0.69711   0.77933   0.47257   0.00000  Uiso   1.00
C484   C     0.73996   0.78867   0.00512   0.00000  Uiso   1.00
Cu485  Cu    0.77377   0.82772   0.24436   0.00000  Uiso   1.00
Cu486  Cu    0.89290   0.83895   0.25565   0.00000  Uiso   1.00
H487   H     0.66959   0.87159   0.29028   0.00000  Uiso   1.00
H488   H     0.99684   0.79471   0.21010   0.00000  Uiso   1.00
H489   H     0.94526   0.93186   0.44337   0.00000  Uiso   1.00
H490   H     0.99808   0.90978   0.00526   0.00000  Uiso   1.00
H491   H     0.80384   0.79091   0.08540   0.00000  Uiso   1.00
H492   H     0.68171   0.78666   0.39835   0.00000  Uiso   1.00
H493   H     0.98208   0.76005   0.48644   0.00000  Uiso   1.00
N494   N     0.98241   0.84741   0.26416   0.00000  Uiso   1.00
N495   N     0.68426   0.81926   0.23584   0.00000  Uiso   1.00
O496   O     0.79464   0.90474   0.24633   0.00000  Uiso   1.00
O497   O     0.89524   0.91422   0.25587   0.00000  Uiso   1.00
O498   O     0.75848   0.82627   0.31840   0.00000  Uiso   1.00
O499   O     0.85908   0.83575   0.32793   0.00000  Uiso   1.00
O500   O     0.77142   0.75245   0.24414   0.00000  Uiso   1.00
O501   O     0.87203   0.76193   0.25367   0.00000  Uiso   1.00
O502   O     0.80758   0.83092   0.17207   0.00000  Uiso   1.00
O503   O     0.90819   0.84040   0.18161   0.00000  Uiso   1.00
I504   I     0.69250   0.89251   0.10576   0.00000  Uiso   1.00
I505   I     0.72448   0.97434   0.22144   0.00000  Uiso   1.00
O506   O     0.71643   0.77683   0.05603   0.00000  Uiso   1.00
C507   C     0.70006   0.72276   0.06113   0.00000  Uiso   1.00
H508   H     0.74224   0.70496   0.04694   0.00000  Uiso   1.00
H509   H     0.99617   0.70447   0.04020   0.00000  Uiso   1.00
C510   C     0.67416   0.71160   0.11762   0.00000  Uiso   1.00
H511   H     0.96622   0.73006   0.13294   0.00000  Uiso   1.00
H512   H     0.99226   0.66938   0.12245   0.00000  Uiso   1.00
H513   H     0.71099   0.72694   0.13974   0.00000  Uiso   1.00
I514   I     0.82455   0.95061   0.41419   0.00000  Uiso   1.00
O515   O     0.91326   0.68437   0.25956   0.00000  Uiso   1.00
C516   C     0.90949   0.68417   0.31268   0.00000  Uiso   1.00
H517   H     0.91647   0.97976   0.32263   0.00000  Uiso   1.00
H518   H     0.86383   0.69307   0.33517   0.00000  Uiso   1.00
C519   C     0.96083   0.72457   0.32871   0.00000  Uiso   1.00
H520   H     0.95467   0.76380   0.32272   0.00000  Uiso   1.00
H521   H     0.95690   0.72000   0.37007   0.00000  Uiso   1.00
H522   H     0.67434   0.71835   0.30753   0.00000  Uiso   1.00
C523   C     0.18191   0.26637   0.74976   0.00000  Uiso   1.00
C524   C     0.13450   0.15365   0.98798   0.00000  Uiso   1.00
C525   C     0.14764   0.17472   0.93864   0.00000  Uiso   1.00
C526   C     0.18248   0.16862   0.51745   0.00000  Uiso   1.00
C527   C     0.23856   0.20443   0.99678   0.00000  Uiso   1.00
C528   C     0.24213   0.23115   0.95340   0.00000  Uiso   1.00
C529   C     0.19273   0.22000   0.92865   0.00000  Uiso   1.00
C530   C     0.17689   0.15175   0.56700   0.00000  Uiso   1.00
C531   C     0.28026   0.20165   0.57202   0.00000  Uiso   1.00
C532   C     0.10868   0.15668   0.90376   0.00000  Uiso   1.00
C533   C     0.19045   0.32191   0.74980   0.00000  Uiso   1.00
C534   C     0.13214   0.16366   0.84754   0.00000  Uiso   1.00
C535   C     0.14520   0.01159   0.74166   0.00000  Uiso   1.00
C536   C     0.15259   0.06694   0.74667   0.00000  Uiso   1.00
C537   C     0.20095   0.16873   0.65257   0.00000  Uiso   1.00
C538   C     0.28786   0.21773   0.52258   0.00000  Uiso   1.00
C539   C     0.22184   0.17230   0.59627   0.00000  Uiso   1.00
C540   C     0.04854   0.12850   0.92239   0.00000  Uiso   1.00
C541   C     0.03044   0.11267   0.97257   0.00000  Uiso   1.00
C542   C     0.07329   0.12200   0.50512   0.00000  Uiso   1.00
Cu543  Cu    0.10710   0.16105   0.74436   0.00000  Uiso   1.00
Cu544  Cu    0.22623   0.17228   0.75565   0.00000  Uiso   1.00
H545   H     0.00293   0.20492   0.79028   0.00000  Uiso   1.00
H546   H     0.33017   0.12804   0.71010   0.00000  Uiso   1.00
H547   H     0.27859   0.26519   0.94337   0.00000  Uiso   1.00
H548   H     0.33141   0.24311   0.50526   0.00000  Uiso   1.00
H549   H     0.13717   0.12425   0.58540   0.00000  Uiso   1.00
H550   H     0.01504   0.11999   0.89835   0.00000  Uiso   1.00
H551   H     0.31541   0.09338   0.98644   0.00000  Uiso   1.00
N552   N     0.31574   0.18074   0.76416   0.00000  Uiso   1.00
N553   N     0.01759   0.15259   0.73584   0.00000  Uiso   1.00
O554   O     0.12797   0.23807   0.74633   0.00000  Uiso   1.00
O555   O     0.22858   0.24755   0.75587   0.00000  Uiso   1.00
O556   O     0.09181   0.15960   0.81840   0.00000  Uiso   1.00
O557   O     0.19242   0.16908   0.82793   0.00000  Uiso   1.00
O558   O     0.10476   0.08578   0.74414   0.00000  Uiso   1.00
O559   O     0.20536   0.09526   0.75367   0.00000  Uiso   1.00
O560   O     0.14092   0.16425   0.67207   0.00000  Uiso   1.00
O561   O     0.24152   0.17373   0.68161   0.00000  Uiso   1.00
I562   I     0.02584   0.22584   0.60576   0.00000  Uiso   1.00
I563   I     0.05782   0.30768   0.72144   0.00000  Uiso   1.00
O564   O     0.04977   0.11016   0.55603   0.00000  Uiso   1.00
C565   C     0.03339   0.05610   0.56113   0.00000  Uiso   1.00
H566   H     0.07557   0.03830   0.54694   0.00000  Uiso   1.00
H567   H     0.32951   0.03781   0.54020   0.00000  Uiso   1.00
C568   C     0.00750   0.04494   0.61762   0.00000  Uiso   1.00
H569   H     0.29955   0.06339   0.63294   0.00000  Uiso   1.00
H570   H     0.32559   0.00272   0.62245   0.00000  Uiso   1.00
H571   H     0.04432   0.06028   0.63974   0.00000  Uiso   1.00
I572   I     0.15789   0.28394   0.91419   0.00000  Uiso   1.00
O573   O     0.24659   0.01770   0.75956   0.00000  Uiso   1.00
C574   C     0.24282   0.01751   0.81268   0.00000  Uiso   1.00
H575   H     0.24980   0.31309   0.82263   0.00000  Uiso   1.00
H576   H     0.19716   0.02641   0.83517   0.00000  Uiso   1.00
C577   C     0.29417   0.05790   0.82871   0.00000  Uiso   1.00
H578   H     0.28800   0.09713   0.82272   0.00000  Uiso   1.00
H579   H     0.29023   0.05333   0.87007   0.00000  Uiso   1.00
H580   H     0.00767   0.05169   0.80753   0.00000  Uiso   1.00
C581   C     0.51525   0.26637   0.74976   0.00000  Uiso   1.00
C582   C     0.46783   0.15365   0.98798   0.00000  Uiso   1.00
C583   C     0.48097   0.17472   0.93864   0.00000  Uiso   1.00
C584   C     0.51581   0.16862   0.51745   0.00000  Uiso   1.00
C585   C     0.57189   0.20443   0.99678   0.00000  Uiso   1.00
C586   C     0.57547   0.23115   0.95340   0.00000  Uiso   1.00
C587   C     0.52607   0.22000   0.92865   0.00000  Uiso   1.00
C588   C     0.51022   0.15175   0.56700   0.00000  Uiso   1.00
C589   C     0.61360   0.20165   0.57202   0.00000  Uiso   1.00
C590   C     0.44201   0.15668   0.90376   0.00000  Uiso   1.00
C591   C     0.52378   0.32191   0.74980   0.00000  Uiso   1.00
C592   C     0.46548   0.16366   0.84754   0.00000  Uiso   1.00
C593   C     0.47853   0.01159   0.74166   0.00000  Uiso   1.00
C594   C     0.48593   0.06694   0.74667   0.00000  Uiso   1.00
C595   C     0.53428   0.16873   0.65257   0.00000  Uiso   1.00
C596   C     0.62120   0.21773   0.52258   0.00000  Uiso   1.00
C597   C     0.55517   0.17230   0.59627   0.00000  Uiso   1.00
C598   C     0.38187   0.12850   0.92239   0.00000  Uiso   1.00
C599   C     0.36378   0.11267   0.97257   0.00000  Uiso   1.00
C600   C     0.40663   0.12200   0.50512   0.00000  Uiso   1.00
Cu601  Cu    0.44043   0.16105   0.74436   0.00000  Uiso   1.00
Cu602  Cu    0.55957   0.17228   0.75565   0.00000  Uiso   1.00
H603   H     0.33626   0.20492   0.79028   0.00000  Uiso   1.00
H604   H     0.66350   0.12804   0.71010   0.00000  Uiso   1.00
H605   H     0.61192   0.26519   0.94337   0.00000  Uiso   1.00
H606   H     0.66475   0.24311   0.50526   0.00000  Uiso   1.00
H607   H     0.47050   0.12425   0.58540   0.00000  Uiso   1.00
H608   H     0.34838   0.11999   0.89835   0.00000  Uiso   1.00
H609   H     0.64875   0.09338   0.98644   0.00000  Uiso   1.00
N610   N     0.64908   0.18074   0.76416   0.00000  Uiso   1.00
N611   N     0.35092   0.15259   0.73584   0.00000  Uiso   1.00
O612   O     0.46131   0.23807   0.74633   0.00000  Uiso   1.00
O613   O     0.56191   0.24755   0.75587   0.00000  Uiso   1.00
O614   O     0.42515   0.15960   0.81840   0.00000  Uiso   1.00
O615   O     0.52575   0.16908   0.82793   0.00000  Uiso   1.00
O616   O     0.43809   0.08578   0.74414   0.00000  Uiso   1.00
O617   O     0.53869   0.09526   0.75367   0.00000  Uiso   1.00
O618   O     0.47425   0.16425   0.67207   0.00000  Uiso   1.00
O619   O     0.57485   0.17373   0.68161   0.00000  Uiso   1.00
I620   I     0.35917   0.22584   0.60576   0.00000  Uiso   1.00
I621   I     0.39115   0.30768   0.72144   0.00000  Uiso   1.00
O622   O     0.38310   0.11016   0.55603   0.00000  Uiso   1.00
C623   C     0.36673   0.05610   0.56113   0.00000  Uiso   1.00
H624   H     0.40891   0.03830   0.54694   0.00000  Uiso   1.00
H625   H     0.66284   0.03781   0.54020   0.00000  Uiso   1.00
C626   C     0.34083   0.04494   0.61762   0.00000  Uiso   1.00
H627   H     0.63288   0.06339   0.63294   0.00000  Uiso   1.00
H628   H     0.65893   0.00272   0.62245   0.00000  Uiso   1.00
H629   H     0.37766   0.06028   0.63974   0.00000  Uiso   1.00
I630   I     0.49122   0.28394   0.91419   0.00000  Uiso   1.00
O631   O     0.57992   0.01770   0.75956   0.00000  Uiso   1.00
C632   C     0.57615   0.01751   0.81268   0.00000  Uiso   1.00
H633   H     0.58313   0.31309   0.82263   0.00000  Uiso   1.00
H634   H     0.53049   0.02641   0.83517   0.00000  Uiso   1.00
C635   C     0.62750   0.05790   0.82871   0.00000  Uiso   1.00
H636   H     0.62134   0.09713   0.82272   0.00000  Uiso   1.00
H637   H     0.62357   0.05333   0.87007   0.00000  Uiso   1.00
H638   H     0.34100   0.05169   0.80753   0.00000  Uiso   1.00
C639   C     0.84858   0.26637   0.74976   0.00000  Uiso   1.00
C640   C     0.80116   0.15365   0.98798   0.00000  Uiso   1.00
C641   C     0.81431   0.17472   0.93864   0.00000  Uiso   1.00
C642   C     0.84914   0.16862   0.51745   0.00000  Uiso   1.00
C643   C     0.90522   0.20443   0.99678   0.00000  Uiso   1.00
C644   C     0.90880   0.23115   0.95340   0.00000  Uiso   1.00
C645   C     0.85940   0.22000   0.92865   0.00000  Uiso   1.00
C646   C     0.84355   0.15175   0.56700   0.00000  Uiso   1.00
C647   C     0.94693   0.20165   0.57202   0.00000  Uiso   1.00
C648   C     0.77534   0.15668   0.90376   0.00000  Uiso   1.00
C649   C     0.85711   0.32191   0.74980   0.00000  Uiso   1.00
C650   C     0.79881   0.16366   0.84754   0.00000  Uiso   1.00
C651   C     0.81186   0.01159   0.74166   0.00000  Uiso   1.00
C652   C     0.81926   0.06694   0.74667   0.00000  Uiso   1.00
C653   C     0.86762   0.16873   0.65257   0.00000  Uiso   1.00
C654   C     0.95453   0.21773   0.52258   0.00000  Uiso   1.00
C655   C     0.88850   0.17230   0.59627   0.00000  Uiso   1.00
C656   C     0.71521   0.12850   0.92239   0.00000  Uiso   1.00
C657   C     0.69711   0.11267   0.97257   0.00000  Uiso   1.00
C658   C     0.73996   0.12200   0.50512   0.00000  Uiso   1.00
Cu659  Cu    0.77377   0.16105   0.74436   0.00000  Uiso   1.00
Cu660  Cu    0.89290   0.17228   0.75565   0.00000  Uiso   1.00
H661   H     0.66959   0.20492   0.79028   0.00000  Uiso   1.00
H662   H     0.99684   0.12804   0.71010   0.00000  Uiso   1.00
H663   H     0.94526   0.26519   0.94337   0.00000  Uiso   1.00
H664   H     0.99808   0.24311   0.50526   0.00000  Uiso   1.00
H665   H     0.80384   0.12425   0.58540   0.00000  Uiso   1.00
H666   H     0.68171   0.11999   0.89835   0.00000  Uiso   1.00
H667   H     0.98208   0.09338   0.98644   0.00000  Uiso   1.00
N668   N     0.98241   0.18074   0.76416   0.00000  Uiso   1.00
N669   N     0.68426   0.15259   0.73584   0.00000  Uiso   1.00
O670   O     0.79464   0.23807   0.74633   0.00000  Uiso   1.00
O671   O     0.89524   0.24755   0.75587   0.00000  Uiso   1.00
O672   O     0.75848   0.15960   0.81840   0.00000  Uiso   1.00
O673   O     0.85908   0.16908   0.82793   0.00000  Uiso   1.00
O674   O     0.77142   0.08578   0.74414   0.00000  Uiso   1.00
O675   O     0.87203   0.09526   0.75367   0.00000  Uiso   1.00
O676   O     0.80758   0.16425   0.67207   0.00000  Uiso   1.00
O677   O     0.90819   0.17373   0.68161   0.00000  Uiso   1.00
I678   I     0.69250   0.22584   0.60576   0.00000  Uiso   1.00
I679   I     0.72448   0.30768   0.72144   0.00000  Uiso   1.00
O680   O     0.71643   0.11016   0.55603   0.00000  Uiso   1.00
C681   C     0.70006   0.05610   0.56113   0.00000  Uiso   1.00
H682   H     0.74224   0.03830   0.54694   0.00000  Uiso   1.00
H683   H     0.99617   0.03781   0.54020   0.00000  Uiso   1.00
C684   C     0.67416   0.04494   0.61762   0.00000  Uiso   1.00
H685   H     0.96622   0.06339   0.63294   0.00000  Uiso   1.00
H686   H     0.99226   0.00272   0.62245   0.00000  Uiso   1.00
H687   H     0.71099   0.06028   0.63974   0.00000  Uiso   1.00
I688   I     0.82455   0.28394   0.91419   0.00000  Uiso   1.00
O689   O     0.91326   0.01770   0.75956   0.00000  Uiso   1.00
C690   C     0.90949   0.01751   0.81268   0.00000  Uiso   1.00
H691   H     0.91647   0.31309   0.82263   0.00000  Uiso   1.00
H692   H     0.86383   0.02641   0.83517   0.00000  Uiso   1.00
C693   C     0.96083   0.05790   0.82871   0.00000  Uiso   1.00
H694   H     0.95467   0.09713   0.82272   0.00000  Uiso   1.00
H695   H     0.95690   0.05333   0.87007   0.00000  Uiso   1.00
H696   H     0.67434   0.05169   0.80753   0.00000  Uiso   1.00
C697   C     0.18191   0.59971   0.74976   0.00000  Uiso   1.00
C698   C     0.13450   0.48698   0.98798   0.00000  Uiso   1.00
C699   C     0.14764   0.50806   0.93864   0.00000  Uiso   1.00
C700   C     0.18248   0.50195   0.51745   0.00000  Uiso   1.00
C701   C     0.23856   0.53777   0.99678   0.00000  Uiso   1.00
C702   C     0.24213   0.56448   0.95340   0.00000  Uiso   1.00
C703   C     0.19273   0.55333   0.92865   0.00000  Uiso   1.00
C704   C     0.17689   0.48508   0.56700   0.00000  Uiso   1.00
C705   C     0.28026   0.53498   0.57202   0.00000  Uiso   1.00
C706   C     0.10868   0.49001   0.90376   0.00000  Uiso   1.00
C707   C     0.19045   0.65524   0.74980   0.00000  Uiso   1.00
C708   C     0.13214   0.49700   0.84754   0.00000  Uiso   1.00
C709   C     0.14520   0.34492   0.74166   0.00000  Uiso   1.00
C710   C     0.15259   0.40027   0.74667   0.00000  Uiso   1.00
C711   C     0.20095   0.50207   0.65257   0.00000  Uiso   1.00
C712   C     0.28786   0.55106   0.52258   0.00000  Uiso   1.00
C713   C     0.22184   0.50563   0.59627   0.00000  Uiso   1.00
C714   C     0.04854   0.46183   0.92239   0.00000  Uiso   1.00
C715   C     0.03044   0.44600   0.97257   0.00000  Uiso   1.00
C716   C     0.07329   0.45534   0.50512   0.00000  Uiso   1.00
Cu717  Cu    0.10710   0.49439   0.74436   0.00000  Uiso   1.00
Cu718  Cu    0.22623   0.50561   0.75565   0.00000  Uiso   1.00
H719   H     0.00293   0.53826   0.79028   0.00000  Uiso   1.00
H720   H     0.33017   0.46138   0.71010   0.00000  Uiso   1.00
H721   H     0.27859   0.59853   0.94337   0.00000  Uiso   1.00
H722   H     0.33141   0.57644   0.50526   0.00000  Uiso   1.00
H723   H     0.13717   0.45758   0.58540   0.00000  Uiso   1.00
H724   H     0.01504   0.45332   0.89835   0.00000  Uiso   1.00
H725   H     0.31541   0.42672   0.98644   0.00000  Uiso   1.00
N726   N     0.31574   0.51407   0.76416   0.00000  Uiso   1.00
N727   N     0.01759   0.48593   0.73584   0.00000  Uiso   1.00
O728   O     0.12797   0.57141   0.74633   0.00000  Uiso   1.00
O729   O     0.22858   0.58089   0.75587   0.00000  Uiso   1.00
O730   O     0.09181   0.49293   0.81840   0.00000  Uiso   1.00
O731   O     0.19242   0.50241   0.82793   0.00000  Uiso   1.00
O732   O     0.10476   0.41911   0.74414   0.00000  Uiso   1.00
O733   O     0.20536   0.42859   0.75367   0.00000  Uiso   1.00
O734   O     0.14092   0.49759   0.67207   0.00000  Uiso   1.00
O735   O     0.24152   0.50707   0.68161   0.00000  Uiso   1.00
I736   I     0.02584   0.55918   0.60576   0.00000  Uiso   1.00
I737   I     0.05782   0.64101   0.72144   0.00000  Uiso   1.00
O738   O     0.04977   0.44349   0.55603   0.00000  Uiso   1.00
C739   C     0.03339   0.38943   0.56113   0.00000  Uiso   1.00
H740   H     0.07557   0.37163   0.54694   0.00000  Uiso   1.00
H741   H     0.32951   0.37114   0.54020   0.00000  Uiso   1.00
C742   C     0.00750   0.37827   0.61762   0.00000  Uiso   1.00
H743   H     0.29955   0.39673   0.63294   0.00000  Uiso   1.00
H744   H     0.32559   0.33605   0.62245   0.00000  Uiso   1.00
H745   H     0.04432   0.39361   0.63974   0.00000  Uiso   1.00
I746   I     0.15789   0.61727   0.91419   0.00000  Uiso   1.00
O747   O     0.24659   0.35103   0.75956   0.00000  Uiso   1.00
C748   C     0.24282   0.35084   0.81268   0.00000  Uiso   1.00
H749   H     0.24980   0.64642   0.82263   0.00000  Uiso   1.00
H750   H     0.19716   0.35974   0.83517   0.00000  Uiso   1.00
C751   C     0.29417   0.39124   0.82871   0.00000  Uiso   1.00
H752   H     0.28800   0.43047   0.82272   0.00000  Uiso   1.00
H753   H     0.29023   0.38667   0.87007   0.00000  Uiso   1.00
H754   H     0.00767   0.38502   0.80753   0.00000  Uiso   1.00
C755   C     0.51525   0.59971   0.74976   0.00000  Uiso   1.00
C756   C     0.46783   0.48698   0.98798   0.00000  Uiso   1.00
C757   C     0.48097   0.50806   0.93864   0.00000  Uiso   1.00
C758   C     0.51581   0.50195   0.51745   0.00000  Uiso   1.00
C759   C     0.57189   0.53777   0.99678   0.00000  Uiso   1.00
C760   C     0.57547   0.56448   0.95340   0.00000  Uiso   1.00
C761   C     0.52607   0.55333   0.92865   0.00000  Uiso   1.00
C762   C     0.51022   0.48508   0.56700   0.00000  Uiso   1.00
C763   C     0.61360   0.53498   0.57202   0.00000  Uiso   1.00
C764   C     0.44201   0.49001   0.90376   0.00000  Uiso   1.00
C765   C     0.52378   0.65524   0.74980   0.00000  Uiso   1.00
C766   C     0.46548   0.49700   0.84754   0.00000  Uiso   1.00
C767   C     0.47853   0.34492   0.74166   0.00000  Uiso   1.00
C768   C     0.48593   0.40027   0.74667   0.00000  Uiso   1.00
C769   C     0.53428   0.50207   0.65257   0.00000  Uiso   1.00
C770   C     0.62120   0.55106   0.52258   0.00000  Uiso   1.00
C771   C     0.55517   0.50563   0.59627   0.00000  Uiso   1.00
C772   C     0.38187   0.46183   0.92239   0.00000  Uiso   1.00
C773   C     0.36378   0.44600   0.97257   0.00000  Uiso   1.00
C774   C     0.40663   0.45534   0.50512   0.00000  Uiso   1.00
Cu775  Cu    0.44043   0.49439   0.74436   0.00000  Uiso   1.00
Cu776  Cu    0.55957   0.50561   0.75565   0.00000  Uiso   1.00
H777   H     0.33626   0.53826   0.79028   0.00000  Uiso   1.00
H778   H     0.66350   0.46138   0.71010   0.00000  Uiso   1.00
H779   H     0.61192   0.59853   0.94337   0.00000  Uiso   1.00
H780   H     0.66475   0.57644   0.50526   0.00000  Uiso   1.00
H781   H     0.47050   0.45758   0.58540   0.00000  Uiso   1.00
H782   H     0.34838   0.45332   0.89835   0.00000  Uiso   1.00
H783   H     0.64875   0.42672   0.98644   0.00000  Uiso   1.00
N784   N     0.64908   0.51407   0.76416   0.00000  Uiso   1.00
N785   N     0.35092   0.48593   0.73584   0.00000  Uiso   1.00
O786   O     0.46131   0.57141   0.74633   0.00000  Uiso   1.00
O787   O     0.56191   0.58089   0.75587   0.00000  Uiso   1.00
O788   O     0.42515   0.49293   0.81840   0.00000  Uiso   1.00
O789   O     0.52575   0.50241   0.82793   0.00000  Uiso   1.00
O790   O     0.43809   0.41911   0.74414   0.00000  Uiso   1.00
O791   O     0.53869   0.42859   0.75367   0.00000  Uiso   1.00
O792   O     0.47425   0.49759   0.67207   0.00000  Uiso   1.00
O793   O     0.57485   0.50707   0.68161   0.00000  Uiso   1.00
I794   I     0.35917   0.55918   0.60576   0.00000  Uiso   1.00
I795   I     0.39115   0.64101   0.72144   0.00000  Uiso   1.00
O796   O     0.38310   0.44349   0.55603   0.00000  Uiso   1.00
C797   C     0.36673   0.38943   0.56113   0.00000  Uiso   1.00
H798   H     0.40891   0.37163   0.54694   0.00000  Uiso   1.00
H799   H     0.66284   0.37114   0.54020   0.00000  Uiso   1.00
C800   C     0.34083   0.37827   0.61762   0.00000  Uiso   1.00
H801   H     0.63288   0.39673   0.63294   0.00000  Uiso   1.00
H802   H     0.65893   0.33605   0.62245   0.00000  Uiso   1.00
H803   H     0.37766   0.39361   0.63974   0.00000  Uiso   1.00
I804   I     0.49122   0.61727   0.91419   0.00000  Uiso   1.00
O805   O     0.57992   0.35103   0.75956   0.00000  Uiso   1.00
C806   C     0.57615   0.35084   0.81268   0.00000  Uiso   1.00
H807   H     0.58313   0.64642   0.82263   0.00000  Uiso   1.00
H808   H     0.53049   0.35974   0.83517   0.00000  Uiso   1.00
C809   C     0.62750   0.39124   0.82871   0.00000  Uiso   1.00
H810   H     0.62134   0.43047   0.82272   0.00000  Uiso   1.00
H811   H     0.62357   0.38667   0.87007   0.00000  Uiso   1.00
H812   H     0.34100   0.38502   0.80753   0.00000  Uiso   1.00
C813   C     0.84858   0.59971   0.74976   0.00000  Uiso   1.00
C814   C     0.80116   0.48698   0.98798   0.00000  Uiso   1.00
C815   C     0.81431   0.50806   0.93864   0.00000  Uiso   1.00
C816   C     0.84914   0.50195   0.51745   0.00000  Uiso   1.00
C817   C     0.90522   0.53777   0.99678   0.00000  Uiso   1.00
C818   C     0.90880   0.56448   0.95340   0.00000  Uiso   1.00
C819   C     0.85940   0.55333   0.92865   0.00000  Uiso   1.00
C820   C     0.84355   0.48508   0.56700   0.00000  Uiso   1.00
C821   C     0.94693   0.53498   0.57202   0.00000  Uiso   1.00
C822   C     0.77534   0.49001   0.90376   0.00000  Uiso   1.00
C823   C     0.85711   0.65524   0.74980   0.00000  Uiso   1.00
C824   C     0.79881   0.49700   0.84754   0.00000  Uiso   1.00
C825   C     0.81186   0.34492   0.74166   0.00000  Uiso   1.00
C826   C     0.81926   0.40027   0.74667   0.00000  Uiso   1.00
C827   C     0.86762   0.50207   0.65257   0.00000  Uiso   1.00
C828   C     0.95453   0.55106   0.52258   0.00000  Uiso   1.00
C829   C     0.88850   0.50563   0.59627   0.00000  Uiso   1.00
C830   C     0.71521   0.46183   0.92239   0.00000  Uiso   1.00
C831   C     0.69711   0.44600   0.97257   0.00000  Uiso   1.00
C832   C     0.73996   0.45534   0.50512   0.00000  Uiso   1.00
Cu833  Cu    0.77377   0.49439   0.74436   0.00000  Uiso   1.00
Cu834  Cu    0.89290   0.50561   0.75565   0.00000  Uiso   1.00
H835   H     0.66959   0.53826   0.79028   0.00000  Uiso   1.00
H836   H     0.99684   0.46138   0.71010   0.00000  Uiso   1.00
H837   H     0.94526   0.59853   0.94337   0.00000  Uiso   1.00
H838   H     0.99808   0.57644   0.50526   0.00000  Uiso   1.00
H839   H     0.80384   0.45758   0.58540   0.00000  Uiso   1.00
H840   H     0.68171   0.45332   0.89835   0.00000  Uiso   1.00
H841   H     0.98208   0.42672   0.98644   0.00000  Uiso   1.00
N842   N     0.98241   0.51407   0.76416   0.00000  Uiso   1.00
N843   N     0.68426   0.48593   0.73584   0.00000  Uiso   1.00
O844   O     0.79464   0.57141   0.74633   0.00000  Uiso   1.00
O845   O     0.89524   0.58089   0.75587   0.00000  Uiso   1.00
O846   O     0.75848   0.49293   0.81840   0.00000  Uiso   1.00
O847   O     0.85908   0.50241   0.82793   0.00000  Uiso   1.00
O848   O     0.77142   0.41911   0.74414   0.00000  Uiso   1.00
O849   O     0.87203   0.42859   0.75367   0.00000  Uiso   1.00
O850   O     0.80758   0.49759   0.67207   0.00000  Uiso   1.00
O851   O     0.90819   0.50707   0.68161   0.00000  Uiso   1.00
I852   I     0.69250   0.55918   0.60576   0.00000  Uiso   1.00
I853   I     0.72448   0.64101   0.72144   0.00000  Uiso   1.00
O854   O     0.71643   0.44349   0.55603   0.00000  Uiso   1.00
C855   C     0.70006   0.38943   0.56113   0.00000  Uiso   1.00
H856   H     0.74224   0.37163   0.54694   0.00000  Uiso   1.00
H857   H     0.99617   0.37114   0.54020   0.00000  Uiso   1.00
C858   C     0.67416   0.37827   0.61762   0.00000  Uiso   1.00
H859   H     0.96622   0.39673   0.63294   0.00000  Uiso   1.00
H860   H     0.99226   0.33605   0.62245   0.00000  Uiso   1.00
H861   H     0.71099   0.39361   0.63974   0.00000  Uiso   1.00
I862   I     0.82455   0.61727   0.91419   0.00000  Uiso   1.00
O863   O     0.91326   0.35103   0.75956   0.00000  Uiso   1.00
C864   C     0.90949   0.35084   0.81268   0.00000  Uiso   1.00
H865   H     0.91647   0.64642   0.82263   0.00000  Uiso   1.00
H866   H     0.86383   0.35974   0.83517   0.00000  Uiso   1.00
C867   C     0.96083   0.39124   0.82871   0.00000  Uiso   1.00
H868   H     0.95467   0.43047   0.82272   0.00000  Uiso   1.00
H869   H     0.95690   0.38667   0.87007   0.00000  Uiso   1.00
H870   H     0.67434   0.38502   0.80753   0.00000  Uiso   1.00
C871   C     0.18191   0.93304   0.74976   0.00000  Uiso   1.00
C872   C     0.13450   0.82031   0.98798   0.00000  Uiso   1.00
C873   C     0.14764   0.84139   0.93864   0.00000  Uiso   1.00
C874   C     0.18248   0.83528   0.51745   0.00000  Uiso   1.00
C875   C     0.23856   0.87110   0.99678   0.00000  Uiso   1.00
C876   C     0.24213   0.89781   0.95340   0.00000  Uiso   1.00
C877   C     0.19273   0.88667   0.92865   0.00000  Uiso   1.00
C878   C     0.17689   0.81841   0.56700   0.00000  Uiso   1.00
C879   C     0.28026   0.86831   0.57202   0.00000  Uiso   1.00
C880   C     0.10868   0.82335   0.90376   0.00000  Uiso   1.00
C881   C     0.19045   0.98857   0.74980   0.00000  Uiso   1.00
C882   C     0.13214   0.83033   0.84754   0.00000  Uiso   1.00
C883   C     0.14520   0.67825   0.74166   0.00000  Uiso   1.00
C884   C     0.15259   0.73360   0.74667   0.00000  Uiso   1.00
C885   C     0.20095   0.83540   0.65257   0.00000  Uiso   1.00
C886   C     0.28786   0.88440   0.52258   0.00000  Uiso   1.00
C887   C     0.22184   0.83896   0.59627   0.00000  Uiso   1.00
C888   C     0.04854   0.79517   0.92239   0.00000  Uiso   1.00
C889   C     0.03044   0.77933   0.97257   0.00000  Uiso   1.00
C890   C     0.07329   0.78867   0.50512   0.00000  Uiso   1.00
Cu891  Cu    0.10710   0.82772   0.74436   0.00000  Uiso   1.00
Cu892  Cu    0.22623   0.83895   0.75565   0.00000  Uiso   1.00
H893   H     0.00293   0.87159   0.79028   0.00000  Uiso   1.00
H894   H     0.33017   0.79471   0.71010   0.00000  Uiso   1.00
H895   H     0.27859   0.93186   0.94337   0.00000  Uiso   1.00
H896   H     0.33141   0.90978   0.50526   0.00000  Uiso   1.00
H897   H     0.13717   0.79091   0.58540   0.00000  Uiso   1.00
H898   H     0.01504   0.78666   0.89835   0.00000  Uiso   1.00
H899   H     0.31541   0.76005   0.98644   0.00000  Uiso   1.00
N900   N     0.31574   0.84741   0.76416   0.00000  Uiso   1.00
N901   N     0.01759   0.81926   0.73584   0.00000  Uiso   1.00
O902   O     0.12797   0.90474   0.74633   0.00000  Uiso   1.00
O903   O     0.22858   0.91422   0.75587   0.00000  Uiso   1.00
O904   O     0.09181   0.82627   0.81840   0.00000  Uiso   1.00
O905   O     0.19242   0.83575   0.82793   0.00000  Uiso   1.00
O906   O     0.10476   0.75245   0.74414   0.00000  Uiso   1.00
O907   O     0.20536   0.76193   0.75367   0.00000  Uiso   1.00
O908   O     0.14092   0.83092   0.67207   0.00000  Uiso   1.00
O909   O     0.24152   0.84040   0.68161   0.00000  Uiso   1.00
I910   I     0.02584   0.89251   0.60576   0.00000  Uiso   1.00
I911   I     0.05782   0.97434   0.72144   0.00000  Uiso   1.00
O912   O     0.04977   0.77683   0.55603   0.00000  Uiso   1.00
C913   C     0.03339   0.72276   0.56113   0.00000  Uiso   1.00
H914   H     0.07557   0.70496   0.54694   0.00000  Uiso   1.00
H915   H     0.32951   0.70447   0.54020   0.00000  Uiso   1.00
C916   C     0.00750   0.71160   0.61762   0.00000  Uiso   1.00
H917   H     0.29955   0.73006   0.63294   0.00000  Uiso   1.00
H918   H     0.32559   0.66938   0.62245   0.00000  Uiso   1.00
H919   H     0.04432   0.72694   0.63974   0.00000  Uiso   1.00
I920   I     0.15789   0.95061   0.91419   0.00000  Uiso   1.00
O921   O     0.24659   0.68437   0.75956   0.00000  Uiso   1.00
C922   C     0.24282   0.68417   0.81268   0.00000  Uiso   1.00
H923   H     0.24980   0.97976   0.82263   0.00000  Uiso   1.00
H924   H     0.19716   0.69307   0.83517   0.00000  Uiso   1.00
C925   C     0.29417   0.72457   0.82871   0.00000  Uiso   1.00
H926   H     0.28800   0.76380   0.82272   0.00000  Uiso   1.00
H927   H     0.29023   0.72000   0.87007   0.00000  Uiso   1.00
H928   H     0.00767   0.71835   0.80753   0.00000  Uiso   1.00
C929   C     0.51525   0.93304   0.74976   0.00000  Uiso   1.00
C930   C     0.46783   0.82031   0.98798   0.00000  Uiso   1.00
C931   C     0.48097   0.84139   0.93864   0.00000  Uiso   1.00
C932   C     0.51581   0.83528   0.51745   0.00000  Uiso   1.00
C933   C     0.57189   0.87110   0.99678   0.00000  Uiso   1.00
C934   C     0.57547   0.89781   0.95340   0.00000  Uiso   1.00
C935   C     0.52607   0.88667   0.92865   0.00000  Uiso   1.00
C936   C     0.51022   0.81841   0.56700   0.00000  Uiso   1.00
C937   C     0.61360   0.86831   0.57202   0.00000  Uiso   1.00
C938   C     0.44201   0.82335   0.90376   0.00000  Uiso   1.00
C939   C     0.52378   0.98857   0.74980   0.00000  Uiso   1.00
C940   C     0.46548   0.83033   0.84754   0.00000  Uiso   1.00
C941   C     0.47853   0.67825   0.74166   0.00000  Uiso   1.00
C942   C     0.48593   0.73360   0.74667   0.00000  Uiso   1.00
C943   C     0.53428   0.83540   0.65257   0.00000  Uiso   1.00
C944   C     0.62120   0.88440   0.52258   0.00000  Uiso   1.00
C945   C     0.55517   0.83896   0.59627   0.00000  Uiso   1.00
C946   C     0.38187   0.79517   0.92239   0.00000  Uiso   1.00
C947   C     0.36378   0.77933   0.97257   0.00000  Uiso   1.00
C948   C     0.40663   0.78867   0.50512   0.00000  Uiso   1.00
Cu949  Cu    0.44043   0.82772   0.74436   0.00000  Uiso   1.00
Cu950  Cu    0.55957   0.83895   0.75565   0.00000  Uiso   1.00
H951   H     0.33626   0.87159   0.79028   0.00000  Uiso   1.00
H952   H     0.66350   0.79471   0.71010   0.00000  Uiso   1.00
H953   H     0.61192   0.93186   0.94337   0.00000  Uiso   1.00
H954   H     0.66475   0.90978   0.50526   0.00000  Uiso   1.00
H955   H     0.47050   0.79091   0.58540   0.00000  Uiso   1.00
H956   H     0.34838   0.78666   0.89835   0.00000  Uiso   1.00
H957   H     0.64875   0.76005   0.98644   0.00000  Uiso   1.00
N958   N     0.64908   0.84741   0.76416   0.00000  Uiso   1.00
N959   N     0.35092   0.81926   0.73584   0.00000  Uiso   1.00
O960   O     0.46131   0.90474   0.74633   0.00000  Uiso   1.00
O961   O     0.56191   0.91422   0.75587   0.00000  Uiso   1.00
O962   O     0.42515   0.82627   0.81840   0.00000  Uiso   1.00
O963   O     0.52575   0.83575   0.82793   0.00000  Uiso   1.00
O964   O     0.43809   0.75245   0.74414   0.00000  Uiso   1.00
O965   O     0.53869   0.76193   0.75367   0.00000  Uiso   1.00
O966   O     0.47425   0.83092   0.67207   0.00000  Uiso   1.00
O967   O     0.57485   0.84040   0.68161   0.00000  Uiso   1.00
I968   I     0.35917   0.89251   0.60576   0.00000  Uiso   1.00
I969   I     0.39115   0.97434   0.72144   0.00000  Uiso   1.00
O970   O     0.38310   0.77683   0.55603   0.00000  Uiso   1.00
C971   C     0.36673   0.72276   0.56113   0.00000  Uiso   1.00
H972   H     0.40891   0.70496   0.54694   0.00000  Uiso   1.00
H973   H     0.66284   0.70447   0.54020   0.00000  Uiso   1.00
C974   C     0.34083   0.71160   0.61762   0.00000  Uiso   1.00
H975   H     0.63288   0.73006   0.63294   0.00000  Uiso   1.00
H976   H     0.65893   0.66938   0.62245   0.00000  Uiso   1.00
H977   H     0.37766   0.72694   0.63974   0.00000  Uiso   1.00
I978   I     0.49122   0.95061   0.91419   0.00000  Uiso   1.00
O979   O     0.57992   0.68437   0.75956   0.00000  Uiso   1.00
C980   C     0.57615   0.68417   0.81268   0.00000  Uiso   1.00
H981   H     0.58313   0.97976   0.82263   0.00000  Uiso   1.00
H982   H     0.53049   0.69307   0.83517   0.00000  Uiso   1.00
C983   C     0.62750   0.72457   0.82871   0.00000  Uiso   1.00
H984   H     0.62134   0.76380   0.82272   0.00000  Uiso   1.00
H985   H     0.62357   0.72000   0.87007   0.00000  Uiso   1.00
H986   H     0.34100   0.71835   0.80753   0.00000  Uiso   1.00
C987   C     0.84858   0.93304   0.74976   0.00000  Uiso   1.00
C988   C     0.80116   0.82031   0.98798   0.00000  Uiso   1.00
C989   C     0.81431   0.84139   0.93864   0.00000  Uiso   1.00
C990   C     0.84914   0.83528   0.51745   0.00000  Uiso   1.00
C991   C     0.90522   0.87110   0.99678   0.00000  Uiso   1.00
C992   C     0.90880   0.89781   0.95340   0.00000  Uiso   1.00
C993   C     0.85940   0.88667   0.92865   0.00000  Uiso   1.00
C994   C     0.84355   0.81841   0.56700   0.00000  Uiso   1.00
C995   C     0.94693   0.86831   0.57202   0.00000  Uiso   1.00
C996   C     0.77534   0.82335   0.90376   0.00000  Uiso   1.00
C997   C     0.85711   0.98857   0.74980   0.00000  Uiso   1.00
C998   C     0.79881   0.83033   0.84754   0.00000  Uiso   1.00
C999   C     0.81186   0.67825   0.74166   0.00000  Uiso   1.00
C1000  C     0.81926   0.73360   0.74667   0.00000  Uiso   1.00
C1001  C     0.86762   0.83540   0.65257   0.00000  Uiso   1.00
C1002  C     0.95453   0.88440   0.52258   0.00000  Uiso   1.00
C1003  C     0.88850   0.83896   0.59627   0.00000  Uiso   1.00
C1004  C     0.71521   0.79517   0.92239   0.00000  Uiso   1.00
C1005  C     0.69711   0.77933   0.97257   0.00000  Uiso   1.00
C1006  C     0.73996   0.78867   0.50512   0.00000  Uiso   1.00
Cu1007 Cu    0.77377   0.82772   0.74436   0.00000  Uiso   1.00
Cu1008 Cu    0.89290   0.83895   0.75565   0.00000  Uiso   1.00
H1009  H     0.66959   0.87159   0.79028   0.00000  Uiso   1.00
H1010  H     0.99684   0.79471   0.71010   0.00000  Uiso   1.00
H1011  H     0.94526   0.93186   0.94337   0.00000  Uiso   1.00
H1012  H     0.99808   0.90978   0.50526   0.00000  Uiso   1.00
H1013  H     0.80384   0.79091   0.58540   0.00000  Uiso   1.00
H1014  H     0.68171   0.78666   0.89835   0.00000  Uiso   1.00
H1015  H     0.98208   0.76005   0.98644   0.00000  Uiso   1.00
N1016  N     0.98241   0.84741   0.76416   0.00000  Uiso   1.00
N1017  N     0.68426   0.81926   0.73584   0.00000  Uiso   1.00
O1018  O     0.79464   0.90474   0.74633   0.00000  Uiso   1.00
O1019  O     0.89524   0.91422   0.75587   0.00000  Uiso   1.00
O1020  O     0.75848   0.82627   0.81840   0.00000  Uiso   1.00
O1021  O     0.85908   0.83575   0.82793   0.00000  Uiso   1.00
O1022  O     0.77142   0.75245   0.74414   0.00000  Uiso   1.00
O1023  O     0.87203   0.76193   0.75367   0.00000  Uiso   1.00
O1024  O     0.80758   0.83092   0.67207   0.00000  Uiso   1.00
O1025  O     0.90819   0.84040   0.68161   0.00000  Uiso   1.00
I1026  I     0.69250   0.89251   0.60576   0.00000  Uiso   1.00
I1027  I     0.72448   0.97434   0.72144   0.00000  Uiso   1.00
O1028  O     0.71643   0.77683   0.55603   0.00000  Uiso   1.00
C1029  C     0.70006   0.72276   0.56113   0.00000  Uiso   1.00
H1030  H     0.74224   0.70496   0.54694   0.00000  Uiso   1.00
H1031  H     0.99617   0.70447   0.54020   0.00000  Uiso   1.00
C1032  C     0.67416   0.71160   0.61762   0.00000  Uiso   1.00
H1033  H     0.96622   0.73006   0.63294   0.00000  Uiso   1.00
H1034  H     0.99226   0.66938   0.62245   0.00000  Uiso   1.00
H1035  H     0.71099   0.72694   0.63974   0.00000  Uiso   1.00
I1036  I     0.82455   0.95061   0.91419   0.00000  Uiso   1.00
O1037  O     0.91326   0.68437   0.75956   0.00000  Uiso   1.00
C1038  C     0.90949   0.68417   0.81268   0.00000  Uiso   1.00
H1039  H     0.91647   0.97976   0.82263   0.00000  Uiso   1.00
H1040  H     0.86383   0.69307   0.83517   0.00000  Uiso   1.00
C1041  C     0.96083   0.72457   0.82871   0.00000  Uiso   1.00
H1042  H     0.95467   0.76380   0.82272   0.00000  Uiso   1.00
H1043  H     0.95690   0.72000   0.87007   0.00000  Uiso   1.00
H1044  H     0.67434   0.71835   0.80753   0.00000  Uiso   1.00
loop_
_geom_bond_atom_site_label_1
_geom_bond_atom_site_label_2
_geom_bond_distance
_geom_bond_site_symmetry_2
_ccdc_geom_bond_type
C1     C11     1.445   .     S
C1     O33     1.292   .     A
C1     O32     1.293   .     A
C2     C3      1.424   .     A
C2     C526    1.443   .     S
C2     C542    1.436   .     S
C3     C7      1.393   .     A
C3     C10     1.408   .     A
C4     C8      1.409   .     A
C4     C524    1.443   1_554 S
C4     C527    1.426   1_554 S
C5     C6      1.392   .     A
C5     C526    1.426   .     S
C5     C538    1.399   .     S
C6     C7      1.380   .     A
C6     H25     1.084   .     S
C7     I50     2.108   .     S
C8     H27     1.069   .     S
C8     C17     1.406   .     A
C9     C17     1.409   .     A
C9     C16     1.390   .     A
C9     I98     2.116   .     S
C10    C12     1.491   .     S
C10    C18     1.389   .     A
C11    C187    1.350   .     S
C11    O225    1.391   .     S
C12    O35     1.304   .     A
C12    O34     1.304   .     A
C13    C14     1.441   .     S
C13    C359    1.350   1_545 S
C13    I389    2.153   1_545 S
C14    O36     1.286   .     A
C14    O37     1.297   .     A
C15    O38     1.301   .     A
C15    O39     1.303   .     A
C15    C17     1.479   .     S
C16    H26     1.085   .     S
C16    C527    1.399   1_554 S
C18    H28     1.073   .     S
C18    C19     1.387   .     A
C19    C542    1.409   .     S
C19    H145    1.083   1_455 S
C20    O42     1.382   .     S
C20    C524    1.436   1_554 S
C20    C541    1.409   1_554 S
Cu21   N31     2.022   .     S
Cu21   O36     1.986   .     S
Cu21   O32     1.996   .     S
Cu21   O34     1.938   .     S
Cu21   Cu22    2.690   .     S
Cu21   O38     1.913   .     S
Cu22   O35     1.913   .     S
Cu22   O39     1.938   .     S
Cu22   N30     2.022   .     S
Cu22   O37     1.996   .     S
Cu22   O33     1.986   .     S
H23    N146    1.029   1_455 S
H24    N89     1.029   .     S
H29    C77     1.083   .     S
N30    H81     1.029   .     S
N30    N89     1.274   .     S
N31    H140    1.029   1_455 S
N31    N146    1.274   1_455 S
I40    C125    2.116   1_455 S
I41    C187    2.153   .     S
O42    C43     1.413   .     S
C43    H44     1.114   .     S
C43    C46     1.522   .     S
C43    H161    1.112   1_455 S
H45    C101    1.112   .     S
C46    H49     1.111   .     S
C46    H163    1.111   1_455 S
C46    H164    1.109   1_455 S
H47    C104    1.111   .     S
H48    C104    1.109   .     S
O51    C52     1.409   .     S
O51    C359    1.391   1_545 S
C52    C55     1.507   .     S
C52    H54     1.116   .     S
C52    H401    1.109   1_545 S
H53    C226    1.109   .     S
C55    H56     1.108   .     S
C55    H57     1.108   .     S
C55    H116    1.104   .     S
H58    C171    1.104   1_455 S
C59    C69     1.445   .     S
C59    O91     1.292   .     A
C59    O90     1.293   .     A
C60    C61     1.424   .     A
C60    C584    1.443   .     S
C60    C600    1.436   .     S
C61    C65     1.393   .     A
C61    C68     1.408   .     A
C62    C66     1.409   .     A
C62    C582    1.443   1_554 S
C62    C585    1.426   1_554 S
C63    C64     1.392   .     A
C63    C584    1.426   .     S
C63    C596    1.399   .     S
C64    C65     1.380   .     A
C64    H83     1.084   .     S
C65    I108    2.108   .     S
C66    H85     1.069   .     S
C66    C75     1.406   .     A
C67    C75     1.409   .     A
C67    C74     1.390   .     A
C67    I156    2.116   .     S
C68    C70     1.491   .     S
C68    C76     1.389   .     A
C69    C245    1.350   .     S
C69    O283    1.391   .     S
C70    O93     1.304   .     A
C70    O92     1.304   .     A
C71    C72     1.441   .     S
C71    C417    1.350   1_545 S
C71    I447    2.153   1_545 S
C72    O94     1.286   .     A
C72    O95     1.297   .     A
C73    O96     1.301   .     A
C73    O97     1.303   .     A
C73    C75     1.479   .     S
C74    H84     1.085   .     S
C74    C585    1.399   1_554 S
C76    H86     1.073   .     S
C76    C77     1.387   .     A
C77    C600    1.409   .     S
C78    O100    1.382   .     S
C78    C582    1.436   1_554 S
C78    C599    1.409   1_554 S
Cu79   N89     2.022   .     S
Cu79   O94     1.986   .     S
Cu79   O90     1.996   .     S
Cu79   O92     1.938   .     S
Cu79   Cu80    2.690   .     S
Cu79   O96     1.913   .     S
Cu80   O93     1.913   .     S
Cu80   O97     1.938   .     S
Cu80   N88     2.022   .     S
Cu80   O95     1.996   .     S
Cu80   O91     1.986   .     S
H82    N147    1.029   .     S
H87    C135    1.083   .     S
N88    H139    1.029   .     S
N88    N147    1.274   .     S
I99    C245    2.153   .     S
O100   C101    1.413   .     S
C101   H102    1.114   .     S
C101   C104    1.522   .     S
H103   C159    1.112   .     S
C104   H107    1.111   .     S
H105   C162    1.111   .     S
H106   C162    1.109   .     S
O109   C110    1.409   .     S
O109   C417    1.391   1_545 S
C110   C113    1.507   .     S
C110   H112    1.116   .     S
C110   H459    1.109   1_545 S
H111   C284    1.109   .     S
C113   H114    1.108   .     S
C113   H115    1.108   .     S
C113   H174    1.104   .     S
C117   C127    1.445   .     S
C117   O149    1.292   .     A
C117   O148    1.293   .     A
C118   C119    1.424   .     A
C118   C642    1.443   .     S
C118   C658    1.436   .     S
C119   C123    1.393   .     A
C119   C126    1.408   .     A
C120   C124    1.409   .     A
C120   C640    1.443   1_554 S
C120   C643    1.426   1_554 S
C121   C122    1.392   .     A
C121   C642    1.426   .     S
C121   C654    1.399   .     S
C122   C123    1.380   .     A
C122   H141    1.084   .     S
C123   I166    2.108   .     S
C124   H143    1.069   .     S
C124   C133    1.406   .     A
C125   C133    1.409   .     A
C125   C132    1.390   .     A
C125   I40     2.116   1_655 S
C126   C128    1.491   .     S
C126   C134    1.389   .     A
C127   C303    1.350   .     S
C127   O341    1.391   .     S
C128   O151    1.304   .     A
C128   O150    1.304   .     A
C129   C130    1.441   .     S
C129   C475    1.350   1_545 S
C129   I505    2.153   1_545 S
C130   O152    1.286   .     A
C130   O153    1.297   .     A
C131   O154    1.301   .     A
C131   O155    1.303   .     A
C131   C133    1.479   .     S
C132   H142    1.085   .     S
C132   C643    1.399   1_554 S
C134   H144    1.073   .     S
C134   C135    1.387   .     A
C135   C658    1.409   .     S
C136   O158    1.382   .     S
C136   C640    1.436   1_554 S
C136   C657    1.409   1_554 S
Cu137  N147    2.022   .     S
Cu137  O152    1.986   .     S
Cu137  O148    1.996   .     S
Cu137  O150    1.938   .     S
Cu137  Cu138   2.690   .     S
Cu137  O154    1.913   .     S
Cu138  O151    1.913   .     S
Cu138  O155    1.938   .     S
Cu138  N146    2.022   .     S
Cu138  O153    1.996   .     S
Cu138  O149    1.986   .     S
H140   N31     1.029   1_655 S
H145   C19     1.083   1_655 S
N146   H23     1.029   1_655 S
N146   N31     1.274   1_655 S
I157   C303    2.153   .     S
O158   C159    1.413   .     S
C159   H160    1.114   .     S
C159   C162    1.522   .     S
H161   C43     1.112   1_655 S
C162   H165    1.111   .     S
H163   C46     1.111   1_655 S
H164   C46     1.109   1_655 S
O167   C168    1.409   .     S
O167   C475    1.391   1_545 S
C168   C171    1.507   .     S
C168   H170    1.116   .     S
C168   H517    1.109   1_545 S
H169   C342    1.109   .     S
C171   H172    1.108   .     S
C171   H173    1.108   .     S
C171   H58     1.104   1_655 S
C175   C185    1.445   .     S
C175   O207    1.292   .     A
C175   O206    1.293   .     A
C176   C177    1.424   .     A
C176   C700    1.443   .     S
C176   C716    1.436   .     S
C177   C181    1.393   .     A
C177   C184    1.408   .     A
C178   C182    1.409   .     A
C178   C698    1.443   1_554 S
C178   C701    1.426   1_554 S
C179   C180    1.392   .     A
C179   C700    1.426   .     S
C179   C712    1.399   .     S
C180   C181    1.380   .     A
C180   H199    1.084   .     S
C181   I224    2.108   .     S
C182   H201    1.069   .     S
C182   C191    1.406   .     A
C183   C191    1.409   .     A
C183   C190    1.390   .     A
C183   I272    2.116   .     S
C184   C186    1.491   .     S
C184   C192    1.389   .     A
C185   C361    1.350   .     S
C185   O399    1.391   .     S
C186   O209    1.304   .     A
C186   O208    1.304   .     A
C187   C188    1.441   .     S
C188   O210    1.286   .     A
C188   O211    1.297   .     A
C189   O212    1.301   .     A
C189   O213    1.303   .     A
C189   C191    1.479   .     S
C190   H200    1.085   .     S
C190   C701    1.399   1_554 S
C192   H202    1.073   .     S
C192   C193    1.387   .     A
C193   C716    1.409   .     S
C193   H319    1.083   1_455 S
C194   O216    1.382   .     S
C194   C698    1.436   1_554 S
C194   C715    1.409   1_554 S
Cu195  N205    2.022   .     S
Cu195  O210    1.986   .     S
Cu195  O206    1.996   .     S
Cu195  O208    1.938   .     S
Cu195  Cu196   2.690   .     S
Cu195  O212    1.913   .     S
Cu196  O209    1.913   .     S
Cu196  O213    1.938   .     S
Cu196  N204    2.022   .     S
Cu196  O211    1.996   .     S
Cu196  O207    1.986   .     S
H197   N320    1.029   1_455 S
H198   N263    1.029   .     S
H203   C251    1.083   .     S
N204   H255    1.029   .     S
N204   N263    1.274   .     S
N205   H314    1.029   1_455 S
N205   N320    1.274   1_455 S
I214   C299    2.116   1_455 S
I215   C361    2.153   .     S
O216   C217    1.413   .     S
C217   H218    1.114   .     S
C217   C220    1.522   .     S
C217   H335    1.112   1_455 S
H219   C275    1.112   .     S
C220   H223    1.111   .     S
C220   H337    1.111   1_455 S
C220   H338    1.109   1_455 S
H221   C278    1.111   .     S
H222   C278    1.109   .     S
O225   C226    1.409   .     S
C226   C229    1.507   .     S
C226   H228    1.116   .     S
H227   C400    1.109   .     S
C229   H230    1.108   .     S
C229   H231    1.108   .     S
C229   H290    1.104   .     S
H232   C345    1.104   1_455 S
C233   C243    1.445   .     S
C233   O265    1.292   .     A
C233   O264    1.293   .     A
C234   C235    1.424   .     A
C234   C758    1.443   .     S
C234   C774    1.436   .     S
C235   C239    1.393   .     A
C235   C242    1.408   .     A
C236   C240    1.409   .     A
C236   C756    1.443   1_554 S
C236   C759    1.426   1_554 S
C237   C238    1.392   .     A
C237   C758    1.426   .     S
C237   C770    1.399   .     S
C238   C239    1.380   .     A
C238   H257    1.084   .     S
C239   I282    2.108   .     S
C240   H259    1.069   .     S
C240   C249    1.406   .     A
C241   C249    1.409   .     A
C241   C248    1.390   .     A
C241   I330    2.116   .     S
C242   C244    1.491   .     S
C242   C250    1.389   .     A
C243   C419    1.350   .     S
C243   O457    1.391   .     S
C244   O267    1.304   .     A
C244   O266    1.304   .     A
C245   C246    1.441   .     S
C246   O268    1.286   .     A
C246   O269    1.297   .     A
C247   O270    1.301   .     A
C247   O271    1.303   .     A
C247   C249    1.479   .     S
C248   H258    1.085   .     S
C248   C759    1.399   1_554 S
C250   H260    1.073   .     S
C250   C251    1.387   .     A
C251   C774    1.409   .     S
C252   O274    1.382   .     S
C252   C756    1.436   1_554 S
C252   C773    1.409   1_554 S
Cu253  N263    2.022   .     S
Cu253  O268    1.986   .     S
Cu253  O264    1.996   .     S
Cu253  O266    1.938   .     S
Cu253  Cu254   2.690   .     S
Cu253  O270    1.913   .     S
Cu254  O267    1.913   .     S
Cu254  O271    1.938   .     S
Cu254  N262    2.022   .     S
Cu254  O269    1.996   .     S
Cu254  O265    1.986   .     S
H256   N321    1.029   .     S
H261   C309    1.083   .     S
N262   H313    1.029   .     S
N262   N321    1.274   .     S
I273   C419    2.153   .     S
O274   C275    1.413   .     S
C275   H276    1.114   .     S
C275   C278    1.522   .     S
H277   C333    1.112   .     S
C278   H281    1.111   .     S
H279   C336    1.111   .     S
H280   C336    1.109   .     S
O283   C284    1.409   .     S
C284   C287    1.507   .     S
C284   H286    1.116   .     S
H285   C458    1.109   .     S
C287   H288    1.108   .     S
C287   H289    1.108   .     S
C287   H348    1.104   .     S
C291   C301    1.445   .     S
C291   O323    1.292   .     A
C291   O322    1.293   .     A
C292   C293    1.424   .     A
C292   C816    1.443   .     S
C292   C832    1.436   .     S
C293   C297    1.393   .     A
C293   C300    1.408   .     A
C294   C298    1.409   .     A
C294   C814    1.443   1_554 S
C294   C817    1.426   1_554 S
C295   C296    1.392   .     A
C295   C816    1.426   .     S
C295   C828    1.399   .     S
C296   C297    1.380   .     A
C296   H315    1.084   .     S
C297   I340    2.108   .     S
C298   H317    1.069   .     S
C298   C307    1.406   .     A
C299   C307    1.409   .     A
C299   C306    1.390   .     A
C299   I214    2.116   1_655 S
C300   C302    1.491   .     S
C300   C308    1.389   .     A
C301   C477    1.350   .     S
C301   O515    1.391   .     S
C302   O325    1.304   .     A
C302   O324    1.304   .     A
C303   C304    1.441   .     S
C304   O326    1.286   .     A
C304   O327    1.297   .     A
C305   O328    1.301   .     A
C305   O329    1.303   .     A
C305   C307    1.479   .     S
C306   H316    1.085   .     S
C306   C817    1.399   1_554 S
C308   H318    1.073   .     S
C308   C309    1.387   .     A
C309   C832    1.409   .     S
C310   O332    1.382   .     S
C310   C814    1.436   1_554 S
C310   C831    1.409   1_554 S
Cu311  N321    2.022   .     S
Cu311  O326    1.986   .     S
Cu311  O322    1.996   .     S
Cu311  O324    1.938   .     S
Cu311  Cu312   2.690   .     S
Cu311  O328    1.913   .     S
Cu312  O325    1.913   .     S
Cu312  O329    1.938   .     S
Cu312  N320    2.022   .     S
Cu312  O327    1.996   .     S
Cu312  O323    1.986   .     S
H314   N205    1.029   1_655 S
H319   C193    1.083   1_655 S
N320   H197    1.029   1_655 S
N320   N205    1.274   1_655 S
I331   C477    2.153   .     S
O332   C333    1.413   .     S
C333   H334    1.114   .     S
C333   C336    1.522   .     S
H335   C217    1.112   1_655 S
C336   H339    1.111   .     S
H337   C220    1.111   1_655 S
H338   C220    1.109   1_655 S
O341   C342    1.409   .     S
C342   C345    1.507   .     S
C342   H344    1.116   .     S
H343   C516    1.109   .     S
C345   H346    1.108   .     S
C345   H347    1.108   .     S
C345   H232    1.104   1_655 S
C349   C359    1.445   .     S
C349   O381    1.292   .     A
C349   O380    1.293   .     A
C350   C351    1.424   .     A
C350   C874    1.443   .     S
C350   C890    1.436   .     S
C351   C355    1.393   .     A
C351   C358    1.408   .     A
C352   C356    1.409   .     A
C352   C872    1.443   1_554 S
C352   C875    1.426   1_554 S
C353   C354    1.392   .     A
C353   C874    1.426   .     S
C353   C886    1.399   .     S
C354   C355    1.380   .     A
C354   H373    1.084   .     S
C355   I398    2.108   .     S
C356   H375    1.069   .     S
C356   C365    1.406   .     A
C357   C365    1.409   .     A
C357   C364    1.390   .     A
C357   I446    2.116   .     S
C358   C360    1.491   .     S
C358   C366    1.389   .     A
C359   C13     1.350   1_565 S
C359   O51     1.391   1_565 S
C360   O383    1.304   .     A
C360   O382    1.304   .     A
C361   C362    1.441   .     S
C362   O384    1.286   .     A
C362   O385    1.297   .     A
C363   O386    1.301   .     A
C363   O387    1.303   .     A
C363   C365    1.479   .     S
C364   H374    1.085   .     S
C364   C875    1.399   1_554 S
C366   H376    1.073   .     S
C366   C367    1.387   .     A
C367   C890    1.409   .     S
C367   H493    1.083   1_455 S
C368   O390    1.382   .     S
C368   C872    1.436   1_554 S
C368   C889    1.409   1_554 S
Cu369  N379    2.022   .     S
Cu369  O384    1.986   .     S
Cu369  O380    1.996   .     S
Cu369  O382    1.938   .     S
Cu369  Cu370   2.690   .     S
Cu369  O386    1.913   .     S
Cu370  O383    1.913   .     S
Cu370  O387    1.938   .     S
Cu370  N378    2.022   .     S
Cu370  O385    1.996   .     S
Cu370  O381    1.986   .     S
H371   N494    1.029   1_455 S
H372   N437    1.029   .     S
H377   C425    1.083   .     S
N378   H429    1.029   .     S
N378   N437    1.274   .     S
N379   H488    1.029   1_455 S
N379   N494    1.274   1_455 S
I388   C473    2.116   1_455 S
I389   C13     2.153   1_565 S
O390   C391    1.413   .     S
C391   H392    1.114   .     S
C391   C394    1.522   .     S
C391   H509    1.112   1_455 S
H393   C449    1.112   .     S
C394   H397    1.111   .     S
C394   H511    1.111   1_455 S
C394   H512    1.109   1_455 S
H395   C452    1.111   .     S
H396   C452    1.109   .     S
O399   C400    1.409   .     S
C400   C403    1.507   .     S
C400   H402    1.116   .     S
H401   C52     1.109   1_565 S
C403   H404    1.108   .     S
C403   H405    1.108   .     S
C403   H464    1.104   .     S
H406   C519    1.104   1_455 S
C407   C417    1.445   .     S
C407   O439    1.292   .     A
C407   O438    1.293   .     A
C408   C409    1.424   .     A
C408   C932    1.443   .     S
C408   C948    1.436   .     S
C409   C413    1.393   .     A
C409   C416    1.408   .     A
C410   C414    1.409   .     A
C410   C930    1.443   1_554 S
C410   C933    1.426   1_554 S
C411   C412    1.392   .     A
C411   C932    1.426   .     S
C411   C944    1.399   .     S
C412   C413    1.380   .     A
C412   H431    1.084   .     S
C413   I456    2.108   .     S
C414   H433    1.069   .     S
C414   C423    1.406   .     A
C415   C423    1.409   .     A
C415   C422    1.390   .     A
C415   I504    2.116   .     S
C416   C418    1.491   .     S
C416   C424    1.389   .     A
C417   C71     1.350   1_565 S
C417   O109    1.391   1_565 S
C418   O441    1.304   .     A
C418   O440    1.304   .     A
C419   C420    1.441   .     S
C420   O442    1.286   .     A
C420   O443    1.297   .     A
C421   O444    1.301   .     A
C421   O445    1.303   .     A
C421   C423    1.479   .     S
C422   H432    1.085   .     S
C422   C933    1.399   1_554 S
C424   H434    1.073   .     S
C424   C425    1.387   .     A
C425   C948    1.409   .     S
C426   O448    1.382   .     S
C426   C930    1.436   1_554 S
C426   C947    1.409   1_554 S
Cu427  N437    2.022   .     S
Cu427  O442    1.986   .     S
Cu427  O438    1.996   .     S
Cu427  O440    1.938   .     S
Cu427  Cu428   2.690   .     S
Cu427  O444    1.913   .     S
Cu428  O441    1.913   .     S
Cu428  O445    1.938   .     S
Cu428  N436    2.022   .     S
Cu428  O443    1.996   .     S
Cu428  O439    1.986   .     S
H430   N495    1.029   .     S
H435   C483    1.083   .     S
N436   H487    1.029   .     S
N436   N495    1.274   .     S
I447   C71     2.153   1_565 S
O448   C449    1.413   .     S
C449   H450    1.114   .     S
C449   C452    1.522   .     S
H451   C507    1.112   .     S
C452   H455    1.111   .     S
H453   C510    1.111   .     S
H454   C510    1.109   .     S
O457   C458    1.409   .     S
C458   C461    1.507   .     S
C458   H460    1.116   .     S
H459   C110    1.109   1_565 S
C461   H462    1.108   .     S
C461   H463    1.108   .     S
C461   H522    1.104   .     S
C465   C475    1.445   .     S
C465   O497    1.292   .     A
C465   O496    1.293   .     A
C466   C467    1.424   .     A
C466   C990    1.443   .     S
C466   C1006   1.436   .     S
C467   C471    1.393   .     A
C467   C474    1.408   .     A
C468   C472    1.409   .     A
C468   C988    1.443   1_554 S
C468   C991    1.426   1_554 S
C469   C470    1.392   .     A
C469   C990    1.426   .     S
C469   C1002   1.399   .     S
C470   C471    1.380   .     A
C470   H489    1.084   .     S
C471   I514    2.108   .     S
C472   H491    1.069   .     S
C472   C481    1.406   .     A
C473   C481    1.409   .     A
C473   C480    1.390   .     A
C473   I388    2.116   1_655 S
C474   C476    1.491   .     S
C474   C482    1.389   .     A
C475   C129    1.350   1_565 S
C475   O167    1.391   1_565 S
C476   O499    1.304   .     A
C476   O498    1.304   .     A
C477   C478    1.441   .     S
C478   O500    1.286   .     A
C478   O501    1.297   .     A
C479   O502    1.301   .     A
C479   O503    1.303   .     A
C479   C481    1.479   .     S
C480   H490    1.085   .     S
C480   C991    1.399   1_554 S
C482   H492    1.073   .     S
C482   C483    1.387   .     A
C483   C1006   1.409   .     S
C484   O506    1.382   .     S
C484   C988    1.436   1_554 S
C484   C1005   1.409   1_554 S
Cu485  N495    2.022   .     S
Cu485  O500    1.986   .     S
Cu485  O496    1.996   .     S
Cu485  O498    1.938   .     S
Cu485  Cu486   2.690   .     S
Cu485  O502    1.913   .     S
Cu486  O499    1.913   .     S
Cu486  O503    1.938   .     S
Cu486  N494    2.022   .     S
Cu486  O501    1.996   .     S
Cu486  O497    1.986   .     S
H488   N379    1.029   1_655 S
H493   C367    1.083   1_655 S
N494   H371    1.029   1_655 S
N494   N379    1.274   1_655 S
I505   C129    2.153   1_565 S
O506   C507    1.413   .     S
C507   H508    1.114   .     S
C507   C510    1.522   .     S
H509   C391    1.112   1_655 S
C510   H513    1.111   .     S
H511   C394    1.111   1_655 S
H512   C394    1.109   1_655 S
O515   C516    1.409   .     S
C516   C519    1.507   .     S
C516   H518    1.116   .     S
H517   C168    1.109   1_565 S
C519   H520    1.108   .     S
C519   H521    1.108   .     S
C519   H406    1.104   1_655 S
C523   C533    1.445   .     S
C523   O555    1.292   .     A
C523   O554    1.293   .     A
C524   C525    1.424   .     A
C524   C4      1.443   1_556 S
C524   C20     1.436   1_556 S
C525   C529    1.393   .     A
C525   C532    1.408   .     A
C526   C530    1.409   .     A
C527   C528    1.392   .     A
C527   C4      1.426   1_556 S
C527   C16     1.399   1_556 S
C528   C529    1.380   .     A
C528   H547    1.084   .     S
C529   I572    2.108   .     S
C530   H549    1.069   .     S
C530   C539    1.406   .     A
C531   C539    1.409   .     A
C531   C538    1.390   .     A
C531   I620    2.116   .     S
C532   C534    1.491   .     S
C532   C540    1.389   .     A
C533   C709    1.350   .     S
C533   O747    1.391   .     S
C534   O557    1.304   .     A
C534   O556    1.304   .     A
C535   C536    1.441   .     S
C535   C881    1.350   1_545 S
C535   I911    2.153   1_545 S
C536   O558    1.286   .     A
C536   O559    1.297   .     A
C537   O560    1.301   .     A
C537   O561    1.303   .     A
C537   C539    1.479   .     S
C538   H548    1.085   .     S
C540   H550    1.073   .     S
C540   C541    1.387   .     A
C541   C20     1.409   1_556 S
C541   H667    1.083   1_455 S
C542   O564    1.382   .     S
Cu543  N553    2.022   .     S
Cu543  O558    1.986   .     S
Cu543  O554    1.996   .     S
Cu543  O556    1.938   .     S
Cu543  Cu544   2.690   .     S
Cu543  O560    1.913   .     S
Cu544  O557    1.913   .     S
Cu544  O561    1.938   .     S
Cu544  N552    2.022   .     S
Cu544  O559    1.996   .     S
Cu544  O555    1.986   .     S
H545   N668    1.029   1_455 S
H546   N611    1.029   .     S
H551   C599    1.083   .     S
N552   H603    1.029   .     S
N552   N611    1.274   .     S
N553   H662    1.029   1_455 S
N553   N668    1.274   1_455 S
I562   C647    2.116   1_455 S
I563   C709    2.153   .     S
O564   C565    1.413   .     S
C565   H566    1.114   .     S
C565   C568    1.522   .     S
C565   H683    1.112   1_455 S
H567   C623    1.112   .     S
C568   H571    1.111   .     S
C568   H685    1.111   1_455 S
C568   H686    1.109   1_455 S
H569   C626    1.111   .     S
H570   C626    1.109   .     S
O573   C574    1.409   .     S
O573   C881    1.391   1_545 S
C574   C577    1.507   .     S
C574   H576    1.116   .     S
C574   H923    1.109   1_545 S
H575   C748    1.109   .     S
C577   H578    1.108   .     S
C577   H579    1.108   .     S
C577   H638    1.104   .     S
H580   C693    1.104   1_455 S
C581   C591    1.445   .     S
C581   O613    1.292   .     A
C581   O612    1.293   .     A
C582   C583    1.424   .     A
C582   C62     1.443   1_556 S
C582   C78     1.436   1_556 S
C583   C587    1.393   .     A
C583   C590    1.408   .     A
C584   C588    1.409   .     A
C585   C586    1.392   .     A
C585   C62     1.426   1_556 S
C585   C74     1.399   1_556 S
C586   C587    1.380   .     A
C586   H605    1.084   .     S
C587   I630    2.108   .     S
C588   H607    1.069   .     S
C588   C597    1.406   .     A
C589   C597    1.409   .     A
C589   C596    1.390   .     A
C589   I678    2.116   .     S
C590   C592    1.491   .     S
C590   C598    1.389   .     A
C591   C767    1.350   .     S
C591   O805    1.391   .     S
C592   O615    1.304   .     A
C592   O614    1.304   .     A
C593   C594    1.441   .     S
C593   C939    1.350   1_545 S
C593   I969    2.153   1_545 S
C594   O616    1.286   .     A
C594   O617    1.297   .     A
C595   O618    1.301   .     A
C595   O619    1.303   .     A
C595   C597    1.479   .     S
C596   H606    1.085   .     S
C598   H608    1.073   .     S
C598   C599    1.387   .     A
C599   C78     1.409   1_556 S
C600   O622    1.382   .     S
Cu601  N611    2.022   .     S
Cu601  O616    1.986   .     S
Cu601  O612    1.996   .     S
Cu601  O614    1.938   .     S
Cu601  Cu602   2.690   .     S
Cu601  O618    1.913   .     S
Cu602  O615    1.913   .     S
Cu602  O619    1.938   .     S
Cu602  N610    2.022   .     S
Cu602  O617    1.996   .     S
Cu602  O613    1.986   .     S
H604   N669    1.029   .     S
H609   C657    1.083   .     S
N610   H661    1.029   .     S
N610   N669    1.274   .     S
I621   C767    2.153   .     S
O622   C623    1.413   .     S
C623   H624    1.114   .     S
C623   C626    1.522   .     S
H625   C681    1.112   .     S
C626   H629    1.111   .     S
H627   C684    1.111   .     S
H628   C684    1.109   .     S
O631   C632    1.409   .     S
O631   C939    1.391   1_545 S
C632   C635    1.507   .     S
C632   H634    1.116   .     S
C632   H981    1.109   1_545 S
H633   C806    1.109   .     S
C635   H636    1.108   .     S
C635   H637    1.108   .     S
C635   H696    1.104   .     S
C639   C649    1.445   .     S
C639   O671    1.292   .     A
C639   O670    1.293   .     A
C640   C641    1.424   .     A
C640   C120    1.443   1_556 S
C640   C136    1.436   1_556 S
C641   C645    1.393   .     A
C641   C648    1.408   .     A
C642   C646    1.409   .     A
C643   C644    1.392   .     A
C643   C120    1.426   1_556 S
C643   C132    1.399   1_556 S
C644   C645    1.380   .     A
C644   H663    1.084   .     S
C645   I688    2.108   .     S
C646   H665    1.069   .     S
C646   C655    1.406   .     A
C647   C655    1.409   .     A
C647   C654    1.390   .     A
C647   I562    2.116   1_655 S
C648   C650    1.491   .     S
C648   C656    1.389   .     A
C649   C825    1.350   .     S
C649   O863    1.391   .     S
C650   O673    1.304   .     A
C650   O672    1.304   .     A
C651   C652    1.441   .     S
C651   C997    1.350   1_545 S
C651   I1027   2.153   1_545 S
C652   O674    1.286   .     A
C652   O675    1.297   .     A
C653   O676    1.301   .     A
C653   O677    1.303   .     A
C653   C655    1.479   .     S
C654   H664    1.085   .     S
C656   H666    1.073   .     S
C656   C657    1.387   .     A
C657   C136    1.409   1_556 S
C658   O680    1.382   .     S
Cu659  N669    2.022   .     S
Cu659  O674    1.986   .     S
Cu659  O670    1.996   .     S
Cu659  O672    1.938   .     S
Cu659  Cu660   2.690   .     S
Cu659  O676    1.913   .     S
Cu660  O673    1.913   .     S
Cu660  O677    1.938   .     S
Cu660  N668    2.022   .     S
Cu660  O675    1.996   .     S
Cu660  O671    1.986   .     S
H662   N553    1.029   1_655 S
H667   C541    1.083   1_655 S
N668   H545    1.029   1_655 S
N668   N553    1.274   1_655 S
I679   C825    2.153   .     S
O680   C681    1.413   .     S
C681   H682    1.114   .     S
C681   C684    1.522   .     S
H683   C565    1.112   1_655 S
C684   H687    1.111   .     S
H685   C568    1.111   1_655 S
H686   C568    1.109   1_655 S
O689   C690    1.409   .     S
O689   C997    1.391   1_545 S
C690   C693    1.507   .     S
C690   H692    1.116   .     S
C690   H1039   1.109   1_545 S
H691   C864    1.109   .     S
C693   H694    1.108   .     S
C693   H695    1.108   .     S
C693   H580    1.104   1_655 S
C697   C707    1.445   .     S
C697   O729    1.292   .     A
C697   O728    1.293   .     A
C698   C699    1.424   .     A
C698   C178    1.443   1_556 S
C698   C194    1.436   1_556 S
C699   C703    1.393   .     A
C699   C706    1.408   .     A
C700   C704    1.409   .     A
C701   C702    1.392   .     A
C701   C178    1.426   1_556 S
C701   C190    1.399   1_556 S
C702   C703    1.380   .     A
C702   H721    1.084   .     S
C703   I746    2.108   .     S
C704   H723    1.069   .     S
C704   C713    1.406   .     A
C705   C713    1.409   .     A
C705   C712    1.390   .     A
C705   I794    2.116   .     S
C706   C708    1.491   .     S
C706   C714    1.389   .     A
C707   C883    1.350   .     S
C707   O921    1.391   .     S
C708   O731    1.304   .     A
C708   O730    1.304   .     A
C709   C710    1.441   .     S
C710   O732    1.286   .     A
C710   O733    1.297   .     A
C711   O734    1.301   .     A
C711   O735    1.303   .     A
C711   C713    1.479   .     S
C712   H722    1.085   .     S
C714   H724    1.073   .     S
C714   C715    1.387   .     A
C715   C194    1.409   1_556 S
C715   H841    1.083   1_455 S
C716   O738    1.382   .     S
Cu717  N727    2.022   .     S
Cu717  O732    1.986   .     S
Cu717  O728    1.996   .     S
Cu717  O730    1.938   .     S
Cu717  Cu718   2.690   .     S
Cu717  O734    1.913   .     S
Cu718  O731    1.913   .     S
Cu718  O735    1.938   .     S
Cu718  N726    2.022   .     S
Cu718  O733    1.996   .     S
Cu718  O729    1.986   .     S
H719   N842    1.029   1_455 S
H720   N785    1.029   .     S
H725   C773    1.083   .     S
N726   H777    1.029   .     S
N726   N785    1.274   .     S
N727   H836    1.029   1_455 S
N727   N842    1.274   1_455 S
I736   C821    2.116   1_455 S
I737   C883    2.153   .     S
O738   C739    1.413   .     S
C739   H740    1.114   .     S
C739   C742    1.522   .     S
C739   H857    1.112   1_455 S
H741   C797    1.112   .     S
C742   H745    1.111   .     S
C742   H859    1.111   1_455 S
C742   H860    1.109   1_455 S
H743   C800    1.111   .     S
H744   C800    1.109   .     S
O747   C748    1.409   .     S
C748   C751    1.507   .     S
C748   H750    1.116   .     S
H749   C922    1.109   .     S
C751   H752    1.108   .     S
C751   H753    1.108   .     S
C751   H812    1.104   .     S
H754   C867    1.104   1_455 S
C755   C765    1.445   .     S
C755   O787    1.292   .     A
C755   O786    1.293   .     A
C756   C757    1.424   .     A
C756   C236    1.443   1_556 S
C756   C252    1.436   1_556 S
C757   C761    1.393   .     A
C757   C764    1.408   .     A
C758   C762    1.409   .     A
C759   C760    1.392   .     A
C759   C236    1.426   1_556 S
C759   C248    1.399   1_556 S
C760   C761    1.380   .     A
C760   H779    1.084   .     S
C761   I804    2.108   .     S
C762   H781    1.069   .     S
C762   C771    1.406   .     A
C763   C771    1.409   .     A
C763   C770    1.390   .     A
C763   I852    2.116   .     S
C764   C766    1.491   .     S
C764   C772    1.389   .     A
C765   C941    1.350   .     S
C765   O979    1.391   .     S
C766   O789    1.304   .     A
C766   O788    1.304   .     A
C767   C768    1.441   .     S
C768   O790    1.286   .     A
C768   O791    1.297   .     A
C769   O792    1.301   .     A
C769   O793    1.303   .     A
C769   C771    1.479   .     S
C770   H780    1.085   .     S
C772   H782    1.073   .     S
C772   C773    1.387   .     A
C773   C252    1.409   1_556 S
C774   O796    1.382   .     S
Cu775  N785    2.022   .     S
Cu775  O790    1.986   .     S
Cu775  O786    1.996   .     S
Cu775  O788    1.938   .     S
Cu775  Cu776   2.690   .     S
Cu775  O792    1.913   .     S
Cu776  O789    1.913   .     S
Cu776  O793    1.938   .     S
Cu776  N784    2.022   .     S
Cu776  O791    1.996   .     S
Cu776  O787    1.986   .     S
H778   N843    1.029   .     S
H783   C831    1.083   .     S
N784   H835    1.029   .     S
N784   N843    1.274   .     S
I795   C941    2.153   .     S
O796   C797    1.413   .     S
C797   H798    1.114   .     S
C797   C800    1.522   .     S
H799   C855    1.112   .     S
C800   H803    1.111   .     S
H801   C858    1.111   .     S
H802   C858    1.109   .     S
O805   C806    1.409   .     S
C806   C809    1.507   .     S
C806   H808    1.116   .     S
H807   C980    1.109   .     S
C809   H810    1.108   .     S
C809   H811    1.108   .     S
C809   H870    1.104   .     S
C813   C823    1.445   .     S
C813   O845    1.292   .     A
C813   O844    1.293   .     A
C814   C815    1.424   .     A
C814   C294    1.443   1_556 S
C814   C310    1.436   1_556 S
C815   C819    1.393   .     A
C815   C822    1.408   .     A
C816   C820    1.409   .     A
C817   C818    1.392   .     A
C817   C294    1.426   1_556 S
C817   C306    1.399   1_556 S
C818   C819    1.380   .     A
C818   H837    1.084   .     S
C819   I862    2.108   .     S
C820   H839    1.069   .     S
C820   C829    1.406   .     A
C821   C829    1.409   .     A
C821   C828    1.390   .     A
C821   I736    2.116   1_655 S
C822   C824    1.491   .     S
C822   C830    1.389   .     A
C823   C999    1.350   .     S
C823   O1037   1.391   .     S
C824   O847    1.304   .     A
C824   O846    1.304   .     A
C825   C826    1.441   .     S
C826   O848    1.286   .     A
C826   O849    1.297   .     A
C827   O850    1.301   .     A
C827   O851    1.303   .     A
C827   C829    1.479   .     S
C828   H838    1.085   .     S
C830   H840    1.073   .     S
C830   C831    1.387   .     A
C831   C310    1.409   1_556 S
C832   O854    1.382   .     S
Cu833  N843    2.022   .     S
Cu833  O848    1.986   .     S
Cu833  O844    1.996   .     S
Cu833  O846    1.938   .     S
Cu833  Cu834   2.690   .     S
Cu833  O850    1.913   .     S
Cu834  O847    1.913   .     S
Cu834  O851    1.938   .     S
Cu834  N842    2.022   .     S
Cu834  O849    1.996   .     S
Cu834  O845    1.986   .     S
H836   N727    1.029   1_655 S
H841   C715    1.083   1_655 S
N842   H719    1.029   1_655 S
N842   N727    1.274   1_655 S
I853   C999    2.153   .     S
O854   C855    1.413   .     S
C855   H856    1.114   .     S
C855   C858    1.522   .     S
H857   C739    1.112   1_655 S
C858   H861    1.111   .     S
H859   C742    1.111   1_655 S
H860   C742    1.109   1_655 S
O863   C864    1.409   .     S
C864   C867    1.507   .     S
C864   H866    1.116   .     S
H865   C1038   1.109   .     S
C867   H868    1.108   .     S
C867   H869    1.108   .     S
C867   H754    1.104   1_655 S
C871   C881    1.445   .     S
C871   O903    1.292   .     A
C871   O902    1.293   .     A
C872   C873    1.424   .     A
C872   C352    1.443   1_556 S
C872   C368    1.436   1_556 S
C873   C877    1.393   .     A
C873   C880    1.408   .     A
C874   C878    1.409   .     A
C875   C876    1.392   .     A
C875   C352    1.426   1_556 S
C875   C364    1.399   1_556 S
C876   C877    1.380   .     A
C876   H895    1.084   .     S
C877   I920    2.108   .     S
C878   H897    1.069   .     S
C878   C887    1.406   .     A
C879   C887    1.409   .     A
C879   C886    1.390   .     A
C879   I968    2.116   .     S
C880   C882    1.491   .     S
C880   C888    1.389   .     A
C881   C535    1.350   1_565 S
C881   O573    1.391   1_565 S
C882   O905    1.304   .     A
C882   O904    1.304   .     A
C883   C884    1.441   .     S
C884   O906    1.286   .     A
C884   O907    1.297   .     A
C885   O908    1.301   .     A
C885   O909    1.303   .     A
C885   C887    1.479   .     S
C886   H896    1.085   .     S
C888   H898    1.073   .     S
C888   C889    1.387   .     A
C889   C368    1.409   1_556 S
C889   H1015   1.083   1_455 S
C890   O912    1.382   .     S
Cu891  N901    2.022   .     S
Cu891  O906    1.986   .     S
Cu891  O902    1.996   .     S
Cu891  O904    1.938   .     S
Cu891  Cu892   2.690   .     S
Cu891  O908    1.913   .     S
Cu892  O905    1.913   .     S
Cu892  O909    1.938   .     S
Cu892  N900    2.022   .     S
Cu892  O907    1.996   .     S
Cu892  O903    1.986   .     S
H893   N1016   1.029   1_455 S
H894   N959    1.029   .     S
H899   C947    1.083   .     S
N900   H951    1.029   .     S
N900   N959    1.274   .     S
N901   H1010   1.029   1_455 S
N901   N1016   1.274   1_455 S
I910   C995    2.116   1_455 S
I911   C535    2.153   1_565 S
O912   C913    1.413   .     S
C913   H914    1.114   .     S
C913   C916    1.522   .     S
C913   H1031   1.112   1_455 S
H915   C971    1.112   .     S
C916   H919    1.111   .     S
C916   H1033   1.111   1_455 S
C916   H1034   1.109   1_455 S
H917   C974    1.111   .     S
H918   C974    1.109   .     S
O921   C922    1.409   .     S
C922   C925    1.507   .     S
C922   H924    1.116   .     S
H923   C574    1.109   1_565 S
C925   H926    1.108   .     S
C925   H927    1.108   .     S
C925   H986    1.104   .     S
H928   C1041   1.104   1_455 S
C929   C939    1.445   .     S
C929   O961    1.292   .     A
C929   O960    1.293   .     A
C930   C931    1.424   .     A
C930   C410    1.443   1_556 S
C930   C426    1.436   1_556 S
C931   C935    1.393   .     A
C931   C938    1.408   .     A
C932   C936    1.409   .     A
C933   C934    1.392   .     A
C933   C410    1.426   1_556 S
C933   C422    1.399   1_556 S
C934   C935    1.380   .     A
C934   H953    1.084   .     S
C935   I978    2.108   .     S
C936   H955    1.069   .     S
C936   C945    1.406   .     A
C937   C945    1.409   .     A
C937   C944    1.390   .     A
C937   I1026   2.116   .     S
C938   C940    1.491   .     S
C938   C946    1.389   .     A
C939   C593    1.350   1_565 S
C939   O631    1.391   1_565 S
C940   O963    1.304   .     A
C940   O962    1.304   .     A
C941   C942    1.441   .     S
C942   O964    1.286   .     A
C942   O965    1.297   .     A
C943   O966    1.301   .     A
C943   O967    1.303   .     A
C943   C945    1.479   .     S
C944   H954    1.085   .     S
C946   H956    1.073   .     S
C946   C947    1.387   .     A
C947   C426    1.409   1_556 S
C948   O970    1.382   .     S
Cu949  N959    2.022   .     S
Cu949  O964    1.986   .     S
Cu949  O960    1.996   .     S
Cu949  O962    1.938   .     S
Cu949  Cu950   2.690   .     S
Cu949  O966    1.913   .     S
Cu950  O963    1.913   .     S
Cu950  O967    1.938   .     S
Cu950  N958    2.022   .     S
Cu950  O965    1.996   .     S
Cu950  O961    1.986   .     S
H952   N1017   1.029   .     S
H957   C1005   1.083   .     S
N958   H1009   1.029   .     S
N958   N1017   1.274   .     S
I969   C593    2.153   1_565 S
O970   C971    1.413   .     S
C971   H972    1.114   .     S
C971   C974    1.522   .     S
H973   C1029   1.112   .     S
C974   H977    1.111   .     S
H975   C1032   1.111   .     S
H976   C1032   1.109   .     S
O979   C980    1.409   .     S
C980   C983    1.507   .     S
C980   H982    1.116   .     S
H981   C632    1.109   1_565 S
C983   H984    1.108   .     S
C983   H985    1.108   .     S
C983   H1044   1.104   .     S
C987   C997    1.445   .     S
C987   O1019   1.292   .     A
C987   O1018   1.293   .     A
C988   C989    1.424   .     A
C988   C468    1.443   1_556 S
C988   C484    1.436   1_556 S
C989   C993    1.393   .     A
C989   C996    1.408   .     A
C990   C994    1.409   .     A
C991   C992    1.392   .     A
C991   C468    1.426   1_556 S
C991   C480    1.399   1_556 S
C992   C993    1.380   .     A
C992   H1011   1.084   .     S
C993   I1036   2.108   .     S
C994   H1013   1.069   .     S
C994   C1003   1.406   .     A
C995   C1003   1.409   .     A
C995   C1002   1.390   .     A
C995   I910    2.116   1_655 S
C996   C998    1.491   .     S
C996   C1004   1.389   .     A
C997   C651    1.350   1_565 S
C997   O689    1.391   1_565 S
C998   O1021   1.304   .     A
C998   O1020   1.304   .     A
C999   C1000   1.441   .     S
C1000  O1022   1.286   .     A
C1000  O1023   1.297   .     A
C1001  O1024   1.301   .     A
C1001  O1025   1.303   .     A
C1001  C1003   1.479   .     S
C1002  H1012   1.085   .     S
C1004  H1014   1.073   .     S
C1004  C1005   1.387   .     A
C1005  C484    1.409   1_556 S
C1006  O1028   1.382   .     S
Cu1007 N1017   2.022   .     S
Cu1007 O1022   1.986   .     S
Cu1007 O1018   1.996   .     S
Cu1007 O1020   1.938   .     S
Cu1007 Cu1008  2.690   .     S
Cu1007 O1024   1.913   .     S
Cu1008 O1021   1.913   .     S
Cu1008 O1025   1.938   .     S
Cu1008 N1016   2.022   .     S
Cu1008 O1023   1.996   .     S
Cu1008 O1019   1.986   .     S
H1010  N901    1.029   1_655 S
H1015  C889    1.083   1_655 S
N1016  H893    1.029   1_655 S
N1016  N901    1.274   1_655 S
I1027  C651    2.153   1_565 S
O1028  C1029   1.413   .     S
C1029  H1030   1.114   .     S
C1029  C1032   1.522   .     S
H1031  C913    1.112   1_655 S
C1032  H1035   1.111   .     S
H1033  C916    1.111   1_655 S
H1034  C916    1.109   1_655 S
O1037  C1038   1.409   .     S
C1038  C1041   1.507   .     S
C1038  H1040   1.116   .     S
H1039  C690    1.109   1_565 S
C1041  H1042   1.108   .     S
C1041  H1043   1.108   .     S
C1041  H928    1.104   1_655 S
