data_str_m2_o10_o17_pcu_sym.70
_audit_creation_date              2020-01-03
_audit_creation_method            'Materials Studio'
_symmetry_space_group_name_H-M    'P1'
_symmetry_Int_Tables_number       1
_symmetry_cell_setting            triclinic
loop_
_symmetry_equiv_pos_as_xyz
  x,y,z
_cell_length_a                    29.9825
_cell_length_b                    26.2149
_cell_length_c                    22.6085
_cell_angle_alpha                 103.2138
_cell_angle_beta                  94.4924
_cell_angle_gamma                 94.1735
loop_
_atom_site_label
_atom_site_type_symbol
_atom_site_fract_x
_atom_site_fract_y
_atom_site_fract_z
_atom_site_U_iso_or_equiv
_atom_site_adp_type
_atom_site_occupancy
Br1    Br    0.20057   0.30806   0.07406   0.00000  Uiso   1.00
Br2    Br    0.29943   0.02527   0.25927   0.00000  Uiso   1.00
C3     C     0.24824   0.06677   0.15136   0.00000  Uiso   1.00
C4     C     0.08821   0.11856   0.13386   0.00000  Uiso   1.00
C5     C     0.38361   0.17081   0.16535   0.00000  Uiso   1.00
C6     C     0.11639   0.16251   0.16799   0.00000  Uiso   1.00
C7     C     0.40108   0.12732   0.13072   0.00000  Uiso   1.00
C8     C     0.09892   0.20598   0.20269   0.00000  Uiso   1.00
C9     C     0.44737   0.12480   0.13055   0.00000  Uiso   1.00
C10    C     0.05263   0.20847   0.20291   0.00000  Uiso   1.00
C11    C     0.47654   0.16767   0.16620   0.00000  Uiso   1.00
C12    C     0.02346   0.16561   0.16725   0.00000  Uiso   1.00
C13    C     0.45883   0.21266   0.20077   0.00000  Uiso   1.00
C14    C     0.25176   0.26656   0.18197   0.00000  Uiso   1.00
C15    C     0.04117   0.12062   0.13266   0.00000  Uiso   1.00
C16    C     0.46506   0.08011   0.09615   0.00000  Uiso   1.00
C17    C     0.03494   0.25313   0.23738   0.00000  Uiso   1.00
C18    C     0.39209   0.26391   0.23270   0.00000  Uiso   1.00
C19    C     0.10790   0.06942   0.10061   0.00000  Uiso   1.00
C20    C     0.43529   0.03333   0.05774   0.00000  Uiso   1.00
C21    C     0.06471   0.29986   0.27592   0.00000  Uiso   1.00
C22    C     0.19402   0.12870   0.31659   0.00000  Uiso   1.00
C23    C     0.30597   0.20465   0.01675   0.00000  Uiso   1.00
C24    C     0.01150   0.07870   0.09755   0.00000  Uiso   1.00
C25    C     0.48850   0.25456   0.23595   0.00000  Uiso   1.00
C26    C     0.24152   0.01108   0.14443   0.00000  Uiso   1.00
C27    C     0.25848   0.32225   0.18890   0.00000  Uiso   1.00
C28    C     0.16466   0.16514   0.16703   0.00000  Uiso   1.00
C29    C     0.33534   0.16819   0.16631   0.00000  Uiso   1.00
C30    C     0.41179   0.21475   0.19949   0.00000  Uiso   1.00
Cu31   Cu    0.25500   0.17246   0.22813   0.00000  Uiso   1.00
Cu32   Cu    0.24499   0.16087   0.10521   0.00000  Uiso   1.00
H33    H     0.37778   0.09490   0.10495   0.00000  Uiso   1.00
H34    H     0.10014   0.06371   0.05059   0.00000  Uiso   1.00
H35    H     0.41366   0.01593   0.08710   0.00000  Uiso   1.00
H36    H     0.41397   0.04580   0.02214   0.00000  Uiso   1.00
H37    H     0.45510   0.00192   0.03425   0.00000  Uiso   1.00
H38    H     0.08605   0.28729   0.31143   0.00000  Uiso   1.00
H39    H     0.08632   0.31738   0.24661   0.00000  Uiso   1.00
H40    H     0.04490   0.33122   0.29953   0.00000  Uiso   1.00
H41    H     0.17986   0.10205   0.01011   0.00000  Uiso   1.00
H42    H     0.17058   0.15953   0.31627   0.00000  Uiso   1.00
H43    H     0.19620   0.10313   0.27117   0.00000  Uiso   1.00
H44    H     0.12223   0.23840   0.22847   0.00000  Uiso   1.00
H45    H     0.32013   0.23128   0.32322   0.00000  Uiso   1.00
H46    H     0.30378   0.23024   0.06215   0.00000  Uiso   1.00
H47    H     0.32942   0.17383   0.01711   0.00000  Uiso   1.00
H48    H     0.02412   0.04424   0.07044   0.00000  Uiso   1.00
H49    H     0.47588   0.28900   0.26310   0.00000  Uiso   1.00
H50    H     0.35525   0.26278   0.22299   0.00000  Uiso   1.00
H51    H     0.39979   0.26960   0.28273   0.00000  Uiso   1.00
H52    H     0.40642   0.29877   0.21803   0.00000  Uiso   1.00
H53    H     0.14476   0.07057   0.11021   0.00000  Uiso   1.00
H54    H     0.09364   0.03456   0.11532   0.00000  Uiso   1.00
N55    N     0.23744   0.15214   0.01284   0.00000  Uiso   1.00
N56    N     0.26255   0.18119   0.32049   0.00000  Uiso   1.00
O57    O     0.25325   0.09538   0.20659   0.00000  Uiso   1.00
O58    O     0.24674   0.23796   0.12674   0.00000  Uiso   1.00
O59    O     0.24480   0.08559   0.10279   0.00000  Uiso   1.00
O60    O     0.25520   0.24774   0.23055   0.00000  Uiso   1.00
O61    O     0.18935   0.17155   0.21857   0.00000  Uiso   1.00
O62    O     0.31064   0.16179   0.11476   0.00000  Uiso   1.00
O63    O     0.18090   0.16176   0.11477   0.00000  Uiso   1.00
O64    O     0.31910   0.17157   0.21857   0.00000  Uiso   1.00
Br65   Br    0.70057   0.30806   0.07406   0.00000  Uiso   1.00
Br66   Br    0.79943   0.02527   0.25927   0.00000  Uiso   1.00
C67    C     0.74824   0.06677   0.15136   0.00000  Uiso   1.00
C68    C     0.58821   0.11856   0.13386   0.00000  Uiso   1.00
C69    C     0.88361   0.17081   0.16535   0.00000  Uiso   1.00
C70    C     0.61639   0.16251   0.16799   0.00000  Uiso   1.00
C71    C     0.90108   0.12732   0.13072   0.00000  Uiso   1.00
C72    C     0.59892   0.20598   0.20269   0.00000  Uiso   1.00
C73    C     0.94737   0.12480   0.13055   0.00000  Uiso   1.00
C74    C     0.55263   0.20847   0.20291   0.00000  Uiso   1.00
C75    C     0.97654   0.16767   0.16620   0.00000  Uiso   1.00
C76    C     0.52346   0.16561   0.16725   0.00000  Uiso   1.00
C77    C     0.95883   0.21266   0.20077   0.00000  Uiso   1.00
C78    C     0.75176   0.26656   0.18197   0.00000  Uiso   1.00
C79    C     0.54117   0.12062   0.13266   0.00000  Uiso   1.00
C80    C     0.96506   0.08011   0.09615   0.00000  Uiso   1.00
C81    C     0.53494   0.25313   0.23738   0.00000  Uiso   1.00
C82    C     0.89209   0.26391   0.23270   0.00000  Uiso   1.00
C83    C     0.60790   0.06942   0.10061   0.00000  Uiso   1.00
C84    C     0.93529   0.03333   0.05774   0.00000  Uiso   1.00
C85    C     0.56471   0.29986   0.27592   0.00000  Uiso   1.00
C86    C     0.69402   0.12870   0.31659   0.00000  Uiso   1.00
C87    C     0.80597   0.20465   0.01675   0.00000  Uiso   1.00
C88    C     0.51150   0.07870   0.09755   0.00000  Uiso   1.00
C89    C     0.98850   0.25456   0.23595   0.00000  Uiso   1.00
C90    C     0.74152   0.01108   0.14443   0.00000  Uiso   1.00
C91    C     0.75848   0.32225   0.18890   0.00000  Uiso   1.00
C92    C     0.66466   0.16514   0.16703   0.00000  Uiso   1.00
C93    C     0.83534   0.16819   0.16631   0.00000  Uiso   1.00
C94    C     0.91179   0.21475   0.19949   0.00000  Uiso   1.00
Cu95   Cu    0.75500   0.17246   0.22813   0.00000  Uiso   1.00
Cu96   Cu    0.74499   0.16087   0.10521   0.00000  Uiso   1.00
H97    H     0.87778   0.09490   0.10495   0.00000  Uiso   1.00
H98    H     0.60014   0.06371   0.05059   0.00000  Uiso   1.00
H99    H     0.91366   0.01593   0.08710   0.00000  Uiso   1.00
H100   H     0.91397   0.04580   0.02214   0.00000  Uiso   1.00
H101   H     0.95510   0.00192   0.03425   0.00000  Uiso   1.00
H102   H     0.58605   0.28729   0.31143   0.00000  Uiso   1.00
H103   H     0.58632   0.31738   0.24661   0.00000  Uiso   1.00
H104   H     0.54490   0.33122   0.29953   0.00000  Uiso   1.00
H105   H     0.67986   0.10205   0.01011   0.00000  Uiso   1.00
H106   H     0.67058   0.15953   0.31627   0.00000  Uiso   1.00
H107   H     0.69620   0.10313   0.27117   0.00000  Uiso   1.00
H108   H     0.62223   0.23840   0.22847   0.00000  Uiso   1.00
H109   H     0.82013   0.23128   0.32322   0.00000  Uiso   1.00
H110   H     0.80378   0.23024   0.06215   0.00000  Uiso   1.00
H111   H     0.82942   0.17383   0.01711   0.00000  Uiso   1.00
H112   H     0.52412   0.04424   0.07044   0.00000  Uiso   1.00
H113   H     0.97588   0.28900   0.26310   0.00000  Uiso   1.00
H114   H     0.85525   0.26278   0.22299   0.00000  Uiso   1.00
H115   H     0.89979   0.26960   0.28273   0.00000  Uiso   1.00
H116   H     0.90642   0.29877   0.21803   0.00000  Uiso   1.00
H117   H     0.64476   0.07057   0.11021   0.00000  Uiso   1.00
H118   H     0.59364   0.03456   0.11532   0.00000  Uiso   1.00
N119   N     0.73744   0.15214   0.01284   0.00000  Uiso   1.00
N120   N     0.76255   0.18119   0.32049   0.00000  Uiso   1.00
O121   O     0.75325   0.09538   0.20659   0.00000  Uiso   1.00
O122   O     0.74674   0.23796   0.12674   0.00000  Uiso   1.00
O123   O     0.74480   0.08559   0.10279   0.00000  Uiso   1.00
O124   O     0.75520   0.24774   0.23055   0.00000  Uiso   1.00
O125   O     0.68935   0.17155   0.21857   0.00000  Uiso   1.00
O126   O     0.81064   0.16179   0.11476   0.00000  Uiso   1.00
O127   O     0.68090   0.16176   0.11477   0.00000  Uiso   1.00
O128   O     0.81910   0.17157   0.21857   0.00000  Uiso   1.00
Br129  Br    0.20057   0.64140   0.07406   0.00000  Uiso   1.00
Br130  Br    0.29943   0.35860   0.25927   0.00000  Uiso   1.00
C131   C     0.24824   0.40011   0.15136   0.00000  Uiso   1.00
C132   C     0.08821   0.45190   0.13386   0.00000  Uiso   1.00
C133   C     0.38361   0.50415   0.16535   0.00000  Uiso   1.00
C134   C     0.11639   0.49584   0.16799   0.00000  Uiso   1.00
C135   C     0.40108   0.46065   0.13072   0.00000  Uiso   1.00
C136   C     0.09892   0.53931   0.20269   0.00000  Uiso   1.00
C137   C     0.44737   0.45814   0.13055   0.00000  Uiso   1.00
C138   C     0.05263   0.54181   0.20291   0.00000  Uiso   1.00
C139   C     0.47654   0.50101   0.16620   0.00000  Uiso   1.00
C140   C     0.02346   0.49894   0.16725   0.00000  Uiso   1.00
C141   C     0.45883   0.54600   0.20077   0.00000  Uiso   1.00
C142   C     0.25176   0.59989   0.18197   0.00000  Uiso   1.00
C143   C     0.04117   0.45396   0.13266   0.00000  Uiso   1.00
C144   C     0.46506   0.41345   0.09615   0.00000  Uiso   1.00
C145   C     0.03494   0.58647   0.23738   0.00000  Uiso   1.00
C146   C     0.39209   0.59724   0.23270   0.00000  Uiso   1.00
C147   C     0.10790   0.40275   0.10061   0.00000  Uiso   1.00
C148   C     0.43529   0.36667   0.05774   0.00000  Uiso   1.00
C149   C     0.06471   0.63319   0.27592   0.00000  Uiso   1.00
C150   C     0.19402   0.46203   0.31659   0.00000  Uiso   1.00
C151   C     0.30597   0.53799   0.01675   0.00000  Uiso   1.00
C152   C     0.01150   0.41203   0.09755   0.00000  Uiso   1.00
C153   C     0.48850   0.58789   0.23595   0.00000  Uiso   1.00
C154   C     0.24152   0.34441   0.14443   0.00000  Uiso   1.00
C155   C     0.25848   0.65559   0.18890   0.00000  Uiso   1.00
C156   C     0.16466   0.49848   0.16703   0.00000  Uiso   1.00
C157   C     0.33534   0.50152   0.16631   0.00000  Uiso   1.00
C158   C     0.41179   0.54808   0.19949   0.00000  Uiso   1.00
Cu159  Cu    0.25500   0.50579   0.22813   0.00000  Uiso   1.00
Cu160  Cu    0.24499   0.49421   0.10521   0.00000  Uiso   1.00
H161   H     0.37778   0.42823   0.10495   0.00000  Uiso   1.00
H162   H     0.10014   0.39704   0.05059   0.00000  Uiso   1.00
H163   H     0.41366   0.34926   0.08710   0.00000  Uiso   1.00
H164   H     0.41397   0.37914   0.02214   0.00000  Uiso   1.00
H165   H     0.45510   0.33525   0.03425   0.00000  Uiso   1.00
H166   H     0.08605   0.62062   0.31143   0.00000  Uiso   1.00
H167   H     0.08632   0.65071   0.24661   0.00000  Uiso   1.00
H168   H     0.04490   0.66456   0.29953   0.00000  Uiso   1.00
H169   H     0.17986   0.43538   0.01011   0.00000  Uiso   1.00
H170   H     0.17058   0.49286   0.31627   0.00000  Uiso   1.00
H171   H     0.19620   0.43647   0.27117   0.00000  Uiso   1.00
H172   H     0.12223   0.57173   0.22847   0.00000  Uiso   1.00
H173   H     0.32013   0.56462   0.32322   0.00000  Uiso   1.00
H174   H     0.30378   0.56357   0.06215   0.00000  Uiso   1.00
H175   H     0.32942   0.50717   0.01711   0.00000  Uiso   1.00
H176   H     0.02412   0.37757   0.07044   0.00000  Uiso   1.00
H177   H     0.47588   0.62233   0.26310   0.00000  Uiso   1.00
H178   H     0.35525   0.59611   0.22299   0.00000  Uiso   1.00
H179   H     0.39979   0.60293   0.28273   0.00000  Uiso   1.00
H180   H     0.40642   0.63210   0.21803   0.00000  Uiso   1.00
H181   H     0.14476   0.40390   0.11021   0.00000  Uiso   1.00
H182   H     0.09364   0.36789   0.11532   0.00000  Uiso   1.00
N183   N     0.23744   0.48547   0.01284   0.00000  Uiso   1.00
N184   N     0.26255   0.51453   0.32049   0.00000  Uiso   1.00
O185   O     0.25325   0.42871   0.20659   0.00000  Uiso   1.00
O186   O     0.24674   0.57129   0.12674   0.00000  Uiso   1.00
O187   O     0.24480   0.41892   0.10279   0.00000  Uiso   1.00
O188   O     0.25520   0.58108   0.23055   0.00000  Uiso   1.00
O189   O     0.18935   0.50488   0.21857   0.00000  Uiso   1.00
O190   O     0.31064   0.49512   0.11476   0.00000  Uiso   1.00
O191   O     0.18090   0.49510   0.11477   0.00000  Uiso   1.00
O192   O     0.31910   0.50490   0.21857   0.00000  Uiso   1.00
Br193  Br    0.70057   0.64140   0.07406   0.00000  Uiso   1.00
Br194  Br    0.79943   0.35860   0.25927   0.00000  Uiso   1.00
C195   C     0.74824   0.40011   0.15136   0.00000  Uiso   1.00
C196   C     0.58821   0.45190   0.13386   0.00000  Uiso   1.00
C197   C     0.88361   0.50415   0.16535   0.00000  Uiso   1.00
C198   C     0.61639   0.49584   0.16799   0.00000  Uiso   1.00
C199   C     0.90108   0.46065   0.13072   0.00000  Uiso   1.00
C200   C     0.59892   0.53931   0.20269   0.00000  Uiso   1.00
C201   C     0.94737   0.45814   0.13055   0.00000  Uiso   1.00
C202   C     0.55263   0.54181   0.20291   0.00000  Uiso   1.00
C203   C     0.97654   0.50101   0.16620   0.00000  Uiso   1.00
C204   C     0.52346   0.49894   0.16725   0.00000  Uiso   1.00
C205   C     0.95883   0.54600   0.20077   0.00000  Uiso   1.00
C206   C     0.75176   0.59989   0.18197   0.00000  Uiso   1.00
C207   C     0.54117   0.45396   0.13266   0.00000  Uiso   1.00
C208   C     0.96506   0.41345   0.09615   0.00000  Uiso   1.00
C209   C     0.53494   0.58647   0.23738   0.00000  Uiso   1.00
C210   C     0.89209   0.59724   0.23270   0.00000  Uiso   1.00
C211   C     0.60790   0.40275   0.10061   0.00000  Uiso   1.00
C212   C     0.93529   0.36667   0.05774   0.00000  Uiso   1.00
C213   C     0.56471   0.63319   0.27592   0.00000  Uiso   1.00
C214   C     0.69402   0.46203   0.31659   0.00000  Uiso   1.00
C215   C     0.80597   0.53799   0.01675   0.00000  Uiso   1.00
C216   C     0.51150   0.41203   0.09755   0.00000  Uiso   1.00
C217   C     0.98850   0.58789   0.23595   0.00000  Uiso   1.00
C218   C     0.74152   0.34441   0.14443   0.00000  Uiso   1.00
C219   C     0.75848   0.65559   0.18890   0.00000  Uiso   1.00
C220   C     0.66466   0.49848   0.16703   0.00000  Uiso   1.00
C221   C     0.83534   0.50152   0.16631   0.00000  Uiso   1.00
C222   C     0.91179   0.54808   0.19949   0.00000  Uiso   1.00
Cu223  Cu    0.75500   0.50579   0.22813   0.00000  Uiso   1.00
Cu224  Cu    0.74499   0.49421   0.10521   0.00000  Uiso   1.00
H225   H     0.87778   0.42823   0.10495   0.00000  Uiso   1.00
H226   H     0.60014   0.39704   0.05059   0.00000  Uiso   1.00
H227   H     0.91366   0.34926   0.08710   0.00000  Uiso   1.00
H228   H     0.91397   0.37914   0.02214   0.00000  Uiso   1.00
H229   H     0.95510   0.33525   0.03425   0.00000  Uiso   1.00
H230   H     0.58605   0.62062   0.31143   0.00000  Uiso   1.00
H231   H     0.58632   0.65071   0.24661   0.00000  Uiso   1.00
H232   H     0.54490   0.66456   0.29953   0.00000  Uiso   1.00
H233   H     0.67986   0.43538   0.01011   0.00000  Uiso   1.00
H234   H     0.67058   0.49286   0.31627   0.00000  Uiso   1.00
H235   H     0.69620   0.43647   0.27117   0.00000  Uiso   1.00
H236   H     0.62223   0.57173   0.22847   0.00000  Uiso   1.00
H237   H     0.82013   0.56462   0.32322   0.00000  Uiso   1.00
H238   H     0.80378   0.56357   0.06215   0.00000  Uiso   1.00
H239   H     0.82942   0.50717   0.01711   0.00000  Uiso   1.00
H240   H     0.52412   0.37757   0.07044   0.00000  Uiso   1.00
H241   H     0.97588   0.62233   0.26310   0.00000  Uiso   1.00
H242   H     0.85525   0.59611   0.22299   0.00000  Uiso   1.00
H243   H     0.89979   0.60293   0.28273   0.00000  Uiso   1.00
H244   H     0.90642   0.63210   0.21803   0.00000  Uiso   1.00
H245   H     0.64476   0.40390   0.11021   0.00000  Uiso   1.00
H246   H     0.59364   0.36789   0.11532   0.00000  Uiso   1.00
N247   N     0.73744   0.48547   0.01284   0.00000  Uiso   1.00
N248   N     0.76255   0.51453   0.32049   0.00000  Uiso   1.00
O249   O     0.75325   0.42871   0.20659   0.00000  Uiso   1.00
O250   O     0.74674   0.57129   0.12674   0.00000  Uiso   1.00
O251   O     0.74480   0.41892   0.10279   0.00000  Uiso   1.00
O252   O     0.75520   0.58108   0.23055   0.00000  Uiso   1.00
O253   O     0.68935   0.50488   0.21857   0.00000  Uiso   1.00
O254   O     0.81064   0.49512   0.11476   0.00000  Uiso   1.00
O255   O     0.68090   0.49510   0.11477   0.00000  Uiso   1.00
O256   O     0.81910   0.50490   0.21857   0.00000  Uiso   1.00
Br257  Br    0.20057   0.97473   0.07406   0.00000  Uiso   1.00
Br258  Br    0.29943   0.69194   0.25927   0.00000  Uiso   1.00
C259   C     0.24824   0.73344   0.15136   0.00000  Uiso   1.00
C260   C     0.08821   0.78523   0.13386   0.00000  Uiso   1.00
C261   C     0.38361   0.83748   0.16535   0.00000  Uiso   1.00
C262   C     0.11639   0.82917   0.16799   0.00000  Uiso   1.00
C263   C     0.40108   0.79398   0.13072   0.00000  Uiso   1.00
C264   C     0.09892   0.87264   0.20269   0.00000  Uiso   1.00
C265   C     0.44737   0.79147   0.13055   0.00000  Uiso   1.00
C266   C     0.05263   0.87514   0.20291   0.00000  Uiso   1.00
C267   C     0.47654   0.83434   0.16620   0.00000  Uiso   1.00
C268   C     0.02346   0.83227   0.16725   0.00000  Uiso   1.00
C269   C     0.45883   0.87933   0.20077   0.00000  Uiso   1.00
C270   C     0.25176   0.93323   0.18197   0.00000  Uiso   1.00
C271   C     0.04117   0.78729   0.13266   0.00000  Uiso   1.00
C272   C     0.46506   0.74678   0.09615   0.00000  Uiso   1.00
C273   C     0.03494   0.91980   0.23738   0.00000  Uiso   1.00
C274   C     0.39209   0.93058   0.23270   0.00000  Uiso   1.00
C275   C     0.10790   0.73608   0.10061   0.00000  Uiso   1.00
C276   C     0.43529   0.70000   0.05774   0.00000  Uiso   1.00
C277   C     0.06471   0.96653   0.27592   0.00000  Uiso   1.00
C278   C     0.19402   0.79537   0.31659   0.00000  Uiso   1.00
C279   C     0.30597   0.87132   0.01675   0.00000  Uiso   1.00
C280   C     0.01150   0.74536   0.09755   0.00000  Uiso   1.00
C281   C     0.48850   0.92123   0.23595   0.00000  Uiso   1.00
C282   C     0.24152   0.67774   0.14443   0.00000  Uiso   1.00
C283   C     0.25848   0.98892   0.18890   0.00000  Uiso   1.00
C284   C     0.16466   0.83181   0.16703   0.00000  Uiso   1.00
C285   C     0.33534   0.83485   0.16631   0.00000  Uiso   1.00
C286   C     0.41179   0.88141   0.19949   0.00000  Uiso   1.00
Cu287  Cu    0.25500   0.83913   0.22813   0.00000  Uiso   1.00
Cu288  Cu    0.24499   0.82754   0.10521   0.00000  Uiso   1.00
H289   H     0.37778   0.76156   0.10495   0.00000  Uiso   1.00
H290   H     0.10014   0.73038   0.05059   0.00000  Uiso   1.00
H291   H     0.41366   0.68259   0.08710   0.00000  Uiso   1.00
H292   H     0.41397   0.71247   0.02214   0.00000  Uiso   1.00
H293   H     0.45510   0.66859   0.03425   0.00000  Uiso   1.00
H294   H     0.08605   0.95395   0.31143   0.00000  Uiso   1.00
H295   H     0.08632   0.98404   0.24661   0.00000  Uiso   1.00
H296   H     0.04490   0.99789   0.29953   0.00000  Uiso   1.00
H297   H     0.17986   0.76872   0.01011   0.00000  Uiso   1.00
H298   H     0.17058   0.82620   0.31627   0.00000  Uiso   1.00
H299   H     0.19620   0.76980   0.27117   0.00000  Uiso   1.00
H300   H     0.12223   0.90507   0.22847   0.00000  Uiso   1.00
H301   H     0.32013   0.89795   0.32322   0.00000  Uiso   1.00
H302   H     0.30378   0.89691   0.06215   0.00000  Uiso   1.00
H303   H     0.32942   0.84050   0.01711   0.00000  Uiso   1.00
H304   H     0.02412   0.71091   0.07044   0.00000  Uiso   1.00
H305   H     0.47588   0.95567   0.26310   0.00000  Uiso   1.00
H306   H     0.35525   0.92944   0.22299   0.00000  Uiso   1.00
H307   H     0.39979   0.93627   0.28273   0.00000  Uiso   1.00
H308   H     0.40642   0.96543   0.21803   0.00000  Uiso   1.00
H309   H     0.14476   0.73723   0.11021   0.00000  Uiso   1.00
H310   H     0.09364   0.70123   0.11532   0.00000  Uiso   1.00
N311   N     0.23744   0.81881   0.01284   0.00000  Uiso   1.00
N312   N     0.26255   0.84786   0.32049   0.00000  Uiso   1.00
O313   O     0.25325   0.76204   0.20659   0.00000  Uiso   1.00
O314   O     0.24674   0.90462   0.12674   0.00000  Uiso   1.00
O315   O     0.24480   0.75226   0.10279   0.00000  Uiso   1.00
O316   O     0.25520   0.91441   0.23055   0.00000  Uiso   1.00
O317   O     0.18935   0.83821   0.21857   0.00000  Uiso   1.00
O318   O     0.31064   0.82845   0.11476   0.00000  Uiso   1.00
O319   O     0.18090   0.82843   0.11477   0.00000  Uiso   1.00
O320   O     0.31910   0.83824   0.21857   0.00000  Uiso   1.00
Br321  Br    0.70057   0.97473   0.07406   0.00000  Uiso   1.00
Br322  Br    0.79943   0.69194   0.25927   0.00000  Uiso   1.00
C323   C     0.74824   0.73344   0.15136   0.00000  Uiso   1.00
C324   C     0.58821   0.78523   0.13386   0.00000  Uiso   1.00
C325   C     0.88361   0.83748   0.16535   0.00000  Uiso   1.00
C326   C     0.61639   0.82917   0.16799   0.00000  Uiso   1.00
C327   C     0.90108   0.79398   0.13072   0.00000  Uiso   1.00
C328   C     0.59892   0.87264   0.20269   0.00000  Uiso   1.00
C329   C     0.94737   0.79147   0.13055   0.00000  Uiso   1.00
C330   C     0.55263   0.87514   0.20291   0.00000  Uiso   1.00
C331   C     0.97654   0.83434   0.16620   0.00000  Uiso   1.00
C332   C     0.52346   0.83227   0.16725   0.00000  Uiso   1.00
C333   C     0.95883   0.87933   0.20077   0.00000  Uiso   1.00
C334   C     0.75176   0.93323   0.18197   0.00000  Uiso   1.00
C335   C     0.54117   0.78729   0.13266   0.00000  Uiso   1.00
C336   C     0.96506   0.74678   0.09615   0.00000  Uiso   1.00
C337   C     0.53494   0.91980   0.23738   0.00000  Uiso   1.00
C338   C     0.89209   0.93058   0.23270   0.00000  Uiso   1.00
C339   C     0.60790   0.73608   0.10061   0.00000  Uiso   1.00
C340   C     0.93529   0.70000   0.05774   0.00000  Uiso   1.00
C341   C     0.56471   0.96653   0.27592   0.00000  Uiso   1.00
C342   C     0.69402   0.79537   0.31659   0.00000  Uiso   1.00
C343   C     0.80597   0.87132   0.01675   0.00000  Uiso   1.00
C344   C     0.51150   0.74536   0.09755   0.00000  Uiso   1.00
C345   C     0.98850   0.92123   0.23595   0.00000  Uiso   1.00
C346   C     0.74152   0.67774   0.14443   0.00000  Uiso   1.00
C347   C     0.75848   0.98892   0.18890   0.00000  Uiso   1.00
C348   C     0.66466   0.83181   0.16703   0.00000  Uiso   1.00
C349   C     0.83534   0.83485   0.16631   0.00000  Uiso   1.00
C350   C     0.91179   0.88141   0.19949   0.00000  Uiso   1.00
Cu351  Cu    0.75500   0.83913   0.22813   0.00000  Uiso   1.00
Cu352  Cu    0.74499   0.82754   0.10521   0.00000  Uiso   1.00
H353   H     0.87778   0.76156   0.10495   0.00000  Uiso   1.00
H354   H     0.60014   0.73038   0.05059   0.00000  Uiso   1.00
H355   H     0.91366   0.68259   0.08710   0.00000  Uiso   1.00
H356   H     0.91397   0.71247   0.02214   0.00000  Uiso   1.00
H357   H     0.95510   0.66859   0.03425   0.00000  Uiso   1.00
H358   H     0.58605   0.95395   0.31143   0.00000  Uiso   1.00
H359   H     0.58632   0.98404   0.24661   0.00000  Uiso   1.00
H360   H     0.54490   0.99789   0.29953   0.00000  Uiso   1.00
H361   H     0.67986   0.76872   0.01011   0.00000  Uiso   1.00
H362   H     0.67058   0.82620   0.31627   0.00000  Uiso   1.00
H363   H     0.69620   0.76980   0.27117   0.00000  Uiso   1.00
H364   H     0.62223   0.90507   0.22847   0.00000  Uiso   1.00
H365   H     0.82013   0.89795   0.32322   0.00000  Uiso   1.00
H366   H     0.80378   0.89691   0.06215   0.00000  Uiso   1.00
H367   H     0.82942   0.84050   0.01711   0.00000  Uiso   1.00
H368   H     0.52412   0.71091   0.07044   0.00000  Uiso   1.00
H369   H     0.97588   0.95567   0.26310   0.00000  Uiso   1.00
H370   H     0.85525   0.92944   0.22299   0.00000  Uiso   1.00
H371   H     0.89979   0.93627   0.28273   0.00000  Uiso   1.00
H372   H     0.90642   0.96543   0.21803   0.00000  Uiso   1.00
H373   H     0.64476   0.73723   0.11021   0.00000  Uiso   1.00
H374   H     0.59364   0.70123   0.11532   0.00000  Uiso   1.00
N375   N     0.73744   0.81881   0.01284   0.00000  Uiso   1.00
N376   N     0.76255   0.84786   0.32049   0.00000  Uiso   1.00
O377   O     0.75325   0.76204   0.20659   0.00000  Uiso   1.00
O378   O     0.74674   0.90462   0.12674   0.00000  Uiso   1.00
O379   O     0.74480   0.75226   0.10279   0.00000  Uiso   1.00
O380   O     0.75520   0.91441   0.23055   0.00000  Uiso   1.00
O381   O     0.68935   0.83821   0.21857   0.00000  Uiso   1.00
O382   O     0.81064   0.82845   0.11476   0.00000  Uiso   1.00
O383   O     0.68090   0.82843   0.11477   0.00000  Uiso   1.00
O384   O     0.81910   0.83824   0.21857   0.00000  Uiso   1.00
Br385  Br    0.20057   0.30806   0.40740   0.00000  Uiso   1.00
Br386  Br    0.29943   0.02527   0.59260   0.00000  Uiso   1.00
C387   C     0.24824   0.06677   0.48469   0.00000  Uiso   1.00
C388   C     0.08821   0.11856   0.46720   0.00000  Uiso   1.00
C389   C     0.38361   0.17081   0.49869   0.00000  Uiso   1.00
C390   C     0.11639   0.16251   0.50132   0.00000  Uiso   1.00
C391   C     0.40108   0.12732   0.46405   0.00000  Uiso   1.00
C392   C     0.09892   0.20598   0.53603   0.00000  Uiso   1.00
C393   C     0.44737   0.12480   0.46389   0.00000  Uiso   1.00
C394   C     0.05263   0.20847   0.53624   0.00000  Uiso   1.00
C395   C     0.47654   0.16767   0.49954   0.00000  Uiso   1.00
C396   C     0.02346   0.16561   0.50058   0.00000  Uiso   1.00
C397   C     0.45883   0.21266   0.53410   0.00000  Uiso   1.00
C398   C     0.25176   0.26656   0.51531   0.00000  Uiso   1.00
C399   C     0.04117   0.12062   0.46600   0.00000  Uiso   1.00
C400   C     0.46506   0.08011   0.42949   0.00000  Uiso   1.00
C401   C     0.03494   0.25313   0.57071   0.00000  Uiso   1.00
C402   C     0.39209   0.26391   0.56603   0.00000  Uiso   1.00
C403   C     0.10790   0.06942   0.43394   0.00000  Uiso   1.00
C404   C     0.43529   0.03333   0.39107   0.00000  Uiso   1.00
C405   C     0.06471   0.29986   0.60925   0.00000  Uiso   1.00
C406   C     0.19402   0.12870   0.64992   0.00000  Uiso   1.00
C407   C     0.30597   0.20465   0.35009   0.00000  Uiso   1.00
C408   C     0.01150   0.07870   0.43088   0.00000  Uiso   1.00
C409   C     0.48850   0.25456   0.56928   0.00000  Uiso   1.00
C410   C     0.24152   0.01108   0.47777   0.00000  Uiso   1.00
C411   C     0.25848   0.32225   0.52223   0.00000  Uiso   1.00
C412   C     0.16466   0.16514   0.50036   0.00000  Uiso   1.00
C413   C     0.33534   0.16819   0.49964   0.00000  Uiso   1.00
C414   C     0.41179   0.21475   0.53282   0.00000  Uiso   1.00
Cu415  Cu    0.25500   0.17246   0.56146   0.00000  Uiso   1.00
Cu416  Cu    0.24499   0.16087   0.43854   0.00000  Uiso   1.00
H417   H     0.37778   0.09490   0.43828   0.00000  Uiso   1.00
H418   H     0.10014   0.06371   0.38392   0.00000  Uiso   1.00
H419   H     0.41366   0.01593   0.42044   0.00000  Uiso   1.00
H420   H     0.41397   0.04580   0.35547   0.00000  Uiso   1.00
H421   H     0.45510   0.00192   0.36758   0.00000  Uiso   1.00
H422   H     0.08605   0.28729   0.64477   0.00000  Uiso   1.00
H423   H     0.08632   0.31738   0.57994   0.00000  Uiso   1.00
H424   H     0.04490   0.33122   0.63286   0.00000  Uiso   1.00
H425   H     0.17986   0.10205   0.34344   0.00000  Uiso   1.00
H426   H     0.17058   0.15953   0.64960   0.00000  Uiso   1.00
H427   H     0.19620   0.10313   0.60451   0.00000  Uiso   1.00
H428   H     0.12223   0.23840   0.56180   0.00000  Uiso   1.00
H429   H     0.32013   0.23128   0.65655   0.00000  Uiso   1.00
H430   H     0.30378   0.23024   0.39549   0.00000  Uiso   1.00
H431   H     0.32942   0.17383   0.35044   0.00000  Uiso   1.00
H432   H     0.02412   0.04424   0.40377   0.00000  Uiso   1.00
H433   H     0.47588   0.28900   0.59643   0.00000  Uiso   1.00
H434   H     0.35525   0.26278   0.55633   0.00000  Uiso   1.00
H435   H     0.39979   0.26960   0.61607   0.00000  Uiso   1.00
H436   H     0.40642   0.29877   0.55136   0.00000  Uiso   1.00
H437   H     0.14476   0.07057   0.44354   0.00000  Uiso   1.00
H438   H     0.09364   0.03456   0.44865   0.00000  Uiso   1.00
N439   N     0.23744   0.15214   0.34617   0.00000  Uiso   1.00
N440   N     0.26255   0.18119   0.65383   0.00000  Uiso   1.00
O441   O     0.25325   0.09538   0.53992   0.00000  Uiso   1.00
O442   O     0.24674   0.23796   0.46008   0.00000  Uiso   1.00
O443   O     0.24480   0.08559   0.43612   0.00000  Uiso   1.00
O444   O     0.25520   0.24774   0.56388   0.00000  Uiso   1.00
O445   O     0.18935   0.17155   0.55191   0.00000  Uiso   1.00
O446   O     0.31064   0.16179   0.44809   0.00000  Uiso   1.00
O447   O     0.18090   0.16176   0.44810   0.00000  Uiso   1.00
O448   O     0.31910   0.17157   0.55190   0.00000  Uiso   1.00
Br449  Br    0.70057   0.30806   0.40740   0.00000  Uiso   1.00
Br450  Br    0.79943   0.02527   0.59260   0.00000  Uiso   1.00
C451   C     0.74824   0.06677   0.48469   0.00000  Uiso   1.00
C452   C     0.58821   0.11856   0.46720   0.00000  Uiso   1.00
C453   C     0.88361   0.17081   0.49869   0.00000  Uiso   1.00
C454   C     0.61639   0.16251   0.50132   0.00000  Uiso   1.00
C455   C     0.90108   0.12732   0.46405   0.00000  Uiso   1.00
C456   C     0.59892   0.20598   0.53603   0.00000  Uiso   1.00
C457   C     0.94737   0.12480   0.46389   0.00000  Uiso   1.00
C458   C     0.55263   0.20847   0.53624   0.00000  Uiso   1.00
C459   C     0.97654   0.16767   0.49954   0.00000  Uiso   1.00
C460   C     0.52346   0.16561   0.50058   0.00000  Uiso   1.00
C461   C     0.95883   0.21266   0.53410   0.00000  Uiso   1.00
C462   C     0.75176   0.26656   0.51531   0.00000  Uiso   1.00
C463   C     0.54117   0.12062   0.46600   0.00000  Uiso   1.00
C464   C     0.96506   0.08011   0.42949   0.00000  Uiso   1.00
C465   C     0.53494   0.25313   0.57071   0.00000  Uiso   1.00
C466   C     0.89209   0.26391   0.56603   0.00000  Uiso   1.00
C467   C     0.60790   0.06942   0.43394   0.00000  Uiso   1.00
C468   C     0.93529   0.03333   0.39107   0.00000  Uiso   1.00
C469   C     0.56471   0.29986   0.60925   0.00000  Uiso   1.00
C470   C     0.69402   0.12870   0.64992   0.00000  Uiso   1.00
C471   C     0.80597   0.20465   0.35009   0.00000  Uiso   1.00
C472   C     0.51150   0.07870   0.43088   0.00000  Uiso   1.00
C473   C     0.98850   0.25456   0.56928   0.00000  Uiso   1.00
C474   C     0.74152   0.01108   0.47777   0.00000  Uiso   1.00
C475   C     0.75848   0.32225   0.52223   0.00000  Uiso   1.00
C476   C     0.66466   0.16514   0.50036   0.00000  Uiso   1.00
C477   C     0.83534   0.16819   0.49964   0.00000  Uiso   1.00
C478   C     0.91179   0.21475   0.53282   0.00000  Uiso   1.00
Cu479  Cu    0.75500   0.17246   0.56146   0.00000  Uiso   1.00
Cu480  Cu    0.74499   0.16087   0.43854   0.00000  Uiso   1.00
H481   H     0.87778   0.09490   0.43828   0.00000  Uiso   1.00
H482   H     0.60014   0.06371   0.38392   0.00000  Uiso   1.00
H483   H     0.91366   0.01593   0.42044   0.00000  Uiso   1.00
H484   H     0.91397   0.04580   0.35547   0.00000  Uiso   1.00
H485   H     0.95510   0.00192   0.36758   0.00000  Uiso   1.00
H486   H     0.58605   0.28729   0.64477   0.00000  Uiso   1.00
H487   H     0.58632   0.31738   0.57994   0.00000  Uiso   1.00
H488   H     0.54490   0.33122   0.63286   0.00000  Uiso   1.00
H489   H     0.67986   0.10205   0.34344   0.00000  Uiso   1.00
H490   H     0.67058   0.15953   0.64960   0.00000  Uiso   1.00
H491   H     0.69620   0.10313   0.60451   0.00000  Uiso   1.00
H492   H     0.62223   0.23840   0.56180   0.00000  Uiso   1.00
H493   H     0.82013   0.23128   0.65655   0.00000  Uiso   1.00
H494   H     0.80378   0.23024   0.39549   0.00000  Uiso   1.00
H495   H     0.82942   0.17383   0.35044   0.00000  Uiso   1.00
H496   H     0.52412   0.04424   0.40377   0.00000  Uiso   1.00
H497   H     0.97588   0.28900   0.59643   0.00000  Uiso   1.00
H498   H     0.85525   0.26278   0.55633   0.00000  Uiso   1.00
H499   H     0.89979   0.26960   0.61607   0.00000  Uiso   1.00
H500   H     0.90642   0.29877   0.55136   0.00000  Uiso   1.00
H501   H     0.64476   0.07057   0.44354   0.00000  Uiso   1.00
H502   H     0.59364   0.03456   0.44865   0.00000  Uiso   1.00
N503   N     0.73744   0.15214   0.34617   0.00000  Uiso   1.00
N504   N     0.76255   0.18119   0.65383   0.00000  Uiso   1.00
O505   O     0.75325   0.09538   0.53992   0.00000  Uiso   1.00
O506   O     0.74674   0.23796   0.46008   0.00000  Uiso   1.00
O507   O     0.74480   0.08559   0.43612   0.00000  Uiso   1.00
O508   O     0.75520   0.24774   0.56388   0.00000  Uiso   1.00
O509   O     0.68935   0.17155   0.55191   0.00000  Uiso   1.00
O510   O     0.81064   0.16179   0.44809   0.00000  Uiso   1.00
O511   O     0.68090   0.16176   0.44810   0.00000  Uiso   1.00
O512   O     0.81910   0.17157   0.55190   0.00000  Uiso   1.00
Br513  Br    0.20057   0.64140   0.40740   0.00000  Uiso   1.00
Br514  Br    0.29943   0.35860   0.59260   0.00000  Uiso   1.00
C515   C     0.24824   0.40011   0.48469   0.00000  Uiso   1.00
C516   C     0.08821   0.45190   0.46720   0.00000  Uiso   1.00
C517   C     0.38361   0.50415   0.49869   0.00000  Uiso   1.00
C518   C     0.11639   0.49584   0.50132   0.00000  Uiso   1.00
C519   C     0.40108   0.46065   0.46405   0.00000  Uiso   1.00
C520   C     0.09892   0.53931   0.53603   0.00000  Uiso   1.00
C521   C     0.44737   0.45814   0.46389   0.00000  Uiso   1.00
C522   C     0.05263   0.54181   0.53624   0.00000  Uiso   1.00
C523   C     0.47654   0.50101   0.49954   0.00000  Uiso   1.00
C524   C     0.02346   0.49894   0.50058   0.00000  Uiso   1.00
C525   C     0.45883   0.54600   0.53410   0.00000  Uiso   1.00
C526   C     0.25176   0.59989   0.51531   0.00000  Uiso   1.00
C527   C     0.04117   0.45396   0.46600   0.00000  Uiso   1.00
C528   C     0.46506   0.41345   0.42949   0.00000  Uiso   1.00
C529   C     0.03494   0.58647   0.57071   0.00000  Uiso   1.00
C530   C     0.39209   0.59724   0.56603   0.00000  Uiso   1.00
C531   C     0.10790   0.40275   0.43394   0.00000  Uiso   1.00
C532   C     0.43529   0.36667   0.39107   0.00000  Uiso   1.00
C533   C     0.06471   0.63319   0.60925   0.00000  Uiso   1.00
C534   C     0.19402   0.46203   0.64992   0.00000  Uiso   1.00
C535   C     0.30597   0.53799   0.35009   0.00000  Uiso   1.00
C536   C     0.01150   0.41203   0.43088   0.00000  Uiso   1.00
C537   C     0.48850   0.58789   0.56928   0.00000  Uiso   1.00
C538   C     0.24152   0.34441   0.47777   0.00000  Uiso   1.00
C539   C     0.25848   0.65559   0.52223   0.00000  Uiso   1.00
C540   C     0.16466   0.49848   0.50036   0.00000  Uiso   1.00
C541   C     0.33534   0.50152   0.49964   0.00000  Uiso   1.00
C542   C     0.41179   0.54808   0.53282   0.00000  Uiso   1.00
Cu543  Cu    0.25500   0.50579   0.56146   0.00000  Uiso   1.00
Cu544  Cu    0.24499   0.49421   0.43854   0.00000  Uiso   1.00
H545   H     0.37778   0.42823   0.43828   0.00000  Uiso   1.00
H546   H     0.10014   0.39704   0.38392   0.00000  Uiso   1.00
H547   H     0.41366   0.34926   0.42044   0.00000  Uiso   1.00
H548   H     0.41397   0.37914   0.35547   0.00000  Uiso   1.00
H549   H     0.45510   0.33525   0.36758   0.00000  Uiso   1.00
H550   H     0.08605   0.62062   0.64477   0.00000  Uiso   1.00
H551   H     0.08632   0.65071   0.57994   0.00000  Uiso   1.00
H552   H     0.04490   0.66456   0.63286   0.00000  Uiso   1.00
H553   H     0.17986   0.43538   0.34344   0.00000  Uiso   1.00
H554   H     0.17058   0.49286   0.64960   0.00000  Uiso   1.00
H555   H     0.19620   0.43647   0.60451   0.00000  Uiso   1.00
H556   H     0.12223   0.57173   0.56180   0.00000  Uiso   1.00
H557   H     0.32013   0.56462   0.65655   0.00000  Uiso   1.00
H558   H     0.30378   0.56357   0.39549   0.00000  Uiso   1.00
H559   H     0.32942   0.50717   0.35044   0.00000  Uiso   1.00
H560   H     0.02412   0.37757   0.40377   0.00000  Uiso   1.00
H561   H     0.47588   0.62233   0.59643   0.00000  Uiso   1.00
H562   H     0.35525   0.59611   0.55633   0.00000  Uiso   1.00
H563   H     0.39979   0.60293   0.61607   0.00000  Uiso   1.00
H564   H     0.40642   0.63210   0.55136   0.00000  Uiso   1.00
H565   H     0.14476   0.40390   0.44354   0.00000  Uiso   1.00
H566   H     0.09364   0.36789   0.44865   0.00000  Uiso   1.00
N567   N     0.23744   0.48547   0.34617   0.00000  Uiso   1.00
N568   N     0.26255   0.51453   0.65383   0.00000  Uiso   1.00
O569   O     0.25325   0.42871   0.53992   0.00000  Uiso   1.00
O570   O     0.24674   0.57129   0.46008   0.00000  Uiso   1.00
O571   O     0.24480   0.41892   0.43612   0.00000  Uiso   1.00
O572   O     0.25520   0.58108   0.56388   0.00000  Uiso   1.00
O573   O     0.18935   0.50488   0.55191   0.00000  Uiso   1.00
O574   O     0.31064   0.49512   0.44809   0.00000  Uiso   1.00
O575   O     0.18090   0.49510   0.44810   0.00000  Uiso   1.00
O576   O     0.31910   0.50490   0.55190   0.00000  Uiso   1.00
Br577  Br    0.70057   0.64140   0.40740   0.00000  Uiso   1.00
Br578  Br    0.79943   0.35860   0.59260   0.00000  Uiso   1.00
C579   C     0.74824   0.40011   0.48469   0.00000  Uiso   1.00
C580   C     0.58821   0.45190   0.46720   0.00000  Uiso   1.00
C581   C     0.88361   0.50415   0.49869   0.00000  Uiso   1.00
C582   C     0.61639   0.49584   0.50132   0.00000  Uiso   1.00
C583   C     0.90108   0.46065   0.46405   0.00000  Uiso   1.00
C584   C     0.59892   0.53931   0.53603   0.00000  Uiso   1.00
C585   C     0.94737   0.45814   0.46389   0.00000  Uiso   1.00
C586   C     0.55263   0.54181   0.53624   0.00000  Uiso   1.00
C587   C     0.97654   0.50101   0.49954   0.00000  Uiso   1.00
C588   C     0.52346   0.49894   0.50058   0.00000  Uiso   1.00
C589   C     0.95883   0.54600   0.53410   0.00000  Uiso   1.00
C590   C     0.75176   0.59989   0.51531   0.00000  Uiso   1.00
C591   C     0.54117   0.45396   0.46600   0.00000  Uiso   1.00
C592   C     0.96506   0.41345   0.42949   0.00000  Uiso   1.00
C593   C     0.53494   0.58647   0.57071   0.00000  Uiso   1.00
C594   C     0.89209   0.59724   0.56603   0.00000  Uiso   1.00
C595   C     0.60790   0.40275   0.43394   0.00000  Uiso   1.00
C596   C     0.93529   0.36667   0.39107   0.00000  Uiso   1.00
C597   C     0.56471   0.63319   0.60925   0.00000  Uiso   1.00
C598   C     0.69402   0.46203   0.64992   0.00000  Uiso   1.00
C599   C     0.80597   0.53799   0.35009   0.00000  Uiso   1.00
C600   C     0.51150   0.41203   0.43088   0.00000  Uiso   1.00
C601   C     0.98850   0.58789   0.56928   0.00000  Uiso   1.00
C602   C     0.74152   0.34441   0.47777   0.00000  Uiso   1.00
C603   C     0.75848   0.65559   0.52223   0.00000  Uiso   1.00
C604   C     0.66466   0.49848   0.50036   0.00000  Uiso   1.00
C605   C     0.83534   0.50152   0.49964   0.00000  Uiso   1.00
C606   C     0.91179   0.54808   0.53282   0.00000  Uiso   1.00
Cu607  Cu    0.75500   0.50579   0.56146   0.00000  Uiso   1.00
Cu608  Cu    0.74499   0.49421   0.43854   0.00000  Uiso   1.00
H609   H     0.87778   0.42823   0.43828   0.00000  Uiso   1.00
H610   H     0.60014   0.39704   0.38392   0.00000  Uiso   1.00
H611   H     0.91366   0.34926   0.42044   0.00000  Uiso   1.00
H612   H     0.91397   0.37914   0.35547   0.00000  Uiso   1.00
H613   H     0.95510   0.33525   0.36758   0.00000  Uiso   1.00
H614   H     0.58605   0.62062   0.64477   0.00000  Uiso   1.00
H615   H     0.58632   0.65071   0.57994   0.00000  Uiso   1.00
H616   H     0.54490   0.66456   0.63286   0.00000  Uiso   1.00
H617   H     0.67986   0.43538   0.34344   0.00000  Uiso   1.00
H618   H     0.67058   0.49286   0.64960   0.00000  Uiso   1.00
H619   H     0.69620   0.43647   0.60451   0.00000  Uiso   1.00
H620   H     0.62223   0.57173   0.56180   0.00000  Uiso   1.00
H621   H     0.82013   0.56462   0.65655   0.00000  Uiso   1.00
H622   H     0.80378   0.56357   0.39549   0.00000  Uiso   1.00
H623   H     0.82942   0.50717   0.35044   0.00000  Uiso   1.00
H624   H     0.52412   0.37757   0.40377   0.00000  Uiso   1.00
H625   H     0.97588   0.62233   0.59643   0.00000  Uiso   1.00
H626   H     0.85525   0.59611   0.55633   0.00000  Uiso   1.00
H627   H     0.89979   0.60293   0.61607   0.00000  Uiso   1.00
H628   H     0.90642   0.63210   0.55136   0.00000  Uiso   1.00
H629   H     0.64476   0.40390   0.44354   0.00000  Uiso   1.00
H630   H     0.59364   0.36789   0.44865   0.00000  Uiso   1.00
N631   N     0.73744   0.48547   0.34617   0.00000  Uiso   1.00
N632   N     0.76255   0.51453   0.65383   0.00000  Uiso   1.00
O633   O     0.75325   0.42871   0.53992   0.00000  Uiso   1.00
O634   O     0.74674   0.57129   0.46008   0.00000  Uiso   1.00
O635   O     0.74480   0.41892   0.43612   0.00000  Uiso   1.00
O636   O     0.75520   0.58108   0.56388   0.00000  Uiso   1.00
O637   O     0.68935   0.50488   0.55191   0.00000  Uiso   1.00
O638   O     0.81064   0.49512   0.44809   0.00000  Uiso   1.00
O639   O     0.68090   0.49510   0.44810   0.00000  Uiso   1.00
O640   O     0.81910   0.50490   0.55190   0.00000  Uiso   1.00
Br641  Br    0.20057   0.97473   0.40740   0.00000  Uiso   1.00
Br642  Br    0.29943   0.69194   0.59260   0.00000  Uiso   1.00
C643   C     0.24824   0.73344   0.48469   0.00000  Uiso   1.00
C644   C     0.08821   0.78523   0.46720   0.00000  Uiso   1.00
C645   C     0.38361   0.83748   0.49869   0.00000  Uiso   1.00
C646   C     0.11639   0.82917   0.50132   0.00000  Uiso   1.00
C647   C     0.40108   0.79398   0.46405   0.00000  Uiso   1.00
C648   C     0.09892   0.87264   0.53603   0.00000  Uiso   1.00
C649   C     0.44737   0.79147   0.46389   0.00000  Uiso   1.00
C650   C     0.05263   0.87514   0.53624   0.00000  Uiso   1.00
C651   C     0.47654   0.83434   0.49954   0.00000  Uiso   1.00
C652   C     0.02346   0.83227   0.50058   0.00000  Uiso   1.00
C653   C     0.45883   0.87933   0.53410   0.00000  Uiso   1.00
C654   C     0.25176   0.93323   0.51531   0.00000  Uiso   1.00
C655   C     0.04117   0.78729   0.46600   0.00000  Uiso   1.00
C656   C     0.46506   0.74678   0.42949   0.00000  Uiso   1.00
C657   C     0.03494   0.91980   0.57071   0.00000  Uiso   1.00
C658   C     0.39209   0.93058   0.56603   0.00000  Uiso   1.00
C659   C     0.10790   0.73608   0.43394   0.00000  Uiso   1.00
C660   C     0.43529   0.70000   0.39107   0.00000  Uiso   1.00
C661   C     0.06471   0.96653   0.60925   0.00000  Uiso   1.00
C662   C     0.19402   0.79537   0.64992   0.00000  Uiso   1.00
C663   C     0.30597   0.87132   0.35009   0.00000  Uiso   1.00
C664   C     0.01150   0.74536   0.43088   0.00000  Uiso   1.00
C665   C     0.48850   0.92123   0.56928   0.00000  Uiso   1.00
C666   C     0.24152   0.67774   0.47777   0.00000  Uiso   1.00
C667   C     0.25848   0.98892   0.52223   0.00000  Uiso   1.00
C668   C     0.16466   0.83181   0.50036   0.00000  Uiso   1.00
C669   C     0.33534   0.83485   0.49964   0.00000  Uiso   1.00
C670   C     0.41179   0.88141   0.53282   0.00000  Uiso   1.00
Cu671  Cu    0.25500   0.83913   0.56146   0.00000  Uiso   1.00
Cu672  Cu    0.24499   0.82754   0.43854   0.00000  Uiso   1.00
H673   H     0.37778   0.76156   0.43828   0.00000  Uiso   1.00
H674   H     0.10014   0.73038   0.38392   0.00000  Uiso   1.00
H675   H     0.41366   0.68259   0.42044   0.00000  Uiso   1.00
H676   H     0.41397   0.71247   0.35547   0.00000  Uiso   1.00
H677   H     0.45510   0.66859   0.36758   0.00000  Uiso   1.00
H678   H     0.08605   0.95395   0.64477   0.00000  Uiso   1.00
H679   H     0.08632   0.98404   0.57994   0.00000  Uiso   1.00
H680   H     0.04490   0.99789   0.63286   0.00000  Uiso   1.00
H681   H     0.17986   0.76872   0.34344   0.00000  Uiso   1.00
H682   H     0.17058   0.82620   0.64960   0.00000  Uiso   1.00
H683   H     0.19620   0.76980   0.60451   0.00000  Uiso   1.00
H684   H     0.12223   0.90507   0.56180   0.00000  Uiso   1.00
H685   H     0.32013   0.89795   0.65655   0.00000  Uiso   1.00
H686   H     0.30378   0.89691   0.39549   0.00000  Uiso   1.00
H687   H     0.32942   0.84050   0.35044   0.00000  Uiso   1.00
H688   H     0.02412   0.71091   0.40377   0.00000  Uiso   1.00
H689   H     0.47588   0.95567   0.59643   0.00000  Uiso   1.00
H690   H     0.35525   0.92944   0.55633   0.00000  Uiso   1.00
H691   H     0.39979   0.93627   0.61607   0.00000  Uiso   1.00
H692   H     0.40642   0.96543   0.55136   0.00000  Uiso   1.00
H693   H     0.14476   0.73723   0.44354   0.00000  Uiso   1.00
H694   H     0.09364   0.70123   0.44865   0.00000  Uiso   1.00
N695   N     0.23744   0.81881   0.34617   0.00000  Uiso   1.00
N696   N     0.26255   0.84786   0.65383   0.00000  Uiso   1.00
O697   O     0.25325   0.76204   0.53992   0.00000  Uiso   1.00
O698   O     0.24674   0.90462   0.46008   0.00000  Uiso   1.00
O699   O     0.24480   0.75226   0.43612   0.00000  Uiso   1.00
O700   O     0.25520   0.91441   0.56388   0.00000  Uiso   1.00
O701   O     0.18935   0.83821   0.55191   0.00000  Uiso   1.00
O702   O     0.31064   0.82845   0.44809   0.00000  Uiso   1.00
O703   O     0.18090   0.82843   0.44810   0.00000  Uiso   1.00
O704   O     0.31910   0.83824   0.55190   0.00000  Uiso   1.00
Br705  Br    0.70057   0.97473   0.40740   0.00000  Uiso   1.00
Br706  Br    0.79943   0.69194   0.59260   0.00000  Uiso   1.00
C707   C     0.74824   0.73344   0.48469   0.00000  Uiso   1.00
C708   C     0.58821   0.78523   0.46720   0.00000  Uiso   1.00
C709   C     0.88361   0.83748   0.49869   0.00000  Uiso   1.00
C710   C     0.61639   0.82917   0.50132   0.00000  Uiso   1.00
C711   C     0.90108   0.79398   0.46405   0.00000  Uiso   1.00
C712   C     0.59892   0.87264   0.53603   0.00000  Uiso   1.00
C713   C     0.94737   0.79147   0.46389   0.00000  Uiso   1.00
C714   C     0.55263   0.87514   0.53624   0.00000  Uiso   1.00
C715   C     0.97654   0.83434   0.49954   0.00000  Uiso   1.00
C716   C     0.52346   0.83227   0.50058   0.00000  Uiso   1.00
C717   C     0.95883   0.87933   0.53410   0.00000  Uiso   1.00
C718   C     0.75176   0.93323   0.51531   0.00000  Uiso   1.00
C719   C     0.54117   0.78729   0.46600   0.00000  Uiso   1.00
C720   C     0.96506   0.74678   0.42949   0.00000  Uiso   1.00
C721   C     0.53494   0.91980   0.57071   0.00000  Uiso   1.00
C722   C     0.89209   0.93058   0.56603   0.00000  Uiso   1.00
C723   C     0.60790   0.73608   0.43394   0.00000  Uiso   1.00
C724   C     0.93529   0.70000   0.39107   0.00000  Uiso   1.00
C725   C     0.56471   0.96653   0.60925   0.00000  Uiso   1.00
C726   C     0.69402   0.79537   0.64992   0.00000  Uiso   1.00
C727   C     0.80597   0.87132   0.35009   0.00000  Uiso   1.00
C728   C     0.51150   0.74536   0.43088   0.00000  Uiso   1.00
C729   C     0.98850   0.92123   0.56928   0.00000  Uiso   1.00
C730   C     0.74152   0.67774   0.47777   0.00000  Uiso   1.00
C731   C     0.75848   0.98892   0.52223   0.00000  Uiso   1.00
C732   C     0.66466   0.83181   0.50036   0.00000  Uiso   1.00
C733   C     0.83534   0.83485   0.49964   0.00000  Uiso   1.00
C734   C     0.91179   0.88141   0.53282   0.00000  Uiso   1.00
Cu735  Cu    0.75500   0.83913   0.56146   0.00000  Uiso   1.00
Cu736  Cu    0.74499   0.82754   0.43854   0.00000  Uiso   1.00
H737   H     0.87778   0.76156   0.43828   0.00000  Uiso   1.00
H738   H     0.60014   0.73038   0.38392   0.00000  Uiso   1.00
H739   H     0.91366   0.68259   0.42044   0.00000  Uiso   1.00
H740   H     0.91397   0.71247   0.35547   0.00000  Uiso   1.00
H741   H     0.95510   0.66859   0.36758   0.00000  Uiso   1.00
H742   H     0.58605   0.95395   0.64477   0.00000  Uiso   1.00
H743   H     0.58632   0.98404   0.57994   0.00000  Uiso   1.00
H744   H     0.54490   0.99789   0.63286   0.00000  Uiso   1.00
H745   H     0.67986   0.76872   0.34344   0.00000  Uiso   1.00
H746   H     0.67058   0.82620   0.64960   0.00000  Uiso   1.00
H747   H     0.69620   0.76980   0.60451   0.00000  Uiso   1.00
H748   H     0.62223   0.90507   0.56180   0.00000  Uiso   1.00
H749   H     0.82013   0.89795   0.65655   0.00000  Uiso   1.00
H750   H     0.80378   0.89691   0.39549   0.00000  Uiso   1.00
H751   H     0.82942   0.84050   0.35044   0.00000  Uiso   1.00
H752   H     0.52412   0.71091   0.40377   0.00000  Uiso   1.00
H753   H     0.97588   0.95567   0.59643   0.00000  Uiso   1.00
H754   H     0.85525   0.92944   0.55633   0.00000  Uiso   1.00
H755   H     0.89979   0.93627   0.61607   0.00000  Uiso   1.00
H756   H     0.90642   0.96543   0.55136   0.00000  Uiso   1.00
H757   H     0.64476   0.73723   0.44354   0.00000  Uiso   1.00
H758   H     0.59364   0.70123   0.44865   0.00000  Uiso   1.00
N759   N     0.73744   0.81881   0.34617   0.00000  Uiso   1.00
N760   N     0.76255   0.84786   0.65383   0.00000  Uiso   1.00
O761   O     0.75325   0.76204   0.53992   0.00000  Uiso   1.00
O762   O     0.74674   0.90462   0.46008   0.00000  Uiso   1.00
O763   O     0.74480   0.75226   0.43612   0.00000  Uiso   1.00
O764   O     0.75520   0.91441   0.56388   0.00000  Uiso   1.00
O765   O     0.68935   0.83821   0.55191   0.00000  Uiso   1.00
O766   O     0.81064   0.82845   0.44809   0.00000  Uiso   1.00
O767   O     0.68090   0.82843   0.44810   0.00000  Uiso   1.00
O768   O     0.81910   0.83824   0.55190   0.00000  Uiso   1.00
Br769  Br    0.20057   0.30806   0.74073   0.00000  Uiso   1.00
Br770  Br    0.29943   0.02527   0.92594   0.00000  Uiso   1.00
C771   C     0.24824   0.06677   0.81803   0.00000  Uiso   1.00
C772   C     0.08821   0.11856   0.80053   0.00000  Uiso   1.00
C773   C     0.38361   0.17081   0.83202   0.00000  Uiso   1.00
C774   C     0.11639   0.16251   0.83466   0.00000  Uiso   1.00
C775   C     0.40108   0.12732   0.79738   0.00000  Uiso   1.00
C776   C     0.09892   0.20598   0.86936   0.00000  Uiso   1.00
C777   C     0.44737   0.12480   0.79722   0.00000  Uiso   1.00
C778   C     0.05263   0.20847   0.86958   0.00000  Uiso   1.00
C779   C     0.47654   0.16767   0.83287   0.00000  Uiso   1.00
C780   C     0.02346   0.16561   0.83391   0.00000  Uiso   1.00
C781   C     0.45883   0.21266   0.86743   0.00000  Uiso   1.00
C782   C     0.25176   0.26656   0.84864   0.00000  Uiso   1.00
C783   C     0.04117   0.12062   0.79933   0.00000  Uiso   1.00
C784   C     0.46506   0.08011   0.76282   0.00000  Uiso   1.00
C785   C     0.03494   0.25313   0.90405   0.00000  Uiso   1.00
C786   C     0.39209   0.26391   0.89936   0.00000  Uiso   1.00
C787   C     0.10790   0.06942   0.76727   0.00000  Uiso   1.00
C788   C     0.43529   0.03333   0.72441   0.00000  Uiso   1.00
C789   C     0.06471   0.29986   0.94258   0.00000  Uiso   1.00
C790   C     0.19402   0.12870   0.98326   0.00000  Uiso   1.00
C791   C     0.30597   0.20465   0.68342   0.00000  Uiso   1.00
C792   C     0.01150   0.07870   0.76422   0.00000  Uiso   1.00
C793   C     0.48850   0.25456   0.90262   0.00000  Uiso   1.00
C794   C     0.24152   0.01108   0.81110   0.00000  Uiso   1.00
C795   C     0.25848   0.32225   0.85557   0.00000  Uiso   1.00
C796   C     0.16466   0.16514   0.83369   0.00000  Uiso   1.00
C797   C     0.33534   0.16819   0.83297   0.00000  Uiso   1.00
C798   C     0.41179   0.21475   0.86616   0.00000  Uiso   1.00
Cu799  Cu    0.25500   0.17246   0.89479   0.00000  Uiso   1.00
Cu800  Cu    0.24499   0.16087   0.77187   0.00000  Uiso   1.00
H801   H     0.37778   0.09490   0.77161   0.00000  Uiso   1.00
H802   H     0.10014   0.06371   0.71726   0.00000  Uiso   1.00
H803   H     0.41366   0.01593   0.75377   0.00000  Uiso   1.00
H804   H     0.41397   0.04580   0.68881   0.00000  Uiso   1.00
H805   H     0.45510   0.00192   0.70091   0.00000  Uiso   1.00
H806   H     0.08605   0.28729   0.97810   0.00000  Uiso   1.00
H807   H     0.08632   0.31738   0.91328   0.00000  Uiso   1.00
H808   H     0.04490   0.33122   0.96620   0.00000  Uiso   1.00
H809   H     0.17986   0.10205   0.67677   0.00000  Uiso   1.00
H810   H     0.17058   0.15953   0.98293   0.00000  Uiso   1.00
H811   H     0.19620   0.10313   0.93784   0.00000  Uiso   1.00
H812   H     0.12223   0.23840   0.89513   0.00000  Uiso   1.00
H813   H     0.32013   0.23128   0.98988   0.00000  Uiso   1.00
H814   H     0.30378   0.23024   0.72882   0.00000  Uiso   1.00
H815   H     0.32942   0.17383   0.68378   0.00000  Uiso   1.00
H816   H     0.02412   0.04424   0.73711   0.00000  Uiso   1.00
H817   H     0.47588   0.28900   0.92976   0.00000  Uiso   1.00
H818   H     0.35525   0.26278   0.88966   0.00000  Uiso   1.00
H819   H     0.39979   0.26960   0.94940   0.00000  Uiso   1.00
H820   H     0.40642   0.29877   0.88469   0.00000  Uiso   1.00
H821   H     0.14476   0.07057   0.77687   0.00000  Uiso   1.00
H822   H     0.09364   0.03456   0.78199   0.00000  Uiso   1.00
N823   N     0.23744   0.15214   0.67951   0.00000  Uiso   1.00
N824   N     0.26255   0.18119   0.98716   0.00000  Uiso   1.00
O825   O     0.25325   0.09538   0.87326   0.00000  Uiso   1.00
O826   O     0.24674   0.23796   0.79341   0.00000  Uiso   1.00
O827   O     0.24480   0.08559   0.76945   0.00000  Uiso   1.00
O828   O     0.25520   0.24774   0.89721   0.00000  Uiso   1.00
O829   O     0.18935   0.17155   0.88524   0.00000  Uiso   1.00
O830   O     0.31064   0.16179   0.78143   0.00000  Uiso   1.00
O831   O     0.18090   0.16176   0.78143   0.00000  Uiso   1.00
O832   O     0.31910   0.17157   0.88523   0.00000  Uiso   1.00
Br833  Br    0.70057   0.30806   0.74073   0.00000  Uiso   1.00
Br834  Br    0.79943   0.02527   0.92594   0.00000  Uiso   1.00
C835   C     0.74824   0.06677   0.81803   0.00000  Uiso   1.00
C836   C     0.58821   0.11856   0.80053   0.00000  Uiso   1.00
C837   C     0.88361   0.17081   0.83202   0.00000  Uiso   1.00
C838   C     0.61639   0.16251   0.83466   0.00000  Uiso   1.00
C839   C     0.90108   0.12732   0.79738   0.00000  Uiso   1.00
C840   C     0.59892   0.20598   0.86936   0.00000  Uiso   1.00
C841   C     0.94737   0.12480   0.79722   0.00000  Uiso   1.00
C842   C     0.55263   0.20847   0.86958   0.00000  Uiso   1.00
C843   C     0.97654   0.16767   0.83287   0.00000  Uiso   1.00
C844   C     0.52346   0.16561   0.83391   0.00000  Uiso   1.00
C845   C     0.95883   0.21266   0.86743   0.00000  Uiso   1.00
C846   C     0.75176   0.26656   0.84864   0.00000  Uiso   1.00
C847   C     0.54117   0.12062   0.79933   0.00000  Uiso   1.00
C848   C     0.96506   0.08011   0.76282   0.00000  Uiso   1.00
C849   C     0.53494   0.25313   0.90405   0.00000  Uiso   1.00
C850   C     0.89209   0.26391   0.89936   0.00000  Uiso   1.00
C851   C     0.60790   0.06942   0.76727   0.00000  Uiso   1.00
C852   C     0.93529   0.03333   0.72441   0.00000  Uiso   1.00
C853   C     0.56471   0.29986   0.94258   0.00000  Uiso   1.00
C854   C     0.69402   0.12870   0.98326   0.00000  Uiso   1.00
C855   C     0.80597   0.20465   0.68342   0.00000  Uiso   1.00
C856   C     0.51150   0.07870   0.76422   0.00000  Uiso   1.00
C857   C     0.98850   0.25456   0.90262   0.00000  Uiso   1.00
C858   C     0.74152   0.01108   0.81110   0.00000  Uiso   1.00
C859   C     0.75848   0.32225   0.85557   0.00000  Uiso   1.00
C860   C     0.66466   0.16514   0.83369   0.00000  Uiso   1.00
C861   C     0.83534   0.16819   0.83297   0.00000  Uiso   1.00
C862   C     0.91179   0.21475   0.86616   0.00000  Uiso   1.00
Cu863  Cu    0.75500   0.17246   0.89479   0.00000  Uiso   1.00
Cu864  Cu    0.74499   0.16087   0.77187   0.00000  Uiso   1.00
H865   H     0.87778   0.09490   0.77161   0.00000  Uiso   1.00
H866   H     0.60014   0.06371   0.71726   0.00000  Uiso   1.00
H867   H     0.91366   0.01593   0.75377   0.00000  Uiso   1.00
H868   H     0.91397   0.04580   0.68881   0.00000  Uiso   1.00
H869   H     0.95510   0.00192   0.70091   0.00000  Uiso   1.00
H870   H     0.58605   0.28729   0.97810   0.00000  Uiso   1.00
H871   H     0.58632   0.31738   0.91328   0.00000  Uiso   1.00
H872   H     0.54490   0.33122   0.96620   0.00000  Uiso   1.00
H873   H     0.67986   0.10205   0.67677   0.00000  Uiso   1.00
H874   H     0.67058   0.15953   0.98293   0.00000  Uiso   1.00
H875   H     0.69620   0.10313   0.93784   0.00000  Uiso   1.00
H876   H     0.62223   0.23840   0.89513   0.00000  Uiso   1.00
H877   H     0.82013   0.23128   0.98988   0.00000  Uiso   1.00
H878   H     0.80378   0.23024   0.72882   0.00000  Uiso   1.00
H879   H     0.82942   0.17383   0.68378   0.00000  Uiso   1.00
H880   H     0.52412   0.04424   0.73711   0.00000  Uiso   1.00
H881   H     0.97588   0.28900   0.92976   0.00000  Uiso   1.00
H882   H     0.85525   0.26278   0.88966   0.00000  Uiso   1.00
H883   H     0.89979   0.26960   0.94940   0.00000  Uiso   1.00
H884   H     0.90642   0.29877   0.88469   0.00000  Uiso   1.00
H885   H     0.64476   0.07057   0.77687   0.00000  Uiso   1.00
H886   H     0.59364   0.03456   0.78199   0.00000  Uiso   1.00
N887   N     0.73744   0.15214   0.67951   0.00000  Uiso   1.00
N888   N     0.76255   0.18119   0.98716   0.00000  Uiso   1.00
O889   O     0.75325   0.09538   0.87326   0.00000  Uiso   1.00
O890   O     0.74674   0.23796   0.79341   0.00000  Uiso   1.00
O891   O     0.74480   0.08559   0.76945   0.00000  Uiso   1.00
O892   O     0.75520   0.24774   0.89721   0.00000  Uiso   1.00
O893   O     0.68935   0.17155   0.88524   0.00000  Uiso   1.00
O894   O     0.81064   0.16179   0.78143   0.00000  Uiso   1.00
O895   O     0.68090   0.16176   0.78143   0.00000  Uiso   1.00
O896   O     0.81910   0.17157   0.88523   0.00000  Uiso   1.00
Br897  Br    0.20057   0.64140   0.74073   0.00000  Uiso   1.00
Br898  Br    0.29943   0.35860   0.92594   0.00000  Uiso   1.00
C899   C     0.24824   0.40011   0.81803   0.00000  Uiso   1.00
C900   C     0.08821   0.45190   0.80053   0.00000  Uiso   1.00
C901   C     0.38361   0.50415   0.83202   0.00000  Uiso   1.00
C902   C     0.11639   0.49584   0.83466   0.00000  Uiso   1.00
C903   C     0.40108   0.46065   0.79738   0.00000  Uiso   1.00
C904   C     0.09892   0.53931   0.86936   0.00000  Uiso   1.00
C905   C     0.44737   0.45814   0.79722   0.00000  Uiso   1.00
C906   C     0.05263   0.54181   0.86958   0.00000  Uiso   1.00
C907   C     0.47654   0.50101   0.83287   0.00000  Uiso   1.00
C908   C     0.02346   0.49894   0.83391   0.00000  Uiso   1.00
C909   C     0.45883   0.54600   0.86743   0.00000  Uiso   1.00
C910   C     0.25176   0.59989   0.84864   0.00000  Uiso   1.00
C911   C     0.04117   0.45396   0.79933   0.00000  Uiso   1.00
C912   C     0.46506   0.41345   0.76282   0.00000  Uiso   1.00
C913   C     0.03494   0.58647   0.90405   0.00000  Uiso   1.00
C914   C     0.39209   0.59724   0.89936   0.00000  Uiso   1.00
C915   C     0.10790   0.40275   0.76727   0.00000  Uiso   1.00
C916   C     0.43529   0.36667   0.72441   0.00000  Uiso   1.00
C917   C     0.06471   0.63319   0.94258   0.00000  Uiso   1.00
C918   C     0.19402   0.46203   0.98326   0.00000  Uiso   1.00
C919   C     0.30597   0.53799   0.68342   0.00000  Uiso   1.00
C920   C     0.01150   0.41203   0.76422   0.00000  Uiso   1.00
C921   C     0.48850   0.58789   0.90262   0.00000  Uiso   1.00
C922   C     0.24152   0.34441   0.81110   0.00000  Uiso   1.00
C923   C     0.25848   0.65559   0.85557   0.00000  Uiso   1.00
C924   C     0.16466   0.49848   0.83369   0.00000  Uiso   1.00
C925   C     0.33534   0.50152   0.83297   0.00000  Uiso   1.00
C926   C     0.41179   0.54808   0.86616   0.00000  Uiso   1.00
Cu927  Cu    0.25500   0.50579   0.89479   0.00000  Uiso   1.00
Cu928  Cu    0.24499   0.49421   0.77187   0.00000  Uiso   1.00
H929   H     0.37778   0.42823   0.77161   0.00000  Uiso   1.00
H930   H     0.10014   0.39704   0.71726   0.00000  Uiso   1.00
H931   H     0.41366   0.34926   0.75377   0.00000  Uiso   1.00
H932   H     0.41397   0.37914   0.68881   0.00000  Uiso   1.00
H933   H     0.45510   0.33525   0.70091   0.00000  Uiso   1.00
H934   H     0.08605   0.62062   0.97810   0.00000  Uiso   1.00
H935   H     0.08632   0.65071   0.91328   0.00000  Uiso   1.00
H936   H     0.04490   0.66456   0.96620   0.00000  Uiso   1.00
H937   H     0.17986   0.43538   0.67677   0.00000  Uiso   1.00
H938   H     0.17058   0.49286   0.98293   0.00000  Uiso   1.00
H939   H     0.19620   0.43647   0.93784   0.00000  Uiso   1.00
H940   H     0.12223   0.57173   0.89513   0.00000  Uiso   1.00
H941   H     0.32013   0.56462   0.98988   0.00000  Uiso   1.00
H942   H     0.30378   0.56357   0.72882   0.00000  Uiso   1.00
H943   H     0.32942   0.50717   0.68378   0.00000  Uiso   1.00
H944   H     0.02412   0.37757   0.73711   0.00000  Uiso   1.00
H945   H     0.47588   0.62233   0.92976   0.00000  Uiso   1.00
H946   H     0.35525   0.59611   0.88966   0.00000  Uiso   1.00
H947   H     0.39979   0.60293   0.94940   0.00000  Uiso   1.00
H948   H     0.40642   0.63210   0.88469   0.00000  Uiso   1.00
H949   H     0.14476   0.40390   0.77687   0.00000  Uiso   1.00
H950   H     0.09364   0.36789   0.78199   0.00000  Uiso   1.00
N951   N     0.23744   0.48547   0.67951   0.00000  Uiso   1.00
N952   N     0.26255   0.51453   0.98716   0.00000  Uiso   1.00
O953   O     0.25325   0.42871   0.87326   0.00000  Uiso   1.00
O954   O     0.24674   0.57129   0.79341   0.00000  Uiso   1.00
O955   O     0.24480   0.41892   0.76945   0.00000  Uiso   1.00
O956   O     0.25520   0.58108   0.89721   0.00000  Uiso   1.00
O957   O     0.18935   0.50488   0.88524   0.00000  Uiso   1.00
O958   O     0.31064   0.49512   0.78143   0.00000  Uiso   1.00
O959   O     0.18090   0.49510   0.78143   0.00000  Uiso   1.00
O960   O     0.31910   0.50490   0.88523   0.00000  Uiso   1.00
Br961  Br    0.70057   0.64140   0.74073   0.00000  Uiso   1.00
Br962  Br    0.79943   0.35860   0.92594   0.00000  Uiso   1.00
C963   C     0.74824   0.40011   0.81803   0.00000  Uiso   1.00
C964   C     0.58821   0.45190   0.80053   0.00000  Uiso   1.00
C965   C     0.88361   0.50415   0.83202   0.00000  Uiso   1.00
C966   C     0.61639   0.49584   0.83466   0.00000  Uiso   1.00
C967   C     0.90108   0.46065   0.79738   0.00000  Uiso   1.00
C968   C     0.59892   0.53931   0.86936   0.00000  Uiso   1.00
C969   C     0.94737   0.45814   0.79722   0.00000  Uiso   1.00
C970   C     0.55263   0.54181   0.86958   0.00000  Uiso   1.00
C971   C     0.97654   0.50101   0.83287   0.00000  Uiso   1.00
C972   C     0.52346   0.49894   0.83391   0.00000  Uiso   1.00
C973   C     0.95883   0.54600   0.86743   0.00000  Uiso   1.00
C974   C     0.75176   0.59989   0.84864   0.00000  Uiso   1.00
C975   C     0.54117   0.45396   0.79933   0.00000  Uiso   1.00
C976   C     0.96506   0.41345   0.76282   0.00000  Uiso   1.00
C977   C     0.53494   0.58647   0.90405   0.00000  Uiso   1.00
C978   C     0.89209   0.59724   0.89936   0.00000  Uiso   1.00
C979   C     0.60790   0.40275   0.76727   0.00000  Uiso   1.00
C980   C     0.93529   0.36667   0.72441   0.00000  Uiso   1.00
C981   C     0.56471   0.63319   0.94258   0.00000  Uiso   1.00
C982   C     0.69402   0.46203   0.98326   0.00000  Uiso   1.00
C983   C     0.80597   0.53799   0.68342   0.00000  Uiso   1.00
C984   C     0.51150   0.41203   0.76422   0.00000  Uiso   1.00
C985   C     0.98850   0.58789   0.90262   0.00000  Uiso   1.00
C986   C     0.74152   0.34441   0.81110   0.00000  Uiso   1.00
C987   C     0.75848   0.65559   0.85557   0.00000  Uiso   1.00
C988   C     0.66466   0.49848   0.83369   0.00000  Uiso   1.00
C989   C     0.83534   0.50152   0.83297   0.00000  Uiso   1.00
C990   C     0.91179   0.54808   0.86616   0.00000  Uiso   1.00
Cu991  Cu    0.75500   0.50579   0.89479   0.00000  Uiso   1.00
Cu992  Cu    0.74499   0.49421   0.77187   0.00000  Uiso   1.00
H993   H     0.87778   0.42823   0.77161   0.00000  Uiso   1.00
H994   H     0.60014   0.39704   0.71726   0.00000  Uiso   1.00
H995   H     0.91366   0.34926   0.75377   0.00000  Uiso   1.00
H996   H     0.91397   0.37914   0.68881   0.00000  Uiso   1.00
H997   H     0.95510   0.33525   0.70091   0.00000  Uiso   1.00
H998   H     0.58605   0.62062   0.97810   0.00000  Uiso   1.00
H999   H     0.58632   0.65071   0.91328   0.00000  Uiso   1.00
H1000  H     0.54490   0.66456   0.96620   0.00000  Uiso   1.00
H1001  H     0.67986   0.43538   0.67677   0.00000  Uiso   1.00
H1002  H     0.67058   0.49286   0.98293   0.00000  Uiso   1.00
H1003  H     0.69620   0.43647   0.93784   0.00000  Uiso   1.00
H1004  H     0.62223   0.57173   0.89513   0.00000  Uiso   1.00
H1005  H     0.82013   0.56462   0.98988   0.00000  Uiso   1.00
H1006  H     0.80378   0.56357   0.72882   0.00000  Uiso   1.00
H1007  H     0.82942   0.50717   0.68378   0.00000  Uiso   1.00
H1008  H     0.52412   0.37757   0.73711   0.00000  Uiso   1.00
H1009  H     0.97588   0.62233   0.92976   0.00000  Uiso   1.00
H1010  H     0.85525   0.59611   0.88966   0.00000  Uiso   1.00
H1011  H     0.89979   0.60293   0.94940   0.00000  Uiso   1.00
H1012  H     0.90642   0.63210   0.88469   0.00000  Uiso   1.00
H1013  H     0.64476   0.40390   0.77687   0.00000  Uiso   1.00
H1014  H     0.59364   0.36789   0.78199   0.00000  Uiso   1.00
N1015  N     0.73744   0.48547   0.67951   0.00000  Uiso   1.00
N1016  N     0.76255   0.51453   0.98716   0.00000  Uiso   1.00
O1017  O     0.75325   0.42871   0.87326   0.00000  Uiso   1.00
O1018  O     0.74674   0.57129   0.79341   0.00000  Uiso   1.00
O1019  O     0.74480   0.41892   0.76945   0.00000  Uiso   1.00
O1020  O     0.75520   0.58108   0.89721   0.00000  Uiso   1.00
O1021  O     0.68935   0.50488   0.88524   0.00000  Uiso   1.00
O1022  O     0.81064   0.49512   0.78143   0.00000  Uiso   1.00
O1023  O     0.68090   0.49510   0.78143   0.00000  Uiso   1.00
O1024  O     0.81910   0.50490   0.88523   0.00000  Uiso   1.00
Br1025 Br    0.20057   0.97473   0.74073   0.00000  Uiso   1.00
Br1026 Br    0.29943   0.69194   0.92594   0.00000  Uiso   1.00
C1027  C     0.24824   0.73344   0.81803   0.00000  Uiso   1.00
C1028  C     0.08821   0.78523   0.80053   0.00000  Uiso   1.00
C1029  C     0.38361   0.83748   0.83202   0.00000  Uiso   1.00
C1030  C     0.11639   0.82917   0.83466   0.00000  Uiso   1.00
C1031  C     0.40108   0.79398   0.79738   0.00000  Uiso   1.00
C1032  C     0.09892   0.87264   0.86936   0.00000  Uiso   1.00
C1033  C     0.44737   0.79147   0.79722   0.00000  Uiso   1.00
C1034  C     0.05263   0.87514   0.86958   0.00000  Uiso   1.00
C1035  C     0.47654   0.83434   0.83287   0.00000  Uiso   1.00
C1036  C     0.02346   0.83227   0.83391   0.00000  Uiso   1.00
C1037  C     0.45883   0.87933   0.86743   0.00000  Uiso   1.00
C1038  C     0.25176   0.93323   0.84864   0.00000  Uiso   1.00
C1039  C     0.04117   0.78729   0.79933   0.00000  Uiso   1.00
C1040  C     0.46506   0.74678   0.76282   0.00000  Uiso   1.00
C1041  C     0.03494   0.91980   0.90405   0.00000  Uiso   1.00
C1042  C     0.39209   0.93058   0.89936   0.00000  Uiso   1.00
C1043  C     0.10790   0.73608   0.76727   0.00000  Uiso   1.00
C1044  C     0.43529   0.70000   0.72441   0.00000  Uiso   1.00
C1045  C     0.06471   0.96653   0.94258   0.00000  Uiso   1.00
C1046  C     0.19402   0.79537   0.98326   0.00000  Uiso   1.00
C1047  C     0.30597   0.87132   0.68342   0.00000  Uiso   1.00
C1048  C     0.01150   0.74536   0.76422   0.00000  Uiso   1.00
C1049  C     0.48850   0.92123   0.90262   0.00000  Uiso   1.00
C1050  C     0.24152   0.67774   0.81110   0.00000  Uiso   1.00
C1051  C     0.25848   0.98892   0.85557   0.00000  Uiso   1.00
C1052  C     0.16466   0.83181   0.83369   0.00000  Uiso   1.00
C1053  C     0.33534   0.83485   0.83297   0.00000  Uiso   1.00
C1054  C     0.41179   0.88141   0.86616   0.00000  Uiso   1.00
Cu1055 Cu    0.25500   0.83913   0.89479   0.00000  Uiso   1.00
Cu1056 Cu    0.24499   0.82754   0.77187   0.00000  Uiso   1.00
H1057  H     0.37778   0.76156   0.77161   0.00000  Uiso   1.00
H1058  H     0.10014   0.73038   0.71726   0.00000  Uiso   1.00
H1059  H     0.41366   0.68259   0.75377   0.00000  Uiso   1.00
H1060  H     0.41397   0.71247   0.68881   0.00000  Uiso   1.00
H1061  H     0.45510   0.66859   0.70091   0.00000  Uiso   1.00
H1062  H     0.08605   0.95395   0.97810   0.00000  Uiso   1.00
H1063  H     0.08632   0.98404   0.91328   0.00000  Uiso   1.00
H1064  H     0.04490   0.99789   0.96620   0.00000  Uiso   1.00
H1065  H     0.17986   0.76872   0.67677   0.00000  Uiso   1.00
H1066  H     0.17058   0.82620   0.98293   0.00000  Uiso   1.00
H1067  H     0.19620   0.76980   0.93784   0.00000  Uiso   1.00
H1068  H     0.12223   0.90507   0.89513   0.00000  Uiso   1.00
H1069  H     0.32013   0.89795   0.98988   0.00000  Uiso   1.00
H1070  H     0.30378   0.89691   0.72882   0.00000  Uiso   1.00
H1071  H     0.32942   0.84050   0.68378   0.00000  Uiso   1.00
H1072  H     0.02412   0.71091   0.73711   0.00000  Uiso   1.00
H1073  H     0.47588   0.95567   0.92976   0.00000  Uiso   1.00
H1074  H     0.35525   0.92944   0.88966   0.00000  Uiso   1.00
H1075  H     0.39979   0.93627   0.94940   0.00000  Uiso   1.00
H1076  H     0.40642   0.96543   0.88469   0.00000  Uiso   1.00
H1077  H     0.14476   0.73723   0.77687   0.00000  Uiso   1.00
H1078  H     0.09364   0.70123   0.78199   0.00000  Uiso   1.00
N1079  N     0.23744   0.81881   0.67951   0.00000  Uiso   1.00
N1080  N     0.26255   0.84786   0.98716   0.00000  Uiso   1.00
O1081  O     0.25325   0.76204   0.87326   0.00000  Uiso   1.00
O1082  O     0.24674   0.90462   0.79341   0.00000  Uiso   1.00
O1083  O     0.24480   0.75226   0.76945   0.00000  Uiso   1.00
O1084  O     0.25520   0.91441   0.89721   0.00000  Uiso   1.00
O1085  O     0.18935   0.83821   0.88524   0.00000  Uiso   1.00
O1086  O     0.31064   0.82845   0.78143   0.00000  Uiso   1.00
O1087  O     0.18090   0.82843   0.78143   0.00000  Uiso   1.00
O1088  O     0.31910   0.83824   0.88523   0.00000  Uiso   1.00
Br1089 Br    0.70057   0.97473   0.74073   0.00000  Uiso   1.00
Br1090 Br    0.79943   0.69194   0.92594   0.00000  Uiso   1.00
C1091  C     0.74824   0.73344   0.81803   0.00000  Uiso   1.00
C1092  C     0.58821   0.78523   0.80053   0.00000  Uiso   1.00
C1093  C     0.88361   0.83748   0.83202   0.00000  Uiso   1.00
C1094  C     0.61639   0.82917   0.83466   0.00000  Uiso   1.00
C1095  C     0.90108   0.79398   0.79738   0.00000  Uiso   1.00
C1096  C     0.59892   0.87264   0.86936   0.00000  Uiso   1.00
C1097  C     0.94737   0.79147   0.79722   0.00000  Uiso   1.00
C1098  C     0.55263   0.87514   0.86958   0.00000  Uiso   1.00
C1099  C     0.97654   0.83434   0.83287   0.00000  Uiso   1.00
C1100  C     0.52346   0.83227   0.83391   0.00000  Uiso   1.00
C1101  C     0.95883   0.87933   0.86743   0.00000  Uiso   1.00
C1102  C     0.75176   0.93323   0.84864   0.00000  Uiso   1.00
C1103  C     0.54117   0.78729   0.79933   0.00000  Uiso   1.00
C1104  C     0.96506   0.74678   0.76282   0.00000  Uiso   1.00
C1105  C     0.53494   0.91980   0.90405   0.00000  Uiso   1.00
C1106  C     0.89209   0.93058   0.89936   0.00000  Uiso   1.00
C1107  C     0.60790   0.73608   0.76727   0.00000  Uiso   1.00
C1108  C     0.93529   0.70000   0.72441   0.00000  Uiso   1.00
C1109  C     0.56471   0.96653   0.94258   0.00000  Uiso   1.00
C1110  C     0.69402   0.79537   0.98326   0.00000  Uiso   1.00
C1111  C     0.80597   0.87132   0.68342   0.00000  Uiso   1.00
C1112  C     0.51150   0.74536   0.76422   0.00000  Uiso   1.00
C1113  C     0.98850   0.92123   0.90262   0.00000  Uiso   1.00
C1114  C     0.74152   0.67774   0.81110   0.00000  Uiso   1.00
C1115  C     0.75848   0.98892   0.85557   0.00000  Uiso   1.00
C1116  C     0.66466   0.83181   0.83369   0.00000  Uiso   1.00
C1117  C     0.83534   0.83485   0.83297   0.00000  Uiso   1.00
C1118  C     0.91179   0.88141   0.86616   0.00000  Uiso   1.00
Cu1119 Cu    0.75500   0.83913   0.89479   0.00000  Uiso   1.00
Cu1120 Cu    0.74499   0.82754   0.77187   0.00000  Uiso   1.00
H1121  H     0.87778   0.76156   0.77161   0.00000  Uiso   1.00
H1122  H     0.60014   0.73038   0.71726   0.00000  Uiso   1.00
H1123  H     0.91366   0.68259   0.75377   0.00000  Uiso   1.00
H1124  H     0.91397   0.71247   0.68881   0.00000  Uiso   1.00
H1125  H     0.95510   0.66859   0.70091   0.00000  Uiso   1.00
H1126  H     0.58605   0.95395   0.97810   0.00000  Uiso   1.00
H1127  H     0.58632   0.98404   0.91328   0.00000  Uiso   1.00
H1128  H     0.54490   0.99789   0.96620   0.00000  Uiso   1.00
H1129  H     0.67986   0.76872   0.67677   0.00000  Uiso   1.00
H1130  H     0.67058   0.82620   0.98293   0.00000  Uiso   1.00
H1131  H     0.69620   0.76980   0.93784   0.00000  Uiso   1.00
H1132  H     0.62223   0.90507   0.89513   0.00000  Uiso   1.00
H1133  H     0.82013   0.89795   0.98988   0.00000  Uiso   1.00
H1134  H     0.80378   0.89691   0.72882   0.00000  Uiso   1.00
H1135  H     0.82942   0.84050   0.68378   0.00000  Uiso   1.00
H1136  H     0.52412   0.71091   0.73711   0.00000  Uiso   1.00
H1137  H     0.97588   0.95567   0.92976   0.00000  Uiso   1.00
H1138  H     0.85525   0.92944   0.88966   0.00000  Uiso   1.00
H1139  H     0.89979   0.93627   0.94940   0.00000  Uiso   1.00
H1140  H     0.90642   0.96543   0.88469   0.00000  Uiso   1.00
H1141  H     0.64476   0.73723   0.77687   0.00000  Uiso   1.00
H1142  H     0.59364   0.70123   0.78199   0.00000  Uiso   1.00
N1143  N     0.73744   0.81881   0.67951   0.00000  Uiso   1.00
N1144  N     0.76255   0.84786   0.98716   0.00000  Uiso   1.00
O1145  O     0.75325   0.76204   0.87326   0.00000  Uiso   1.00
O1146  O     0.74674   0.90462   0.79341   0.00000  Uiso   1.00
O1147  O     0.74480   0.75226   0.76945   0.00000  Uiso   1.00
O1148  O     0.75520   0.91441   0.89721   0.00000  Uiso   1.00
O1149  O     0.68935   0.83821   0.88524   0.00000  Uiso   1.00
O1150  O     0.81064   0.82845   0.78143   0.00000  Uiso   1.00
O1151  O     0.68090   0.82843   0.78143   0.00000  Uiso   1.00
O1152  O     0.81910   0.83824   0.88523   0.00000  Uiso   1.00
loop_
_geom_bond_atom_site_label_1
_geom_bond_atom_site_label_2
_geom_bond_distance
_geom_bond_site_symmetry_2
_ccdc_geom_bond_type
Br1    C154    1.944   .     S
Br2    C283    1.943   1_545 S
C3     O57     1.292   .     A
C3     C26     1.430   .     S
C3     O59     1.303   .     A
C4     C15     1.414   .     A
C4     C6      1.409   .     A
C4     C19     1.520   .     S
C5     C7      1.390   .     A
C5     C29     1.446   .     S
C5     C30     1.409   .     A
C6     C8      1.390   .     A
C6     C28     1.446   .     S
C7     H33     1.083   .     S
C7     C9      1.394   .     A
C8     H44     1.083   .     S
C8     C10     1.394   .     A
C9     C11     1.418   .     A
C9     C16     1.413   .     A
C10    C12     1.418   .     A
C10    C17     1.413   .     A
C11    C13     1.421   .     A
C11    C76     1.410   .     S
C12    C15     1.421   .     A
C12    C75     1.410   1_455 S
C13    C30     1.414   .     A
C13    C25     1.406   .     A
C14    C27     1.430   .     S
C14    O58     1.292   .     A
C14    O60     1.303   .     A
C15    C24     1.406   .     A
C16    C20     1.512   .     S
C16    C88     1.394   .     S
C17    C21     1.512   .     S
C17    C89     1.394   1_455 S
C18    H52     1.111   .     S
C18    C30     1.520   .     S
C18    H51     1.110   .     S
C18    H50     1.106   .     S
C19    H53     1.106   .     S
C19    H54     1.110   .     S
C19    H34     1.110   .     S
C20    H37     1.111   .     S
C20    H35     1.110   .     S
C20    H36     1.111   .     S
C21    H39     1.110   .     S
C21    H40     1.111   .     S
C21    H38     1.111   .     S
C22    H43     1.100   .     S
C22    H42     1.110   .     S
C22    H425    1.108   .     S
C22    N439    1.442   .     S
C23    H46     1.100   .     S
C23    H47     1.110   .     S
C23    H813    1.108   1_554 S
C23    N824    1.442   1_554 S
C24    H48     1.081   .     S
C24    C80     1.394   1_455 S
C25    H49     1.081   .     S
C25    C81     1.394   .     S
C26    Br257   1.944   1_545 S
C26    C283    1.355   1_545 S
C27    C154    1.355   .     S
C27    Br130   1.943   .     S
C28    O61     1.301   .     A
C28    O63     1.300   .     A
C29    O64     1.300   .     A
C29    O62     1.301   .     A
Cu31   O60     1.961   .     S
Cu31   O61     1.961   .     S
Cu31   O57     1.963   .     S
Cu31   N56     2.041   .     S
Cu31   O64     1.952   .     S
Cu31   Cu32    2.716   .     S
Cu32   N55     2.041   .     S
Cu32   O58     1.963   .     S
Cu32   O62     1.961   .     S
Cu32   O59     1.961   .     S
Cu32   O63     1.952   .     S
H41    C790    1.108   1_554 S
H45    C407    1.108   .     S
N55    C790    1.442   1_554 S
N55    N824    1.293   1_554 S
N56    N439    1.293   .     S
N56    C407    1.442   .     S
Br65   C218    1.944   .     S
Br66   C347    1.943   1_545 S
C67    O121    1.292   .     A
C67    C90     1.430   .     S
C67    O123    1.303   .     A
C68    C79     1.414   .     A
C68    C70     1.409   .     A
C68    C83     1.520   .     S
C69    C71     1.390   .     A
C69    C93     1.446   .     S
C69    C94     1.409   .     A
C70    C72     1.390   .     A
C70    C92     1.446   .     S
C71    H97     1.083   .     S
C71    C73     1.394   .     A
C72    H108    1.083   .     S
C72    C74     1.394   .     A
C73    C75     1.418   .     A
C73    C80     1.413   .     A
C74    C76     1.418   .     A
C74    C81     1.413   .     A
C75    C77     1.421   .     A
C75    C12     1.410   1_655 S
C76    C79     1.421   .     A
C77    C94     1.414   .     A
C77    C89     1.406   .     A
C78    C91     1.430   .     S
C78    O122    1.292   .     A
C78    O124    1.303   .     A
C79    C88     1.406   .     A
C80    C84     1.512   .     S
C80    C24     1.394   1_655 S
C81    C85     1.512   .     S
C82    H116    1.111   .     S
C82    C94     1.520   .     S
C82    H115    1.110   .     S
C82    H114    1.106   .     S
C83    H117    1.106   .     S
C83    H118    1.110   .     S
C83    H98     1.110   .     S
C84    H101    1.111   .     S
C84    H99     1.110   .     S
C84    H100    1.111   .     S
C85    H103    1.110   .     S
C85    H104    1.111   .     S
C85    H102    1.111   .     S
C86    H107    1.100   .     S
C86    H106    1.110   .     S
C86    H489    1.108   .     S
C86    N503    1.442   .     S
C87    H110    1.100   .     S
C87    H111    1.110   .     S
C87    H877    1.108   1_554 S
C87    N888    1.442   1_554 S
C88    H112    1.081   .     S
C89    H113    1.081   .     S
C89    C17     1.394   1_655 S
C90    Br321   1.944   1_545 S
C90    C347    1.355   1_545 S
C91    C218    1.355   .     S
C91    Br194   1.943   .     S
C92    O125    1.301   .     A
C92    O127    1.300   .     A
C93    O128    1.300   .     A
C93    O126    1.301   .     A
Cu95   O124    1.961   .     S
Cu95   O125    1.961   .     S
Cu95   O121    1.963   .     S
Cu95   N120    2.041   .     S
Cu95   O128    1.952   .     S
Cu95   Cu96    2.716   .     S
Cu96   N119    2.041   .     S
Cu96   O122    1.963   .     S
Cu96   O126    1.961   .     S
Cu96   O123    1.961   .     S
Cu96   O127    1.952   .     S
H105   C854    1.108   1_554 S
H109   C471    1.108   .     S
N119   C854    1.442   1_554 S
N119   N888    1.293   1_554 S
N120   N503    1.293   .     S
N120   C471    1.442   .     S
Br129  C282    1.944   .     S
C131   O185    1.292   .     A
C131   C154    1.430   .     S
C131   O187    1.303   .     A
C132   C143    1.414   .     A
C132   C134    1.409   .     A
C132   C147    1.520   .     S
C133   C135    1.390   .     A
C133   C157    1.446   .     S
C133   C158    1.409   .     A
C134   C136    1.390   .     A
C134   C156    1.446   .     S
C135   H161    1.083   .     S
C135   C137    1.394   .     A
C136   H172    1.083   .     S
C136   C138    1.394   .     A
C137   C139    1.418   .     A
C137   C144    1.413   .     A
C138   C140    1.418   .     A
C138   C145    1.413   .     A
C139   C141    1.421   .     A
C139   C204    1.410   .     S
C140   C143    1.421   .     A
C140   C203    1.410   1_455 S
C141   C158    1.414   .     A
C141   C153    1.406   .     A
C142   C155    1.430   .     S
C142   O186    1.292   .     A
C142   O188    1.303   .     A
C143   C152    1.406   .     A
C144   C148    1.512   .     S
C144   C216    1.394   .     S
C145   C149    1.512   .     S
C145   C217    1.394   1_455 S
C146   H180    1.111   .     S
C146   C158    1.520   .     S
C146   H179    1.110   .     S
C146   H178    1.106   .     S
C147   H181    1.106   .     S
C147   H182    1.110   .     S
C147   H162    1.110   .     S
C148   H165    1.111   .     S
C148   H163    1.110   .     S
C148   H164    1.111   .     S
C149   H167    1.110   .     S
C149   H168    1.111   .     S
C149   H166    1.111   .     S
C150   H171    1.100   .     S
C150   H170    1.110   .     S
C150   H553    1.108   .     S
C150   N567    1.442   .     S
C151   H174    1.100   .     S
C151   H175    1.110   .     S
C151   H941    1.108   1_554 S
C151   N952    1.442   1_554 S
C152   H176    1.081   .     S
C152   C208    1.394   1_455 S
C153   H177    1.081   .     S
C153   C209    1.394   .     S
C155   C282    1.355   .     S
C155   Br258   1.943   .     S
C156   O189    1.301   .     A
C156   O191    1.300   .     A
C157   O192    1.300   .     A
C157   O190    1.301   .     A
Cu159  O188    1.961   .     S
Cu159  O189    1.961   .     S
Cu159  O185    1.963   .     S
Cu159  N184    2.041   .     S
Cu159  O192    1.952   .     S
Cu159  Cu160   2.716   .     S
Cu160  N183    2.041   .     S
Cu160  O186    1.963   .     S
Cu160  O190    1.961   .     S
Cu160  O187    1.961   .     S
Cu160  O191    1.952   .     S
H169   C918    1.108   1_554 S
H173   C535    1.108   .     S
N183   C918    1.442   1_554 S
N183   N952    1.293   1_554 S
N184   N567    1.293   .     S
N184   C535    1.442   .     S
Br193  C346    1.944   .     S
C195   O249    1.292   .     A
C195   C218    1.430   .     S
C195   O251    1.303   .     A
C196   C207    1.414   .     A
C196   C198    1.409   .     A
C196   C211    1.520   .     S
C197   C199    1.390   .     A
C197   C221    1.446   .     S
C197   C222    1.409   .     A
C198   C200    1.390   .     A
C198   C220    1.446   .     S
C199   H225    1.083   .     S
C199   C201    1.394   .     A
C200   H236    1.083   .     S
C200   C202    1.394   .     A
C201   C203    1.418   .     A
C201   C208    1.413   .     A
C202   C204    1.418   .     A
C202   C209    1.413   .     A
C203   C205    1.421   .     A
C203   C140    1.410   1_655 S
C204   C207    1.421   .     A
C205   C222    1.414   .     A
C205   C217    1.406   .     A
C206   C219    1.430   .     S
C206   O250    1.292   .     A
C206   O252    1.303   .     A
C207   C216    1.406   .     A
C208   C212    1.512   .     S
C208   C152    1.394   1_655 S
C209   C213    1.512   .     S
C210   H244    1.111   .     S
C210   C222    1.520   .     S
C210   H243    1.110   .     S
C210   H242    1.106   .     S
C211   H245    1.106   .     S
C211   H246    1.110   .     S
C211   H226    1.110   .     S
C212   H229    1.111   .     S
C212   H227    1.110   .     S
C212   H228    1.111   .     S
C213   H231    1.110   .     S
C213   H232    1.111   .     S
C213   H230    1.111   .     S
C214   H235    1.100   .     S
C214   H234    1.110   .     S
C214   H617    1.108   .     S
C214   N631    1.442   .     S
C215   H238    1.100   .     S
C215   H239    1.110   .     S
C215   H1005   1.108   1_554 S
C215   N1016   1.442   1_554 S
C216   H240    1.081   .     S
C217   H241    1.081   .     S
C217   C145    1.394   1_655 S
C219   C346    1.355   .     S
C219   Br322   1.943   .     S
C220   O253    1.301   .     A
C220   O255    1.300   .     A
C221   O256    1.300   .     A
C221   O254    1.301   .     A
Cu223  O252    1.961   .     S
Cu223  O253    1.961   .     S
Cu223  O249    1.963   .     S
Cu223  N248    2.041   .     S
Cu223  O256    1.952   .     S
Cu223  Cu224   2.716   .     S
Cu224  N247    2.041   .     S
Cu224  O250    1.963   .     S
Cu224  O254    1.961   .     S
Cu224  O251    1.961   .     S
Cu224  O255    1.952   .     S
H233   C982    1.108   1_554 S
H237   C599    1.108   .     S
N247   C982    1.442   1_554 S
N247   N1016   1.293   1_554 S
N248   N631    1.293   .     S
N248   C599    1.442   .     S
Br257  C26     1.944   1_565 S
C259   O313    1.292   .     A
C259   C282    1.430   .     S
C259   O315    1.303   .     A
C260   C271    1.414   .     A
C260   C262    1.409   .     A
C260   C275    1.520   .     S
C261   C263    1.390   .     A
C261   C285    1.446   .     S
C261   C286    1.409   .     A
C262   C264    1.390   .     A
C262   C284    1.446   .     S
C263   H289    1.083   .     S
C263   C265    1.394   .     A
C264   H300    1.083   .     S
C264   C266    1.394   .     A
C265   C267    1.418   .     A
C265   C272    1.413   .     A
C266   C268    1.418   .     A
C266   C273    1.413   .     A
C267   C269    1.421   .     A
C267   C332    1.410   .     S
C268   C271    1.421   .     A
C268   C331    1.410   1_455 S
C269   C286    1.414   .     A
C269   C281    1.406   .     A
C270   C283    1.430   .     S
C270   O314    1.292   .     A
C270   O316    1.303   .     A
C271   C280    1.406   .     A
C272   C276    1.512   .     S
C272   C344    1.394   .     S
C273   C277    1.512   .     S
C273   C345    1.394   1_455 S
C274   H308    1.111   .     S
C274   C286    1.520   .     S
C274   H307    1.110   .     S
C274   H306    1.106   .     S
C275   H309    1.106   .     S
C275   H310    1.110   .     S
C275   H290    1.110   .     S
C276   H293    1.111   .     S
C276   H291    1.110   .     S
C276   H292    1.111   .     S
C277   H295    1.110   .     S
C277   H296    1.111   .     S
C277   H294    1.111   .     S
C278   H299    1.100   .     S
C278   H298    1.110   .     S
C278   H681    1.108   .     S
C278   N695    1.442   .     S
C279   H302    1.100   .     S
C279   H303    1.110   .     S
C279   H1069   1.108   1_554 S
C279   N1080   1.442   1_554 S
C280   H304    1.081   .     S
C280   C336    1.394   1_455 S
C281   H305    1.081   .     S
C281   C337    1.394   .     S
C283   C26     1.355   1_565 S
C283   Br2     1.943   1_565 S
C284   O317    1.301   .     A
C284   O319    1.300   .     A
C285   O320    1.300   .     A
C285   O318    1.301   .     A
Cu287  O316    1.961   .     S
Cu287  O317    1.961   .     S
Cu287  O313    1.963   .     S
Cu287  N312    2.041   .     S
Cu287  O320    1.952   .     S
Cu287  Cu288   2.716   .     S
Cu288  N311    2.041   .     S
Cu288  O314    1.963   .     S
Cu288  O318    1.961   .     S
Cu288  O315    1.961   .     S
Cu288  O319    1.952   .     S
H297   C1046   1.108   1_554 S
H301   C663    1.108   .     S
N311   C1046   1.442   1_554 S
N311   N1080   1.293   1_554 S
N312   N695    1.293   .     S
N312   C663    1.442   .     S
Br321  C90     1.944   1_565 S
C323   O377    1.292   .     A
C323   C346    1.430   .     S
C323   O379    1.303   .     A
C324   C335    1.414   .     A
C324   C326    1.409   .     A
C324   C339    1.520   .     S
C325   C327    1.390   .     A
C325   C349    1.446   .     S
C325   C350    1.409   .     A
C326   C328    1.390   .     A
C326   C348    1.446   .     S
C327   H353    1.083   .     S
C327   C329    1.394   .     A
C328   H364    1.083   .     S
C328   C330    1.394   .     A
C329   C331    1.418   .     A
C329   C336    1.413   .     A
C330   C332    1.418   .     A
C330   C337    1.413   .     A
C331   C333    1.421   .     A
C331   C268    1.410   1_655 S
C332   C335    1.421   .     A
C333   C350    1.414   .     A
C333   C345    1.406   .     A
C334   C347    1.430   .     S
C334   O378    1.292   .     A
C334   O380    1.303   .     A
C335   C344    1.406   .     A
C336   C340    1.512   .     S
C336   C280    1.394   1_655 S
C337   C341    1.512   .     S
C338   H372    1.111   .     S
C338   C350    1.520   .     S
C338   H371    1.110   .     S
C338   H370    1.106   .     S
C339   H373    1.106   .     S
C339   H374    1.110   .     S
C339   H354    1.110   .     S
C340   H357    1.111   .     S
C340   H355    1.110   .     S
C340   H356    1.111   .     S
C341   H359    1.110   .     S
C341   H360    1.111   .     S
C341   H358    1.111   .     S
C342   H363    1.100   .     S
C342   H362    1.110   .     S
C342   H745    1.108   .     S
C342   N759    1.442   .     S
C343   H366    1.100   .     S
C343   H367    1.110   .     S
C343   H1133   1.108   1_554 S
C343   N1144   1.442   1_554 S
C344   H368    1.081   .     S
C345   H369    1.081   .     S
C345   C273    1.394   1_655 S
C347   C90     1.355   1_565 S
C347   Br66    1.943   1_565 S
C348   O381    1.301   .     A
C348   O383    1.300   .     A
C349   O384    1.300   .     A
C349   O382    1.301   .     A
Cu351  O380    1.961   .     S
Cu351  O381    1.961   .     S
Cu351  O377    1.963   .     S
Cu351  N376    2.041   .     S
Cu351  O384    1.952   .     S
Cu351  Cu352   2.716   .     S
Cu352  N375    2.041   .     S
Cu352  O378    1.963   .     S
Cu352  O382    1.961   .     S
Cu352  O379    1.961   .     S
Cu352  O383    1.952   .     S
H361   C1110   1.108   1_554 S
H365   C727    1.108   .     S
N375   C1110   1.442   1_554 S
N375   N1144   1.293   1_554 S
N376   N759    1.293   .     S
N376   C727    1.442   .     S
Br385  C538    1.944   .     S
Br386  C667    1.943   1_545 S
C387   O441    1.292   .     A
C387   C410    1.430   .     S
C387   O443    1.303   .     A
C388   C399    1.414   .     A
C388   C390    1.409   .     A
C388   C403    1.520   .     S
C389   C391    1.390   .     A
C389   C413    1.446   .     S
C389   C414    1.409   .     A
C390   C392    1.390   .     A
C390   C412    1.446   .     S
C391   H417    1.083   .     S
C391   C393    1.394   .     A
C392   H428    1.083   .     S
C392   C394    1.394   .     A
C393   C395    1.418   .     A
C393   C400    1.413   .     A
C394   C396    1.418   .     A
C394   C401    1.413   .     A
C395   C397    1.421   .     A
C395   C460    1.410   .     S
C396   C399    1.421   .     A
C396   C459    1.410   1_455 S
C397   C414    1.414   .     A
C397   C409    1.406   .     A
C398   C411    1.430   .     S
C398   O442    1.292   .     A
C398   O444    1.303   .     A
C399   C408    1.406   .     A
C400   C404    1.512   .     S
C400   C472    1.394   .     S
C401   C405    1.512   .     S
C401   C473    1.394   1_455 S
C402   H436    1.111   .     S
C402   C414    1.520   .     S
C402   H435    1.110   .     S
C402   H434    1.106   .     S
C403   H437    1.106   .     S
C403   H438    1.110   .     S
C403   H418    1.110   .     S
C404   H421    1.111   .     S
C404   H419    1.110   .     S
C404   H420    1.111   .     S
C405   H423    1.110   .     S
C405   H424    1.111   .     S
C405   H422    1.111   .     S
C406   H427    1.100   .     S
C406   H426    1.110   .     S
C406   H809    1.108   .     S
C406   N823    1.442   .     S
C407   H430    1.100   .     S
C407   H431    1.110   .     S
C408   H432    1.081   .     S
C408   C464    1.394   1_455 S
C409   H433    1.081   .     S
C409   C465    1.394   .     S
C410   Br641   1.944   1_545 S
C410   C667    1.355   1_545 S
C411   C538    1.355   .     S
C411   Br514   1.943   .     S
C412   O445    1.301   .     A
C412   O447    1.300   .     A
C413   O448    1.300   .     A
C413   O446    1.301   .     A
Cu415  O444    1.961   .     S
Cu415  O445    1.961   .     S
Cu415  O441    1.963   .     S
Cu415  N440    2.041   .     S
Cu415  O448    1.952   .     S
Cu415  Cu416   2.716   .     S
Cu416  N439    2.041   .     S
Cu416  O442    1.963   .     S
Cu416  O446    1.961   .     S
Cu416  O443    1.961   .     S
Cu416  O447    1.952   .     S
H429   C791    1.108   .     S
N440   N823    1.293   .     S
N440   C791    1.442   .     S
Br449  C602    1.944   .     S
Br450  C731    1.943   1_545 S
C451   O505    1.292   .     A
C451   C474    1.430   .     S
C451   O507    1.303   .     A
C452   C463    1.414   .     A
C452   C454    1.409   .     A
C452   C467    1.520   .     S
C453   C455    1.390   .     A
C453   C477    1.446   .     S
C453   C478    1.409   .     A
C454   C456    1.390   .     A
C454   C476    1.446   .     S
C455   H481    1.083   .     S
C455   C457    1.394   .     A
C456   H492    1.083   .     S
C456   C458    1.394   .     A
C457   C459    1.418   .     A
C457   C464    1.413   .     A
C458   C460    1.418   .     A
C458   C465    1.413   .     A
C459   C461    1.421   .     A
C459   C396    1.410   1_655 S
C460   C463    1.421   .     A
C461   C478    1.414   .     A
C461   C473    1.406   .     A
C462   C475    1.430   .     S
C462   O506    1.292   .     A
C462   O508    1.303   .     A
C463   C472    1.406   .     A
C464   C468    1.512   .     S
C464   C408    1.394   1_655 S
C465   C469    1.512   .     S
C466   H500    1.111   .     S
C466   C478    1.520   .     S
C466   H499    1.110   .     S
C466   H498    1.106   .     S
C467   H501    1.106   .     S
C467   H502    1.110   .     S
C467   H482    1.110   .     S
C468   H485    1.111   .     S
C468   H483    1.110   .     S
C468   H484    1.111   .     S
C469   H487    1.110   .     S
C469   H488    1.111   .     S
C469   H486    1.111   .     S
C470   H491    1.100   .     S
C470   H490    1.110   .     S
C470   H873    1.108   .     S
C470   N887    1.442   .     S
C471   H494    1.100   .     S
C471   H495    1.110   .     S
C472   H496    1.081   .     S
C473   H497    1.081   .     S
C473   C401    1.394   1_655 S
C474   Br705   1.944   1_545 S
C474   C731    1.355   1_545 S
C475   C602    1.355   .     S
C475   Br578   1.943   .     S
C476   O509    1.301   .     A
C476   O511    1.300   .     A
C477   O512    1.300   .     A
C477   O510    1.301   .     A
Cu479  O508    1.961   .     S
Cu479  O509    1.961   .     S
Cu479  O505    1.963   .     S
Cu479  N504    2.041   .     S
Cu479  O512    1.952   .     S
Cu479  Cu480   2.716   .     S
Cu480  N503    2.041   .     S
Cu480  O506    1.963   .     S
Cu480  O510    1.961   .     S
Cu480  O507    1.961   .     S
Cu480  O511    1.952   .     S
H493   C855    1.108   .     S
N504   N887    1.293   .     S
N504   C855    1.442   .     S
Br513  C666    1.944   .     S
C515   O569    1.292   .     A
C515   C538    1.430   .     S
C515   O571    1.303   .     A
C516   C527    1.414   .     A
C516   C518    1.409   .     A
C516   C531    1.520   .     S
C517   C519    1.390   .     A
C517   C541    1.446   .     S
C517   C542    1.409   .     A
C518   C520    1.390   .     A
C518   C540    1.446   .     S
C519   H545    1.083   .     S
C519   C521    1.394   .     A
C520   H556    1.083   .     S
C520   C522    1.394   .     A
C521   C523    1.418   .     A
C521   C528    1.413   .     A
C522   C524    1.418   .     A
C522   C529    1.413   .     A
C523   C525    1.421   .     A
C523   C588    1.410   .     S
C524   C527    1.421   .     A
C524   C587    1.410   1_455 S
C525   C542    1.414   .     A
C525   C537    1.406   .     A
C526   C539    1.430   .     S
C526   O570    1.292   .     A
C526   O572    1.303   .     A
C527   C536    1.406   .     A
C528   C532    1.512   .     S
C528   C600    1.394   .     S
C529   C533    1.512   .     S
C529   C601    1.394   1_455 S
C530   H564    1.111   .     S
C530   C542    1.520   .     S
C530   H563    1.110   .     S
C530   H562    1.106   .     S
C531   H565    1.106   .     S
C531   H566    1.110   .     S
C531   H546    1.110   .     S
C532   H549    1.111   .     S
C532   H547    1.110   .     S
C532   H548    1.111   .     S
C533   H551    1.110   .     S
C533   H552    1.111   .     S
C533   H550    1.111   .     S
C534   H555    1.100   .     S
C534   H554    1.110   .     S
C534   H937    1.108   .     S
C534   N951    1.442   .     S
C535   H558    1.100   .     S
C535   H559    1.110   .     S
C536   H560    1.081   .     S
C536   C592    1.394   1_455 S
C537   H561    1.081   .     S
C537   C593    1.394   .     S
C539   C666    1.355   .     S
C539   Br642   1.943   .     S
C540   O573    1.301   .     A
C540   O575    1.300   .     A
C541   O576    1.300   .     A
C541   O574    1.301   .     A
Cu543  O572    1.961   .     S
Cu543  O573    1.961   .     S
Cu543  O569    1.963   .     S
Cu543  N568    2.041   .     S
Cu543  O576    1.952   .     S
Cu543  Cu544   2.716   .     S
Cu544  N567    2.041   .     S
Cu544  O570    1.963   .     S
Cu544  O574    1.961   .     S
Cu544  O571    1.961   .     S
Cu544  O575    1.952   .     S
H557   C919    1.108   .     S
N568   N951    1.293   .     S
N568   C919    1.442   .     S
Br577  C730    1.944   .     S
C579   O633    1.292   .     A
C579   C602    1.430   .     S
C579   O635    1.303   .     A
C580   C591    1.414   .     A
C580   C582    1.409   .     A
C580   C595    1.520   .     S
C581   C583    1.390   .     A
C581   C605    1.446   .     S
C581   C606    1.409   .     A
C582   C584    1.390   .     A
C582   C604    1.446   .     S
C583   H609    1.083   .     S
C583   C585    1.394   .     A
C584   H620    1.083   .     S
C584   C586    1.394   .     A
C585   C587    1.418   .     A
C585   C592    1.413   .     A
C586   C588    1.418   .     A
C586   C593    1.413   .     A
C587   C589    1.421   .     A
C587   C524    1.410   1_655 S
C588   C591    1.421   .     A
C589   C606    1.414   .     A
C589   C601    1.406   .     A
C590   C603    1.430   .     S
C590   O634    1.292   .     A
C590   O636    1.303   .     A
C591   C600    1.406   .     A
C592   C596    1.512   .     S
C592   C536    1.394   1_655 S
C593   C597    1.512   .     S
C594   H628    1.111   .     S
C594   C606    1.520   .     S
C594   H627    1.110   .     S
C594   H626    1.106   .     S
C595   H629    1.106   .     S
C595   H630    1.110   .     S
C595   H610    1.110   .     S
C596   H613    1.111   .     S
C596   H611    1.110   .     S
C596   H612    1.111   .     S
C597   H615    1.110   .     S
C597   H616    1.111   .     S
C597   H614    1.111   .     S
C598   H619    1.100   .     S
C598   H618    1.110   .     S
C598   H1001   1.108   .     S
C598   N1015   1.442   .     S
C599   H622    1.100   .     S
C599   H623    1.110   .     S
C600   H624    1.081   .     S
C601   H625    1.081   .     S
C601   C529    1.394   1_655 S
C603   C730    1.355   .     S
C603   Br706   1.943   .     S
C604   O637    1.301   .     A
C604   O639    1.300   .     A
C605   O640    1.300   .     A
C605   O638    1.301   .     A
Cu607  O636    1.961   .     S
Cu607  O637    1.961   .     S
Cu607  O633    1.963   .     S
Cu607  N632    2.041   .     S
Cu607  O640    1.952   .     S
Cu607  Cu608   2.716   .     S
Cu608  N631    2.041   .     S
Cu608  O634    1.963   .     S
Cu608  O638    1.961   .     S
Cu608  O635    1.961   .     S
Cu608  O639    1.952   .     S
H621   C983    1.108   .     S
N632   N1015   1.293   .     S
N632   C983    1.442   .     S
Br641  C410    1.944   1_565 S
C643   O697    1.292   .     A
C643   C666    1.430   .     S
C643   O699    1.303   .     A
C644   C655    1.414   .     A
C644   C646    1.409   .     A
C644   C659    1.520   .     S
C645   C647    1.390   .     A
C645   C669    1.446   .     S
C645   C670    1.409   .     A
C646   C648    1.390   .     A
C646   C668    1.446   .     S
C647   H673    1.083   .     S
C647   C649    1.394   .     A
C648   H684    1.083   .     S
C648   C650    1.394   .     A
C649   C651    1.418   .     A
C649   C656    1.413   .     A
C650   C652    1.418   .     A
C650   C657    1.413   .     A
C651   C653    1.421   .     A
C651   C716    1.410   .     S
C652   C655    1.421   .     A
C652   C715    1.410   1_455 S
C653   C670    1.414   .     A
C653   C665    1.406   .     A
C654   C667    1.430   .     S
C654   O698    1.292   .     A
C654   O700    1.303   .     A
C655   C664    1.406   .     A
C656   C660    1.512   .     S
C656   C728    1.394   .     S
C657   C661    1.512   .     S
C657   C729    1.394   1_455 S
C658   H692    1.111   .     S
C658   C670    1.520   .     S
C658   H691    1.110   .     S
C658   H690    1.106   .     S
C659   H693    1.106   .     S
C659   H694    1.110   .     S
C659   H674    1.110   .     S
C660   H677    1.111   .     S
C660   H675    1.110   .     S
C660   H676    1.111   .     S
C661   H679    1.110   .     S
C661   H680    1.111   .     S
C661   H678    1.111   .     S
C662   H683    1.100   .     S
C662   H682    1.110   .     S
C662   H1065   1.108   .     S
C662   N1079   1.442   .     S
C663   H686    1.100   .     S
C663   H687    1.110   .     S
C664   H688    1.081   .     S
C664   C720    1.394   1_455 S
C665   H689    1.081   .     S
C665   C721    1.394   .     S
C667   C410    1.355   1_565 S
C667   Br386   1.943   1_565 S
C668   O701    1.301   .     A
C668   O703    1.300   .     A
C669   O704    1.300   .     A
C669   O702    1.301   .     A
Cu671  O700    1.961   .     S
Cu671  O701    1.961   .     S
Cu671  O697    1.963   .     S
Cu671  N696    2.041   .     S
Cu671  O704    1.952   .     S
Cu671  Cu672   2.716   .     S
Cu672  N695    2.041   .     S
Cu672  O698    1.963   .     S
Cu672  O702    1.961   .     S
Cu672  O699    1.961   .     S
Cu672  O703    1.952   .     S
H685   C1047   1.108   .     S
N696   N1079   1.293   .     S
N696   C1047   1.442   .     S
Br705  C474    1.944   1_565 S
C707   O761    1.292   .     A
C707   C730    1.430   .     S
C707   O763    1.303   .     A
C708   C719    1.414   .     A
C708   C710    1.409   .     A
C708   C723    1.520   .     S
C709   C711    1.390   .     A
C709   C733    1.446   .     S
C709   C734    1.409   .     A
C710   C712    1.390   .     A
C710   C732    1.446   .     S
C711   H737    1.083   .     S
C711   C713    1.394   .     A
C712   H748    1.083   .     S
C712   C714    1.394   .     A
C713   C715    1.418   .     A
C713   C720    1.413   .     A
C714   C716    1.418   .     A
C714   C721    1.413   .     A
C715   C717    1.421   .     A
C715   C652    1.410   1_655 S
C716   C719    1.421   .     A
C717   C734    1.414   .     A
C717   C729    1.406   .     A
C718   C731    1.430   .     S
C718   O762    1.292   .     A
C718   O764    1.303   .     A
C719   C728    1.406   .     A
C720   C724    1.512   .     S
C720   C664    1.394   1_655 S
C721   C725    1.512   .     S
C722   H756    1.111   .     S
C722   C734    1.520   .     S
C722   H755    1.110   .     S
C722   H754    1.106   .     S
C723   H757    1.106   .     S
C723   H758    1.110   .     S
C723   H738    1.110   .     S
C724   H741    1.111   .     S
C724   H739    1.110   .     S
C724   H740    1.111   .     S
C725   H743    1.110   .     S
C725   H744    1.111   .     S
C725   H742    1.111   .     S
C726   H747    1.100   .     S
C726   H746    1.110   .     S
C726   H1129   1.108   .     S
C726   N1143   1.442   .     S
C727   H750    1.100   .     S
C727   H751    1.110   .     S
C728   H752    1.081   .     S
C729   H753    1.081   .     S
C729   C657    1.394   1_655 S
C731   C474    1.355   1_565 S
C731   Br450   1.943   1_565 S
C732   O765    1.301   .     A
C732   O767    1.300   .     A
C733   O768    1.300   .     A
C733   O766    1.301   .     A
Cu735  O764    1.961   .     S
Cu735  O765    1.961   .     S
Cu735  O761    1.963   .     S
Cu735  N760    2.041   .     S
Cu735  O768    1.952   .     S
Cu735  Cu736   2.716   .     S
Cu736  N759    2.041   .     S
Cu736  O762    1.963   .     S
Cu736  O766    1.961   .     S
Cu736  O763    1.961   .     S
Cu736  O767    1.952   .     S
H749   C1111   1.108   .     S
N760   N1143   1.293   .     S
N760   C1111   1.442   .     S
Br769  C922    1.944   .     S
Br770  C1051   1.943   1_545 S
C771   O825    1.292   .     A
C771   C794    1.430   .     S
C771   O827    1.303   .     A
C772   C783    1.414   .     A
C772   C774    1.409   .     A
C772   C787    1.520   .     S
C773   C775    1.390   .     A
C773   C797    1.446   .     S
C773   C798    1.409   .     A
C774   C776    1.390   .     A
C774   C796    1.446   .     S
C775   H801    1.083   .     S
C775   C777    1.394   .     A
C776   H812    1.083   .     S
C776   C778    1.394   .     A
C777   C779    1.418   .     A
C777   C784    1.413   .     A
C778   C780    1.418   .     A
C778   C785    1.413   .     A
C779   C781    1.421   .     A
C779   C844    1.410   .     S
C780   C783    1.421   .     A
C780   C843    1.410   1_455 S
C781   C798    1.414   .     A
C781   C793    1.406   .     A
C782   C795    1.430   .     S
C782   O826    1.292   .     A
C782   O828    1.303   .     A
C783   C792    1.406   .     A
C784   C788    1.512   .     S
C784   C856    1.394   .     S
C785   C789    1.512   .     S
C785   C857    1.394   1_455 S
C786   H820    1.111   .     S
C786   C798    1.520   .     S
C786   H819    1.110   .     S
C786   H818    1.106   .     S
C787   H821    1.106   .     S
C787   H822    1.110   .     S
C787   H802    1.110   .     S
C788   H805    1.111   .     S
C788   H803    1.110   .     S
C788   H804    1.111   .     S
C789   H807    1.110   .     S
C789   H808    1.111   .     S
C789   H806    1.111   .     S
C790   H811    1.100   .     S
C790   H810    1.110   .     S
C790   H41     1.108   1_556 S
C790   N55     1.442   1_556 S
C791   H814    1.100   .     S
C791   H815    1.110   .     S
C792   H816    1.081   .     S
C792   C848    1.394   1_455 S
C793   H817    1.081   .     S
C793   C849    1.394   .     S
C794   Br1025  1.944   1_545 S
C794   C1051   1.355   1_545 S
C795   C922    1.355   .     S
C795   Br898   1.943   .     S
C796   O829    1.301   .     A
C796   O831    1.300   .     A
C797   O832    1.300   .     A
C797   O830    1.301   .     A
Cu799  O828    1.961   .     S
Cu799  O829    1.961   .     S
Cu799  O825    1.963   .     S
Cu799  N824    2.041   .     S
Cu799  O832    1.952   .     S
Cu799  Cu800   2.716   .     S
Cu800  N823    2.041   .     S
Cu800  O826    1.963   .     S
Cu800  O830    1.961   .     S
Cu800  O827    1.961   .     S
Cu800  O831    1.952   .     S
H813   C23     1.108   1_556 S
N824   N55     1.293   1_556 S
N824   C23     1.442   1_556 S
Br833  C986    1.944   .     S
Br834  C1115   1.943   1_545 S
C835   O889    1.292   .     A
C835   C858    1.430   .     S
C835   O891    1.303   .     A
C836   C847    1.414   .     A
C836   C838    1.409   .     A
C836   C851    1.520   .     S
C837   C839    1.390   .     A
C837   C861    1.446   .     S
C837   C862    1.409   .     A
C838   C840    1.390   .     A
C838   C860    1.446   .     S
C839   H865    1.083   .     S
C839   C841    1.394   .     A
C840   H876    1.083   .     S
C840   C842    1.394   .     A
C841   C843    1.418   .     A
C841   C848    1.413   .     A
C842   C844    1.418   .     A
C842   C849    1.413   .     A
C843   C845    1.421   .     A
C843   C780    1.410   1_655 S
C844   C847    1.421   .     A
C845   C862    1.414   .     A
C845   C857    1.406   .     A
C846   C859    1.430   .     S
C846   O890    1.292   .     A
C846   O892    1.303   .     A
C847   C856    1.406   .     A
C848   C852    1.512   .     S
C848   C792    1.394   1_655 S
C849   C853    1.512   .     S
C850   H884    1.111   .     S
C850   C862    1.520   .     S
C850   H883    1.110   .     S
C850   H882    1.106   .     S
C851   H885    1.106   .     S
C851   H886    1.110   .     S
C851   H866    1.110   .     S
C852   H869    1.111   .     S
C852   H867    1.110   .     S
C852   H868    1.111   .     S
C853   H871    1.110   .     S
C853   H872    1.111   .     S
C853   H870    1.111   .     S
C854   H875    1.100   .     S
C854   H874    1.110   .     S
C854   H105    1.108   1_556 S
C854   N119    1.442   1_556 S
C855   H878    1.100   .     S
C855   H879    1.110   .     S
C856   H880    1.081   .     S
C857   H881    1.081   .     S
C857   C785    1.394   1_655 S
C858   Br1089  1.944   1_545 S
C858   C1115   1.355   1_545 S
C859   C986    1.355   .     S
C859   Br962   1.943   .     S
C860   O893    1.301   .     A
C860   O895    1.300   .     A
C861   O896    1.300   .     A
C861   O894    1.301   .     A
Cu863  O892    1.961   .     S
Cu863  O893    1.961   .     S
Cu863  O889    1.963   .     S
Cu863  N888    2.041   .     S
Cu863  O896    1.952   .     S
Cu863  Cu864   2.716   .     S
Cu864  N887    2.041   .     S
Cu864  O890    1.963   .     S
Cu864  O894    1.961   .     S
Cu864  O891    1.961   .     S
Cu864  O895    1.952   .     S
H877   C87     1.108   1_556 S
N888   N119    1.293   1_556 S
N888   C87     1.442   1_556 S
Br897  C1050   1.944   .     S
C899   O953    1.292   .     A
C899   C922    1.430   .     S
C899   O955    1.303   .     A
C900   C911    1.414   .     A
C900   C902    1.409   .     A
C900   C915    1.520   .     S
C901   C903    1.390   .     A
C901   C925    1.446   .     S
C901   C926    1.409   .     A
C902   C904    1.390   .     A
C902   C924    1.446   .     S
C903   H929    1.083   .     S
C903   C905    1.394   .     A
C904   H940    1.083   .     S
C904   C906    1.394   .     A
C905   C907    1.418   .     A
C905   C912    1.413   .     A
C906   C908    1.418   .     A
C906   C913    1.413   .     A
C907   C909    1.421   .     A
C907   C972    1.410   .     S
C908   C911    1.421   .     A
C908   C971    1.410   1_455 S
C909   C926    1.414   .     A
C909   C921    1.406   .     A
C910   C923    1.430   .     S
C910   O954    1.292   .     A
C910   O956    1.303   .     A
C911   C920    1.406   .     A
C912   C916    1.512   .     S
C912   C984    1.394   .     S
C913   C917    1.512   .     S
C913   C985    1.394   1_455 S
C914   H948    1.111   .     S
C914   C926    1.520   .     S
C914   H947    1.110   .     S
C914   H946    1.106   .     S
C915   H949    1.106   .     S
C915   H950    1.110   .     S
C915   H930    1.110   .     S
C916   H933    1.111   .     S
C916   H931    1.110   .     S
C916   H932    1.111   .     S
C917   H935    1.110   .     S
C917   H936    1.111   .     S
C917   H934    1.111   .     S
C918   H939    1.100   .     S
C918   H938    1.110   .     S
C918   H169    1.108   1_556 S
C918   N183    1.442   1_556 S
C919   H942    1.100   .     S
C919   H943    1.110   .     S
C920   H944    1.081   .     S
C920   C976    1.394   1_455 S
C921   H945    1.081   .     S
C921   C977    1.394   .     S
C923   C1050   1.355   .     S
C923   Br1026  1.943   .     S
C924   O957    1.301   .     A
C924   O959    1.300   .     A
C925   O960    1.300   .     A
C925   O958    1.301   .     A
Cu927  O956    1.961   .     S
Cu927  O957    1.961   .     S
Cu927  O953    1.963   .     S
Cu927  N952    2.041   .     S
Cu927  O960    1.952   .     S
Cu927  Cu928   2.716   .     S
Cu928  N951    2.041   .     S
Cu928  O954    1.963   .     S
Cu928  O958    1.961   .     S
Cu928  O955    1.961   .     S
Cu928  O959    1.952   .     S
H941   C151    1.108   1_556 S
N952   N183    1.293   1_556 S
N952   C151    1.442   1_556 S
Br961  C1114   1.944   .     S
C963   O1017   1.292   .     A
C963   C986    1.430   .     S
C963   O1019   1.303   .     A
C964   C975    1.414   .     A
C964   C966    1.409   .     A
C964   C979    1.520   .     S
C965   C967    1.390   .     A
C965   C989    1.446   .     S
C965   C990    1.409   .     A
C966   C968    1.390   .     A
C966   C988    1.446   .     S
C967   H993    1.083   .     S
C967   C969    1.394   .     A
C968   H1004   1.083   .     S
C968   C970    1.394   .     A
C969   C971    1.418   .     A
C969   C976    1.413   .     A
C970   C972    1.418   .     A
C970   C977    1.413   .     A
C971   C973    1.421   .     A
C971   C908    1.410   1_655 S
C972   C975    1.421   .     A
C973   C990    1.414   .     A
C973   C985    1.406   .     A
C974   C987    1.430   .     S
C974   O1018   1.292   .     A
C974   O1020   1.303   .     A
C975   C984    1.406   .     A
C976   C980    1.512   .     S
C976   C920    1.394   1_655 S
C977   C981    1.512   .     S
C978   H1012   1.111   .     S
C978   C990    1.520   .     S
C978   H1011   1.110   .     S
C978   H1010   1.106   .     S
C979   H1013   1.106   .     S
C979   H1014   1.110   .     S
C979   H994    1.110   .     S
C980   H997    1.111   .     S
C980   H995    1.110   .     S
C980   H996    1.111   .     S
C981   H999    1.110   .     S
C981   H1000   1.111   .     S
C981   H998    1.111   .     S
C982   H1003   1.100   .     S
C982   H1002   1.110   .     S
C982   H233    1.108   1_556 S
C982   N247    1.442   1_556 S
C983   H1006   1.100   .     S
C983   H1007   1.110   .     S
C984   H1008   1.081   .     S
C985   H1009   1.081   .     S
C985   C913    1.394   1_655 S
C987   C1114   1.355   .     S
C987   Br1090  1.943   .     S
C988   O1021   1.301   .     A
C988   O1023   1.300   .     A
C989   O1024   1.300   .     A
C989   O1022   1.301   .     A
Cu991  O1020   1.961   .     S
Cu991  O1021   1.961   .     S
Cu991  O1017   1.963   .     S
Cu991  N1016   2.041   .     S
Cu991  O1024   1.952   .     S
Cu991  Cu992   2.716   .     S
Cu992  N1015   2.041   .     S
Cu992  O1018   1.963   .     S
Cu992  O1022   1.961   .     S
Cu992  O1019   1.961   .     S
Cu992  O1023   1.952   .     S
H1005  C215    1.108   1_556 S
N1016  N247    1.293   1_556 S
N1016  C215    1.442   1_556 S
Br1025 C794    1.944   1_565 S
C1027  O1081   1.292   .     A
C1027  C1050   1.430   .     S
C1027  O1083   1.303   .     A
C1028  C1039   1.414   .     A
C1028  C1030   1.409   .     A
C1028  C1043   1.520   .     S
C1029  C1031   1.390   .     A
C1029  C1053   1.446   .     S
C1029  C1054   1.409   .     A
C1030  C1032   1.390   .     A
C1030  C1052   1.446   .     S
C1031  H1057   1.083   .     S
C1031  C1033   1.394   .     A
C1032  H1068   1.083   .     S
C1032  C1034   1.394   .     A
C1033  C1035   1.418   .     A
C1033  C1040   1.413   .     A
C1034  C1036   1.418   .     A
C1034  C1041   1.413   .     A
C1035  C1037   1.421   .     A
C1035  C1100   1.410   .     S
C1036  C1039   1.421   .     A
C1036  C1099   1.410   1_455 S
C1037  C1054   1.414   .     A
C1037  C1049   1.406   .     A
C1038  C1051   1.430   .     S
C1038  O1082   1.292   .     A
C1038  O1084   1.303   .     A
C1039  C1048   1.406   .     A
C1040  C1044   1.512   .     S
C1040  C1112   1.394   .     S
C1041  C1045   1.512   .     S
C1041  C1113   1.394   1_455 S
C1042  H1076   1.111   .     S
C1042  C1054   1.520   .     S
C1042  H1075   1.110   .     S
C1042  H1074   1.106   .     S
C1043  H1077   1.106   .     S
C1043  H1078   1.110   .     S
C1043  H1058   1.110   .     S
C1044  H1061   1.111   .     S
C1044  H1059   1.110   .     S
C1044  H1060   1.111   .     S
C1045  H1063   1.110   .     S
C1045  H1064   1.111   .     S
C1045  H1062   1.111   .     S
C1046  H1067   1.100   .     S
C1046  H1066   1.110   .     S
C1046  H297    1.108   1_556 S
C1046  N311    1.442   1_556 S
C1047  H1070   1.100   .     S
C1047  H1071   1.110   .     S
C1048  H1072   1.081   .     S
C1048  C1104   1.394   1_455 S
C1049  H1073   1.081   .     S
C1049  C1105   1.394   .     S
C1051  C794    1.355   1_565 S
C1051  Br770   1.943   1_565 S
C1052  O1085   1.301   .     A
C1052  O1087   1.300   .     A
C1053  O1088   1.300   .     A
C1053  O1086   1.301   .     A
Cu1055 O1084   1.961   .     S
Cu1055 O1085   1.961   .     S
Cu1055 O1081   1.963   .     S
Cu1055 N1080   2.041   .     S
Cu1055 O1088   1.952   .     S
Cu1055 Cu1056  2.716   .     S
Cu1056 N1079   2.041   .     S
Cu1056 O1082   1.963   .     S
Cu1056 O1086   1.961   .     S
Cu1056 O1083   1.961   .     S
Cu1056 O1087   1.952   .     S
H1069  C279    1.108   1_556 S
N1080  N311    1.293   1_556 S
N1080  C279    1.442   1_556 S
Br1089 C858    1.944   1_565 S
C1091  O1145   1.292   .     A
C1091  C1114   1.430   .     S
C1091  O1147   1.303   .     A
C1092  C1103   1.414   .     A
C1092  C1094   1.409   .     A
C1092  C1107   1.520   .     S
C1093  C1095   1.390   .     A
C1093  C1117   1.446   .     S
C1093  C1118   1.409   .     A
C1094  C1096   1.390   .     A
C1094  C1116   1.446   .     S
C1095  H1121   1.083   .     S
C1095  C1097   1.394   .     A
C1096  H1132   1.083   .     S
C1096  C1098   1.394   .     A
C1097  C1099   1.418   .     A
C1097  C1104   1.413   .     A
C1098  C1100   1.418   .     A
C1098  C1105   1.413   .     A
C1099  C1101   1.421   .     A
C1099  C1036   1.410   1_655 S
C1100  C1103   1.421   .     A
C1101  C1118   1.414   .     A
C1101  C1113   1.406   .     A
C1102  C1115   1.430   .     S
C1102  O1146   1.292   .     A
C1102  O1148   1.303   .     A
C1103  C1112   1.406   .     A
C1104  C1108   1.512   .     S
C1104  C1048   1.394   1_655 S
C1105  C1109   1.512   .     S
C1106  H1140   1.111   .     S
C1106  C1118   1.520   .     S
C1106  H1139   1.110   .     S
C1106  H1138   1.106   .     S
C1107  H1141   1.106   .     S
C1107  H1142   1.110   .     S
C1107  H1122   1.110   .     S
C1108  H1125   1.111   .     S
C1108  H1123   1.110   .     S
C1108  H1124   1.111   .     S
C1109  H1127   1.110   .     S
C1109  H1128   1.111   .     S
C1109  H1126   1.111   .     S
C1110  H1131   1.100   .     S
C1110  H1130   1.110   .     S
C1110  H361    1.108   1_556 S
C1110  N375    1.442   1_556 S
C1111  H1134   1.100   .     S
C1111  H1135   1.110   .     S
C1112  H1136   1.081   .     S
C1113  H1137   1.081   .     S
C1113  C1041   1.394   1_655 S
C1115  C858    1.355   1_565 S
C1115  Br834   1.943   1_565 S
C1116  O1149   1.301   .     A
C1116  O1151   1.300   .     A
C1117  O1152   1.300   .     A
C1117  O1150   1.301   .     A
Cu1119 O1148   1.961   .     S
Cu1119 O1149   1.961   .     S
Cu1119 O1145   1.963   .     S
Cu1119 N1144   2.041   .     S
Cu1119 O1152   1.952   .     S
Cu1119 Cu1120  2.716   .     S
Cu1120 N1143   2.041   .     S
Cu1120 O1146   1.963   .     S
Cu1120 O1150   1.961   .     S
Cu1120 O1147   1.961   .     S
Cu1120 O1151   1.952   .     S
H1133  C343    1.108   1_556 S
N1144  N375    1.293   1_556 S
N1144  C343    1.442   1_556 S
