data_str_m2_o1_o17_pcu_sym.229
_audit_creation_date              2020-01-03
_audit_creation_method            'Materials Studio'
_symmetry_space_group_name_H-M    'P1'
_symmetry_Int_Tables_number       1
_symmetry_cell_setting            triclinic
loop_
_symmetry_equiv_pos_as_xyz
  x,y,z
_cell_length_a                    32.4854
_cell_length_b                    28.8539
_cell_length_c                    30.1598
_cell_angle_alpha                 90.1962
_cell_angle_beta                  92.6708
_cell_angle_gamma                 90.0699
loop_
_atom_site_label
_atom_site_type_symbol
_atom_site_fract_x
_atom_site_fract_y
_atom_site_fract_z
_atom_site_U_iso_or_equiv
_atom_site_adp_type
_atom_site_occupancy
C1     C     0.08745   0.16665   0.25001   0.00000  Uiso   1.00
C2     C     0.24588   0.16668   0.24999   0.00000  Uiso   1.00
C3     C     0.14371   0.08620   0.02205   0.00000  Uiso   1.00
C4     C     0.18962   0.24713   0.47795   0.00000  Uiso   1.00
C5     C     0.02127   0.12456   0.25062   0.00000  Uiso   1.00
C6     C     0.31206   0.20877   0.24938   0.00000  Uiso   1.00
C7     C     0.31201   0.12458   0.25046   0.00000  Uiso   1.00
C8     C     0.02132   0.20875   0.24954   0.00000  Uiso   1.00
C9     C     0.29055   0.16668   0.24993   0.00000  Uiso   1.00
C10    C     0.04279   0.16665   0.25007   0.00000  Uiso   1.00
C11    C     0.14024   0.02452   0.22190   0.00000  Uiso   1.00
C12    C     0.19309   0.30881   0.27810   0.00000  Uiso   1.00
C13    C     0.19299   0.02482   0.27822   0.00000  Uiso   1.00
C14    C     0.14035   0.30851   0.22178   0.00000  Uiso   1.00
C15    C     0.16676   0.16661   0.16442   0.00000  Uiso   1.00
C16    C     0.16658   0.16672   0.33558   0.00000  Uiso   1.00
C17    C     0.17701   0.20695   0.40787   0.00000  Uiso   1.00
C18    C     0.15632   0.12638   0.09213   0.00000  Uiso   1.00
C19    C     0.16631   0.16675   0.38402   0.00000  Uiso   1.00
C20    C     0.16702   0.16658   0.11598   0.00000  Uiso   1.00
C21    C     0.15542   0.12646   0.40641   0.00000  Uiso   1.00
C22    C     0.17791   0.20688   0.09359   0.00000  Uiso   1.00
C23    C     0.15502   0.12586   0.45276   0.00000  Uiso   1.00
C24    C     0.17832   0.20748   0.04724   0.00000  Uiso   1.00
C25    C     0.16651   0.16656   0.47672   0.00000  Uiso   1.00
C26    C     0.16682   0.16677   0.02328   0.00000  Uiso   1.00
C27    C     0.17770   0.20711   0.45411   0.00000  Uiso   1.00
C28    C     0.15563   0.12622   0.04589   0.00000  Uiso   1.00
C29    C     0.14337   0.08575   0.47574   0.00000  Uiso   1.00
C30    C     0.18996   0.24759   0.02426   0.00000  Uiso   1.00
Cu31   Cu    0.16667   0.21355   0.25000   0.00000  Uiso   1.00
Cu32   Cu    0.16667   0.11978   0.25000   0.00000  Uiso   1.00
H33    H     0.18520   0.23806   0.39039   0.00000  Uiso   1.00
H34    H     0.14813   0.09528   0.10961   0.00000  Uiso   1.00
H35    H     0.14695   0.09585   0.38729   0.00000  Uiso   1.00
H36    H     0.18639   0.23748   0.11271   0.00000  Uiso   1.00
H37    H     0.03722   0.09162   0.25121   0.00000  Uiso   1.00
H38    H     0.29612   0.24171   0.24879   0.00000  Uiso   1.00
H39    H     0.29602   0.09164   0.25077   0.00000  Uiso   1.00
H40    H     0.03731   0.24170   0.24923   0.00000  Uiso   1.00
N41    N     0.16667   0.28402   0.25000   0.00000  Uiso   1.00
N42    N     0.16667   0.04931   0.25000   0.00000  Uiso   1.00
O43    O     0.10655   0.20625   0.25000   0.00000  Uiso   1.00
O44    O     0.22679   0.12709   0.25001   0.00000  Uiso   1.00
O45    O     0.22679   0.20625   0.25001   0.00000  Uiso   1.00
O46    O     0.10655   0.12709   0.25000   0.00000  Uiso   1.00
O47    O     0.16666   0.20627   0.18513   0.00000  Uiso   1.00
O48    O     0.16668   0.12707   0.31487   0.00000  Uiso   1.00
O49    O     0.16668   0.20627   0.31487   0.00000  Uiso   1.00
O50    O     0.16666   0.12707   0.18513   0.00000  Uiso   1.00
Br51   Br    0.12613   0.02947   0.44572   0.00000  Uiso   1.00
Br52   Br    0.20720   0.30386   0.05428   0.00000  Uiso   1.00
F53    F     0.13192   0.04756   0.04380   0.00000  Uiso   1.00
F54    F     0.20141   0.28577   0.45620   0.00000  Uiso   1.00
Br55   Br    0.10167   0.05574   0.18185   0.00000  Uiso   1.00
Br56   Br    0.23166   0.27760   0.31815   0.00000  Uiso   1.00
Br57   Br    0.23057   0.05649   0.31940   0.00000  Uiso   1.00
Br58   Br    0.10276   0.27684   0.18060   0.00000  Uiso   1.00
C59    C     0.42079   0.16665   0.25001   0.00000  Uiso   1.00
C60    C     0.57921   0.16668   0.24999   0.00000  Uiso   1.00
C61    C     0.47705   0.08620   0.02205   0.00000  Uiso   1.00
C62    C     0.52295   0.24713   0.47795   0.00000  Uiso   1.00
C63    C     0.35460   0.12456   0.25062   0.00000  Uiso   1.00
C64    C     0.64540   0.20877   0.24938   0.00000  Uiso   1.00
C65    C     0.64535   0.12458   0.25046   0.00000  Uiso   1.00
C66    C     0.35465   0.20875   0.24954   0.00000  Uiso   1.00
C67    C     0.62388   0.16668   0.24993   0.00000  Uiso   1.00
C68    C     0.37612   0.16665   0.25007   0.00000  Uiso   1.00
C69    C     0.47357   0.02452   0.22190   0.00000  Uiso   1.00
C70    C     0.52643   0.30881   0.27810   0.00000  Uiso   1.00
C71    C     0.52632   0.02482   0.27822   0.00000  Uiso   1.00
C72    C     0.47368   0.30851   0.22178   0.00000  Uiso   1.00
C73    C     0.50009   0.16661   0.16442   0.00000  Uiso   1.00
C74    C     0.49991   0.16672   0.33558   0.00000  Uiso   1.00
C75    C     0.51035   0.20695   0.40787   0.00000  Uiso   1.00
C76    C     0.48965   0.12638   0.09213   0.00000  Uiso   1.00
C77    C     0.49964   0.16675   0.38402   0.00000  Uiso   1.00
C78    C     0.50036   0.16658   0.11598   0.00000  Uiso   1.00
C79    C     0.48876   0.12646   0.40641   0.00000  Uiso   1.00
C80    C     0.51124   0.20688   0.09359   0.00000  Uiso   1.00
C81    C     0.48835   0.12586   0.45276   0.00000  Uiso   1.00
C82    C     0.51165   0.20748   0.04724   0.00000  Uiso   1.00
C83    C     0.49984   0.16656   0.47672   0.00000  Uiso   1.00
C84    C     0.50016   0.16677   0.02328   0.00000  Uiso   1.00
C85    C     0.51104   0.20711   0.45411   0.00000  Uiso   1.00
C86    C     0.48896   0.12622   0.04589   0.00000  Uiso   1.00
C87    C     0.47670   0.08575   0.47574   0.00000  Uiso   1.00
C88    C     0.52330   0.24759   0.02426   0.00000  Uiso   1.00
Cu89   Cu    0.50000   0.21355   0.25000   0.00000  Uiso   1.00
Cu90   Cu    0.50000   0.11978   0.25000   0.00000  Uiso   1.00
H91    H     0.51853   0.23806   0.39039   0.00000  Uiso   1.00
H92    H     0.48147   0.09528   0.10961   0.00000  Uiso   1.00
H93    H     0.48028   0.09585   0.38729   0.00000  Uiso   1.00
H94    H     0.51972   0.23748   0.11271   0.00000  Uiso   1.00
H95    H     0.37055   0.09162   0.25121   0.00000  Uiso   1.00
H96    H     0.62945   0.24171   0.24879   0.00000  Uiso   1.00
H97    H     0.62936   0.09164   0.25077   0.00000  Uiso   1.00
H98    H     0.37064   0.24170   0.24923   0.00000  Uiso   1.00
N99    N     0.50000   0.28402   0.25000   0.00000  Uiso   1.00
N100   N     0.50000   0.04931   0.25000   0.00000  Uiso   1.00
O101   O     0.43988   0.20625   0.25000   0.00000  Uiso   1.00
O102   O     0.56012   0.12709   0.25001   0.00000  Uiso   1.00
O103   O     0.56012   0.20625   0.25001   0.00000  Uiso   1.00
O104   O     0.43988   0.12709   0.25000   0.00000  Uiso   1.00
O105   O     0.49999   0.20627   0.18513   0.00000  Uiso   1.00
O106   O     0.50001   0.12707   0.31487   0.00000  Uiso   1.00
O107   O     0.50001   0.20627   0.31487   0.00000  Uiso   1.00
O108   O     0.49999   0.12707   0.18513   0.00000  Uiso   1.00
Br109  Br    0.45947   0.02947   0.44572   0.00000  Uiso   1.00
Br110  Br    0.54053   0.30386   0.05428   0.00000  Uiso   1.00
F111   F     0.46526   0.04756   0.04380   0.00000  Uiso   1.00
F112   F     0.53474   0.28577   0.45620   0.00000  Uiso   1.00
Br113  Br    0.43500   0.05574   0.18185   0.00000  Uiso   1.00
Br114  Br    0.56500   0.27760   0.31815   0.00000  Uiso   1.00
Br115  Br    0.56391   0.05649   0.31940   0.00000  Uiso   1.00
Br116  Br    0.43609   0.27684   0.18060   0.00000  Uiso   1.00
C117   C     0.75412   0.16665   0.25001   0.00000  Uiso   1.00
C118   C     0.91255   0.16668   0.24999   0.00000  Uiso   1.00
C119   C     0.81038   0.08620   0.02205   0.00000  Uiso   1.00
C120   C     0.85629   0.24713   0.47795   0.00000  Uiso   1.00
C121   C     0.68793   0.12456   0.25062   0.00000  Uiso   1.00
C122   C     0.97873   0.20877   0.24938   0.00000  Uiso   1.00
C123   C     0.97868   0.12458   0.25046   0.00000  Uiso   1.00
C124   C     0.68799   0.20875   0.24954   0.00000  Uiso   1.00
C125   C     0.95721   0.16668   0.24993   0.00000  Uiso   1.00
C126   C     0.70945   0.16665   0.25007   0.00000  Uiso   1.00
C127   C     0.80691   0.02452   0.22190   0.00000  Uiso   1.00
C128   C     0.85976   0.30881   0.27810   0.00000  Uiso   1.00
C129   C     0.85965   0.02482   0.27822   0.00000  Uiso   1.00
C130   C     0.80701   0.30851   0.22178   0.00000  Uiso   1.00
C131   C     0.83342   0.16661   0.16442   0.00000  Uiso   1.00
C132   C     0.83324   0.16672   0.33558   0.00000  Uiso   1.00
C133   C     0.84368   0.20695   0.40787   0.00000  Uiso   1.00
C134   C     0.82299   0.12638   0.09213   0.00000  Uiso   1.00
C135   C     0.83298   0.16675   0.38402   0.00000  Uiso   1.00
C136   C     0.83369   0.16658   0.11598   0.00000  Uiso   1.00
C137   C     0.82209   0.12646   0.40641   0.00000  Uiso   1.00
C138   C     0.84458   0.20688   0.09359   0.00000  Uiso   1.00
C139   C     0.82168   0.12586   0.45276   0.00000  Uiso   1.00
C140   C     0.84498   0.20748   0.04724   0.00000  Uiso   1.00
C141   C     0.83318   0.16656   0.47672   0.00000  Uiso   1.00
C142   C     0.83349   0.16677   0.02328   0.00000  Uiso   1.00
C143   C     0.84437   0.20711   0.45411   0.00000  Uiso   1.00
C144   C     0.82230   0.12622   0.04589   0.00000  Uiso   1.00
C145   C     0.81004   0.08575   0.47574   0.00000  Uiso   1.00
C146   C     0.85663   0.24759   0.02426   0.00000  Uiso   1.00
Cu147  Cu    0.83333   0.21355   0.25000   0.00000  Uiso   1.00
Cu148  Cu    0.83333   0.11978   0.25000   0.00000  Uiso   1.00
H149   H     0.85187   0.23806   0.39039   0.00000  Uiso   1.00
H150   H     0.81480   0.09528   0.10961   0.00000  Uiso   1.00
H151   H     0.81361   0.09585   0.38729   0.00000  Uiso   1.00
H152   H     0.85305   0.23748   0.11271   0.00000  Uiso   1.00
H153   H     0.70388   0.09162   0.25121   0.00000  Uiso   1.00
H154   H     0.96278   0.24171   0.24879   0.00000  Uiso   1.00
H155   H     0.96269   0.09164   0.25077   0.00000  Uiso   1.00
H156   H     0.70397   0.24170   0.24923   0.00000  Uiso   1.00
N157   N     0.83333   0.28402   0.25000   0.00000  Uiso   1.00
N158   N     0.83333   0.04931   0.25000   0.00000  Uiso   1.00
O159   O     0.77321   0.20625   0.25000   0.00000  Uiso   1.00
O160   O     0.89345   0.12709   0.25001   0.00000  Uiso   1.00
O161   O     0.89345   0.20625   0.25001   0.00000  Uiso   1.00
O162   O     0.77321   0.12709   0.25000   0.00000  Uiso   1.00
O163   O     0.83332   0.20627   0.18513   0.00000  Uiso   1.00
O164   O     0.83334   0.12707   0.31487   0.00000  Uiso   1.00
O165   O     0.83334   0.20627   0.31487   0.00000  Uiso   1.00
O166   O     0.83332   0.12707   0.18513   0.00000  Uiso   1.00
Br167  Br    0.79280   0.02947   0.44572   0.00000  Uiso   1.00
Br168  Br    0.87387   0.30386   0.05428   0.00000  Uiso   1.00
F169   F     0.79859   0.04756   0.04380   0.00000  Uiso   1.00
F170   F     0.86808   0.28577   0.45620   0.00000  Uiso   1.00
Br171  Br    0.76834   0.05574   0.18185   0.00000  Uiso   1.00
Br172  Br    0.89833   0.27760   0.31815   0.00000  Uiso   1.00
Br173  Br    0.89724   0.05649   0.31940   0.00000  Uiso   1.00
Br174  Br    0.76943   0.27684   0.18060   0.00000  Uiso   1.00
C175   C     0.08745   0.49998   0.25001   0.00000  Uiso   1.00
C176   C     0.24588   0.50002   0.24999   0.00000  Uiso   1.00
C177   C     0.14371   0.41953   0.02205   0.00000  Uiso   1.00
C178   C     0.18962   0.58047   0.47795   0.00000  Uiso   1.00
C179   C     0.02127   0.45790   0.25062   0.00000  Uiso   1.00
C180   C     0.31206   0.54210   0.24938   0.00000  Uiso   1.00
C181   C     0.31201   0.45791   0.25046   0.00000  Uiso   1.00
C182   C     0.02132   0.54209   0.24954   0.00000  Uiso   1.00
C183   C     0.29055   0.50002   0.24993   0.00000  Uiso   1.00
C184   C     0.04279   0.49998   0.25007   0.00000  Uiso   1.00
C185   C     0.14024   0.35786   0.22190   0.00000  Uiso   1.00
C186   C     0.19309   0.64214   0.27810   0.00000  Uiso   1.00
C187   C     0.19299   0.35816   0.27822   0.00000  Uiso   1.00
C188   C     0.14035   0.64184   0.22178   0.00000  Uiso   1.00
C189   C     0.16676   0.49995   0.16442   0.00000  Uiso   1.00
C190   C     0.16658   0.50005   0.33558   0.00000  Uiso   1.00
C191   C     0.17701   0.54028   0.40787   0.00000  Uiso   1.00
C192   C     0.15632   0.45972   0.09213   0.00000  Uiso   1.00
C193   C     0.16631   0.50008   0.38402   0.00000  Uiso   1.00
C194   C     0.16702   0.49992   0.11598   0.00000  Uiso   1.00
C195   C     0.15542   0.45979   0.40641   0.00000  Uiso   1.00
C196   C     0.17791   0.54021   0.09359   0.00000  Uiso   1.00
C197   C     0.15502   0.45919   0.45276   0.00000  Uiso   1.00
C198   C     0.17832   0.54081   0.04724   0.00000  Uiso   1.00
C199   C     0.16651   0.49989   0.47672   0.00000  Uiso   1.00
C200   C     0.16682   0.50011   0.02328   0.00000  Uiso   1.00
C201   C     0.17770   0.54045   0.45411   0.00000  Uiso   1.00
C202   C     0.15563   0.45955   0.04589   0.00000  Uiso   1.00
C203   C     0.14337   0.41908   0.47574   0.00000  Uiso   1.00
C204   C     0.18996   0.58092   0.02426   0.00000  Uiso   1.00
Cu205  Cu    0.16667   0.54689   0.25000   0.00000  Uiso   1.00
Cu206  Cu    0.16667   0.45311   0.25000   0.00000  Uiso   1.00
H207   H     0.18520   0.57139   0.39039   0.00000  Uiso   1.00
H208   H     0.14813   0.42861   0.10961   0.00000  Uiso   1.00
H209   H     0.14695   0.42919   0.38729   0.00000  Uiso   1.00
H210   H     0.18639   0.57081   0.11271   0.00000  Uiso   1.00
H211   H     0.03722   0.42496   0.25121   0.00000  Uiso   1.00
H212   H     0.29612   0.57504   0.24879   0.00000  Uiso   1.00
H213   H     0.29602   0.42497   0.25077   0.00000  Uiso   1.00
H214   H     0.03731   0.57503   0.24923   0.00000  Uiso   1.00
N215   N     0.16667   0.61736   0.25000   0.00000  Uiso   1.00
N216   N     0.16667   0.38264   0.25000   0.00000  Uiso   1.00
O217   O     0.10655   0.53958   0.25000   0.00000  Uiso   1.00
O218   O     0.22679   0.46042   0.25001   0.00000  Uiso   1.00
O219   O     0.22679   0.53958   0.25001   0.00000  Uiso   1.00
O220   O     0.10655   0.46042   0.25000   0.00000  Uiso   1.00
O221   O     0.16666   0.53960   0.18513   0.00000  Uiso   1.00
O222   O     0.16668   0.46040   0.31487   0.00000  Uiso   1.00
O223   O     0.16668   0.53960   0.31487   0.00000  Uiso   1.00
O224   O     0.16666   0.46040   0.18513   0.00000  Uiso   1.00
Br225  Br    0.12613   0.36280   0.44572   0.00000  Uiso   1.00
Br226  Br    0.20720   0.63719   0.05428   0.00000  Uiso   1.00
F227   F     0.13192   0.38089   0.04380   0.00000  Uiso   1.00
F228   F     0.20141   0.61911   0.45620   0.00000  Uiso   1.00
Br229  Br    0.10167   0.38907   0.18185   0.00000  Uiso   1.00
Br230  Br    0.23166   0.61093   0.31815   0.00000  Uiso   1.00
Br231  Br    0.23057   0.38983   0.31940   0.00000  Uiso   1.00
Br232  Br    0.10276   0.61017   0.18060   0.00000  Uiso   1.00
C233   C     0.42079   0.49998   0.25001   0.00000  Uiso   1.00
C234   C     0.57921   0.50002   0.24999   0.00000  Uiso   1.00
C235   C     0.47705   0.41953   0.02205   0.00000  Uiso   1.00
C236   C     0.52295   0.58047   0.47795   0.00000  Uiso   1.00
C237   C     0.35460   0.45790   0.25062   0.00000  Uiso   1.00
C238   C     0.64540   0.54210   0.24938   0.00000  Uiso   1.00
C239   C     0.64535   0.45791   0.25046   0.00000  Uiso   1.00
C240   C     0.35465   0.54209   0.24954   0.00000  Uiso   1.00
C241   C     0.62388   0.50002   0.24993   0.00000  Uiso   1.00
C242   C     0.37612   0.49998   0.25007   0.00000  Uiso   1.00
C243   C     0.47357   0.35786   0.22190   0.00000  Uiso   1.00
C244   C     0.52643   0.64214   0.27810   0.00000  Uiso   1.00
C245   C     0.52632   0.35816   0.27822   0.00000  Uiso   1.00
C246   C     0.47368   0.64184   0.22178   0.00000  Uiso   1.00
C247   C     0.50009   0.49995   0.16442   0.00000  Uiso   1.00
C248   C     0.49991   0.50005   0.33558   0.00000  Uiso   1.00
C249   C     0.51035   0.54028   0.40787   0.00000  Uiso   1.00
C250   C     0.48965   0.45972   0.09213   0.00000  Uiso   1.00
C251   C     0.49964   0.50008   0.38402   0.00000  Uiso   1.00
C252   C     0.50036   0.49992   0.11598   0.00000  Uiso   1.00
C253   C     0.48876   0.45979   0.40641   0.00000  Uiso   1.00
C254   C     0.51124   0.54021   0.09359   0.00000  Uiso   1.00
C255   C     0.48835   0.45919   0.45276   0.00000  Uiso   1.00
C256   C     0.51165   0.54081   0.04724   0.00000  Uiso   1.00
C257   C     0.49984   0.49989   0.47672   0.00000  Uiso   1.00
C258   C     0.50016   0.50011   0.02328   0.00000  Uiso   1.00
C259   C     0.51104   0.54045   0.45411   0.00000  Uiso   1.00
C260   C     0.48896   0.45955   0.04589   0.00000  Uiso   1.00
C261   C     0.47670   0.41908   0.47574   0.00000  Uiso   1.00
C262   C     0.52330   0.58092   0.02426   0.00000  Uiso   1.00
Cu263  Cu    0.50000   0.54689   0.25000   0.00000  Uiso   1.00
Cu264  Cu    0.50000   0.45311   0.25000   0.00000  Uiso   1.00
H265   H     0.51853   0.57139   0.39039   0.00000  Uiso   1.00
H266   H     0.48147   0.42861   0.10961   0.00000  Uiso   1.00
H267   H     0.48028   0.42919   0.38729   0.00000  Uiso   1.00
H268   H     0.51972   0.57081   0.11271   0.00000  Uiso   1.00
H269   H     0.37055   0.42496   0.25121   0.00000  Uiso   1.00
H270   H     0.62945   0.57504   0.24879   0.00000  Uiso   1.00
H271   H     0.62936   0.42497   0.25077   0.00000  Uiso   1.00
H272   H     0.37064   0.57503   0.24923   0.00000  Uiso   1.00
N273   N     0.50000   0.61736   0.25000   0.00000  Uiso   1.00
N274   N     0.50000   0.38264   0.25000   0.00000  Uiso   1.00
O275   O     0.43988   0.53958   0.25000   0.00000  Uiso   1.00
O276   O     0.56012   0.46042   0.25001   0.00000  Uiso   1.00
O277   O     0.56012   0.53958   0.25001   0.00000  Uiso   1.00
O278   O     0.43988   0.46042   0.25000   0.00000  Uiso   1.00
O279   O     0.49999   0.53960   0.18513   0.00000  Uiso   1.00
O280   O     0.50001   0.46040   0.31487   0.00000  Uiso   1.00
O281   O     0.50001   0.53960   0.31487   0.00000  Uiso   1.00
O282   O     0.49999   0.46040   0.18513   0.00000  Uiso   1.00
Br283  Br    0.45947   0.36280   0.44572   0.00000  Uiso   1.00
Br284  Br    0.54053   0.63719   0.05428   0.00000  Uiso   1.00
F285   F     0.46526   0.38089   0.04380   0.00000  Uiso   1.00
F286   F     0.53474   0.61911   0.45620   0.00000  Uiso   1.00
Br287  Br    0.43500   0.38907   0.18185   0.00000  Uiso   1.00
Br288  Br    0.56500   0.61093   0.31815   0.00000  Uiso   1.00
Br289  Br    0.56391   0.38983   0.31940   0.00000  Uiso   1.00
Br290  Br    0.43609   0.61017   0.18060   0.00000  Uiso   1.00
C291   C     0.75412   0.49998   0.25001   0.00000  Uiso   1.00
C292   C     0.91255   0.50002   0.24999   0.00000  Uiso   1.00
C293   C     0.81038   0.41953   0.02205   0.00000  Uiso   1.00
C294   C     0.85629   0.58047   0.47795   0.00000  Uiso   1.00
C295   C     0.68793   0.45790   0.25062   0.00000  Uiso   1.00
C296   C     0.97873   0.54210   0.24938   0.00000  Uiso   1.00
C297   C     0.97868   0.45791   0.25046   0.00000  Uiso   1.00
C298   C     0.68799   0.54209   0.24954   0.00000  Uiso   1.00
C299   C     0.95721   0.50002   0.24993   0.00000  Uiso   1.00
C300   C     0.70945   0.49998   0.25007   0.00000  Uiso   1.00
C301   C     0.80691   0.35786   0.22190   0.00000  Uiso   1.00
C302   C     0.85976   0.64214   0.27810   0.00000  Uiso   1.00
C303   C     0.85965   0.35816   0.27822   0.00000  Uiso   1.00
C304   C     0.80701   0.64184   0.22178   0.00000  Uiso   1.00
C305   C     0.83342   0.49995   0.16442   0.00000  Uiso   1.00
C306   C     0.83324   0.50005   0.33558   0.00000  Uiso   1.00
C307   C     0.84368   0.54028   0.40787   0.00000  Uiso   1.00
C308   C     0.82299   0.45972   0.09213   0.00000  Uiso   1.00
C309   C     0.83298   0.50008   0.38402   0.00000  Uiso   1.00
C310   C     0.83369   0.49992   0.11598   0.00000  Uiso   1.00
C311   C     0.82209   0.45979   0.40641   0.00000  Uiso   1.00
C312   C     0.84458   0.54021   0.09359   0.00000  Uiso   1.00
C313   C     0.82168   0.45919   0.45276   0.00000  Uiso   1.00
C314   C     0.84498   0.54081   0.04724   0.00000  Uiso   1.00
C315   C     0.83318   0.49989   0.47672   0.00000  Uiso   1.00
C316   C     0.83349   0.50011   0.02328   0.00000  Uiso   1.00
C317   C     0.84437   0.54045   0.45411   0.00000  Uiso   1.00
C318   C     0.82230   0.45955   0.04589   0.00000  Uiso   1.00
C319   C     0.81004   0.41908   0.47574   0.00000  Uiso   1.00
C320   C     0.85663   0.58092   0.02426   0.00000  Uiso   1.00
Cu321  Cu    0.83333   0.54689   0.25000   0.00000  Uiso   1.00
Cu322  Cu    0.83333   0.45311   0.25000   0.00000  Uiso   1.00
H323   H     0.85187   0.57139   0.39039   0.00000  Uiso   1.00
H324   H     0.81480   0.42861   0.10961   0.00000  Uiso   1.00
H325   H     0.81361   0.42919   0.38729   0.00000  Uiso   1.00
H326   H     0.85305   0.57081   0.11271   0.00000  Uiso   1.00
H327   H     0.70388   0.42496   0.25121   0.00000  Uiso   1.00
H328   H     0.96278   0.57504   0.24879   0.00000  Uiso   1.00
H329   H     0.96269   0.42497   0.25077   0.00000  Uiso   1.00
H330   H     0.70397   0.57503   0.24923   0.00000  Uiso   1.00
N331   N     0.83333   0.61736   0.25000   0.00000  Uiso   1.00
N332   N     0.83333   0.38264   0.25000   0.00000  Uiso   1.00
O333   O     0.77321   0.53958   0.25000   0.00000  Uiso   1.00
O334   O     0.89345   0.46042   0.25001   0.00000  Uiso   1.00
O335   O     0.89345   0.53958   0.25001   0.00000  Uiso   1.00
O336   O     0.77321   0.46042   0.25000   0.00000  Uiso   1.00
O337   O     0.83332   0.53960   0.18513   0.00000  Uiso   1.00
O338   O     0.83334   0.46040   0.31487   0.00000  Uiso   1.00
O339   O     0.83334   0.53960   0.31487   0.00000  Uiso   1.00
O340   O     0.83332   0.46040   0.18513   0.00000  Uiso   1.00
Br341  Br    0.79280   0.36280   0.44572   0.00000  Uiso   1.00
Br342  Br    0.87387   0.63719   0.05428   0.00000  Uiso   1.00
F343   F     0.79859   0.38089   0.04380   0.00000  Uiso   1.00
F344   F     0.86808   0.61911   0.45620   0.00000  Uiso   1.00
Br345  Br    0.76834   0.38907   0.18185   0.00000  Uiso   1.00
Br346  Br    0.89833   0.61093   0.31815   0.00000  Uiso   1.00
Br347  Br    0.89724   0.38983   0.31940   0.00000  Uiso   1.00
Br348  Br    0.76943   0.61017   0.18060   0.00000  Uiso   1.00
C349   C     0.08745   0.83332   0.25001   0.00000  Uiso   1.00
C350   C     0.24588   0.83335   0.24999   0.00000  Uiso   1.00
C351   C     0.14371   0.75287   0.02205   0.00000  Uiso   1.00
C352   C     0.18962   0.91380   0.47795   0.00000  Uiso   1.00
C353   C     0.02127   0.79123   0.25062   0.00000  Uiso   1.00
C354   C     0.31206   0.87544   0.24938   0.00000  Uiso   1.00
C355   C     0.31201   0.79125   0.25046   0.00000  Uiso   1.00
C356   C     0.02132   0.87542   0.24954   0.00000  Uiso   1.00
C357   C     0.29055   0.83335   0.24993   0.00000  Uiso   1.00
C358   C     0.04279   0.83331   0.25007   0.00000  Uiso   1.00
C359   C     0.14024   0.69119   0.22190   0.00000  Uiso   1.00
C360   C     0.19309   0.97548   0.27810   0.00000  Uiso   1.00
C361   C     0.19299   0.69149   0.27822   0.00000  Uiso   1.00
C362   C     0.14035   0.97518   0.22178   0.00000  Uiso   1.00
C363   C     0.16676   0.83328   0.16442   0.00000  Uiso   1.00
C364   C     0.16658   0.83339   0.33558   0.00000  Uiso   1.00
C365   C     0.17701   0.87362   0.40787   0.00000  Uiso   1.00
C366   C     0.15632   0.79305   0.09213   0.00000  Uiso   1.00
C367   C     0.16631   0.83342   0.38402   0.00000  Uiso   1.00
C368   C     0.16702   0.83325   0.11598   0.00000  Uiso   1.00
C369   C     0.15542   0.79312   0.40641   0.00000  Uiso   1.00
C370   C     0.17791   0.87354   0.09359   0.00000  Uiso   1.00
C371   C     0.15502   0.79252   0.45276   0.00000  Uiso   1.00
C372   C     0.17832   0.87414   0.04724   0.00000  Uiso   1.00
C373   C     0.16651   0.83323   0.47672   0.00000  Uiso   1.00
C374   C     0.16682   0.83344   0.02328   0.00000  Uiso   1.00
C375   C     0.17770   0.87378   0.45411   0.00000  Uiso   1.00
C376   C     0.15563   0.79289   0.04589   0.00000  Uiso   1.00
C377   C     0.14337   0.75241   0.47574   0.00000  Uiso   1.00
C378   C     0.18996   0.91425   0.02426   0.00000  Uiso   1.00
Cu379  Cu    0.16667   0.88022   0.25000   0.00000  Uiso   1.00
Cu380  Cu    0.16667   0.78645   0.25000   0.00000  Uiso   1.00
H381   H     0.18520   0.90472   0.39039   0.00000  Uiso   1.00
H382   H     0.14813   0.76194   0.10961   0.00000  Uiso   1.00
H383   H     0.14695   0.76252   0.38729   0.00000  Uiso   1.00
H384   H     0.18639   0.90415   0.11271   0.00000  Uiso   1.00
H385   H     0.03722   0.75829   0.25121   0.00000  Uiso   1.00
H386   H     0.29612   0.90838   0.24879   0.00000  Uiso   1.00
H387   H     0.29602   0.75830   0.25077   0.00000  Uiso   1.00
H388   H     0.03731   0.90836   0.24923   0.00000  Uiso   1.00
N389   N     0.16667   0.95069   0.25000   0.00000  Uiso   1.00
N390   N     0.16667   0.71598   0.25000   0.00000  Uiso   1.00
O391   O     0.10655   0.87291   0.25000   0.00000  Uiso   1.00
O392   O     0.22679   0.79375   0.25001   0.00000  Uiso   1.00
O393   O     0.22679   0.87291   0.25001   0.00000  Uiso   1.00
O394   O     0.10655   0.79375   0.25000   0.00000  Uiso   1.00
O395   O     0.16666   0.87293   0.18513   0.00000  Uiso   1.00
O396   O     0.16668   0.79373   0.31487   0.00000  Uiso   1.00
O397   O     0.16668   0.87293   0.31487   0.00000  Uiso   1.00
O398   O     0.16666   0.79373   0.18513   0.00000  Uiso   1.00
Br399  Br    0.12613   0.69614   0.44572   0.00000  Uiso   1.00
Br400  Br    0.20720   0.97053   0.05428   0.00000  Uiso   1.00
F401   F     0.13192   0.71423   0.04380   0.00000  Uiso   1.00
F402   F     0.20141   0.95244   0.45620   0.00000  Uiso   1.00
Br403  Br    0.10167   0.72240   0.18185   0.00000  Uiso   1.00
Br404  Br    0.23166   0.94426   0.31815   0.00000  Uiso   1.00
Br405  Br    0.23057   0.72316   0.31940   0.00000  Uiso   1.00
Br406  Br    0.10276   0.94350   0.18060   0.00000  Uiso   1.00
C407   C     0.42079   0.83332   0.25001   0.00000  Uiso   1.00
C408   C     0.57921   0.83335   0.24999   0.00000  Uiso   1.00
C409   C     0.47705   0.75287   0.02205   0.00000  Uiso   1.00
C410   C     0.52295   0.91380   0.47795   0.00000  Uiso   1.00
C411   C     0.35460   0.79123   0.25062   0.00000  Uiso   1.00
C412   C     0.64540   0.87544   0.24938   0.00000  Uiso   1.00
C413   C     0.64535   0.79125   0.25046   0.00000  Uiso   1.00
C414   C     0.35465   0.87542   0.24954   0.00000  Uiso   1.00
C415   C     0.62388   0.83335   0.24993   0.00000  Uiso   1.00
C416   C     0.37612   0.83331   0.25007   0.00000  Uiso   1.00
C417   C     0.47357   0.69119   0.22190   0.00000  Uiso   1.00
C418   C     0.52643   0.97548   0.27810   0.00000  Uiso   1.00
C419   C     0.52632   0.69149   0.27822   0.00000  Uiso   1.00
C420   C     0.47368   0.97518   0.22178   0.00000  Uiso   1.00
C421   C     0.50009   0.83328   0.16442   0.00000  Uiso   1.00
C422   C     0.49991   0.83339   0.33558   0.00000  Uiso   1.00
C423   C     0.51035   0.87362   0.40787   0.00000  Uiso   1.00
C424   C     0.48965   0.79305   0.09213   0.00000  Uiso   1.00
C425   C     0.49964   0.83342   0.38402   0.00000  Uiso   1.00
C426   C     0.50036   0.83325   0.11598   0.00000  Uiso   1.00
C427   C     0.48876   0.79312   0.40641   0.00000  Uiso   1.00
C428   C     0.51124   0.87354   0.09359   0.00000  Uiso   1.00
C429   C     0.48835   0.79252   0.45276   0.00000  Uiso   1.00
C430   C     0.51165   0.87414   0.04724   0.00000  Uiso   1.00
C431   C     0.49984   0.83323   0.47672   0.00000  Uiso   1.00
C432   C     0.50016   0.83344   0.02328   0.00000  Uiso   1.00
C433   C     0.51104   0.87378   0.45411   0.00000  Uiso   1.00
C434   C     0.48896   0.79289   0.04589   0.00000  Uiso   1.00
C435   C     0.47670   0.75241   0.47574   0.00000  Uiso   1.00
C436   C     0.52330   0.91425   0.02426   0.00000  Uiso   1.00
Cu437  Cu    0.50000   0.88022   0.25000   0.00000  Uiso   1.00
Cu438  Cu    0.50000   0.78645   0.25000   0.00000  Uiso   1.00
H439   H     0.51853   0.90472   0.39039   0.00000  Uiso   1.00
H440   H     0.48147   0.76194   0.10961   0.00000  Uiso   1.00
H441   H     0.48028   0.76252   0.38729   0.00000  Uiso   1.00
H442   H     0.51972   0.90415   0.11271   0.00000  Uiso   1.00
H443   H     0.37055   0.75829   0.25121   0.00000  Uiso   1.00
H444   H     0.62945   0.90838   0.24879   0.00000  Uiso   1.00
H445   H     0.62936   0.75830   0.25077   0.00000  Uiso   1.00
H446   H     0.37064   0.90836   0.24923   0.00000  Uiso   1.00
N447   N     0.50000   0.95069   0.25000   0.00000  Uiso   1.00
N448   N     0.50000   0.71598   0.25000   0.00000  Uiso   1.00
O449   O     0.43988   0.87291   0.25000   0.00000  Uiso   1.00
O450   O     0.56012   0.79375   0.25001   0.00000  Uiso   1.00
O451   O     0.56012   0.87291   0.25001   0.00000  Uiso   1.00
O452   O     0.43988   0.79375   0.25000   0.00000  Uiso   1.00
O453   O     0.49999   0.87293   0.18513   0.00000  Uiso   1.00
O454   O     0.50001   0.79373   0.31487   0.00000  Uiso   1.00
O455   O     0.50001   0.87293   0.31487   0.00000  Uiso   1.00
O456   O     0.49999   0.79373   0.18513   0.00000  Uiso   1.00
Br457  Br    0.45947   0.69614   0.44572   0.00000  Uiso   1.00
Br458  Br    0.54053   0.97053   0.05428   0.00000  Uiso   1.00
F459   F     0.46526   0.71423   0.04380   0.00000  Uiso   1.00
F460   F     0.53474   0.95244   0.45620   0.00000  Uiso   1.00
Br461  Br    0.43500   0.72240   0.18185   0.00000  Uiso   1.00
Br462  Br    0.56500   0.94426   0.31815   0.00000  Uiso   1.00
Br463  Br    0.56391   0.72316   0.31940   0.00000  Uiso   1.00
Br464  Br    0.43609   0.94350   0.18060   0.00000  Uiso   1.00
C465   C     0.75412   0.83332   0.25001   0.00000  Uiso   1.00
C466   C     0.91255   0.83335   0.24999   0.00000  Uiso   1.00
C467   C     0.81038   0.75287   0.02205   0.00000  Uiso   1.00
C468   C     0.85629   0.91380   0.47795   0.00000  Uiso   1.00
C469   C     0.68793   0.79123   0.25062   0.00000  Uiso   1.00
C470   C     0.97873   0.87544   0.24938   0.00000  Uiso   1.00
C471   C     0.97868   0.79125   0.25046   0.00000  Uiso   1.00
C472   C     0.68799   0.87542   0.24954   0.00000  Uiso   1.00
C473   C     0.95721   0.83335   0.24993   0.00000  Uiso   1.00
C474   C     0.70945   0.83331   0.25007   0.00000  Uiso   1.00
C475   C     0.80691   0.69119   0.22190   0.00000  Uiso   1.00
C476   C     0.85976   0.97548   0.27810   0.00000  Uiso   1.00
C477   C     0.85965   0.69149   0.27822   0.00000  Uiso   1.00
C478   C     0.80701   0.97518   0.22178   0.00000  Uiso   1.00
C479   C     0.83342   0.83328   0.16442   0.00000  Uiso   1.00
C480   C     0.83324   0.83339   0.33558   0.00000  Uiso   1.00
C481   C     0.84368   0.87362   0.40787   0.00000  Uiso   1.00
C482   C     0.82299   0.79305   0.09213   0.00000  Uiso   1.00
C483   C     0.83298   0.83342   0.38402   0.00000  Uiso   1.00
C484   C     0.83369   0.83325   0.11598   0.00000  Uiso   1.00
C485   C     0.82209   0.79312   0.40641   0.00000  Uiso   1.00
C486   C     0.84458   0.87354   0.09359   0.00000  Uiso   1.00
C487   C     0.82168   0.79252   0.45276   0.00000  Uiso   1.00
C488   C     0.84498   0.87414   0.04724   0.00000  Uiso   1.00
C489   C     0.83318   0.83323   0.47672   0.00000  Uiso   1.00
C490   C     0.83349   0.83344   0.02328   0.00000  Uiso   1.00
C491   C     0.84437   0.87378   0.45411   0.00000  Uiso   1.00
C492   C     0.82230   0.79289   0.04589   0.00000  Uiso   1.00
C493   C     0.81004   0.75241   0.47574   0.00000  Uiso   1.00
C494   C     0.85663   0.91425   0.02426   0.00000  Uiso   1.00
Cu495  Cu    0.83333   0.88022   0.25000   0.00000  Uiso   1.00
Cu496  Cu    0.83333   0.78645   0.25000   0.00000  Uiso   1.00
H497   H     0.85187   0.90472   0.39039   0.00000  Uiso   1.00
H498   H     0.81480   0.76194   0.10961   0.00000  Uiso   1.00
H499   H     0.81361   0.76252   0.38729   0.00000  Uiso   1.00
H500   H     0.85305   0.90415   0.11271   0.00000  Uiso   1.00
H501   H     0.70388   0.75829   0.25121   0.00000  Uiso   1.00
H502   H     0.96278   0.90838   0.24879   0.00000  Uiso   1.00
H503   H     0.96269   0.75830   0.25077   0.00000  Uiso   1.00
H504   H     0.70397   0.90836   0.24923   0.00000  Uiso   1.00
N505   N     0.83333   0.95069   0.25000   0.00000  Uiso   1.00
N506   N     0.83333   0.71598   0.25000   0.00000  Uiso   1.00
O507   O     0.77321   0.87291   0.25000   0.00000  Uiso   1.00
O508   O     0.89345   0.79375   0.25001   0.00000  Uiso   1.00
O509   O     0.89345   0.87291   0.25001   0.00000  Uiso   1.00
O510   O     0.77321   0.79375   0.25000   0.00000  Uiso   1.00
O511   O     0.83332   0.87293   0.18513   0.00000  Uiso   1.00
O512   O     0.83334   0.79373   0.31487   0.00000  Uiso   1.00
O513   O     0.83334   0.87293   0.31487   0.00000  Uiso   1.00
O514   O     0.83332   0.79373   0.18513   0.00000  Uiso   1.00
Br515  Br    0.79280   0.69614   0.44572   0.00000  Uiso   1.00
Br516  Br    0.87387   0.97053   0.05428   0.00000  Uiso   1.00
F517   F     0.79859   0.71423   0.04380   0.00000  Uiso   1.00
F518   F     0.86808   0.95244   0.45620   0.00000  Uiso   1.00
Br519  Br    0.76834   0.72240   0.18185   0.00000  Uiso   1.00
Br520  Br    0.89833   0.94426   0.31815   0.00000  Uiso   1.00
Br521  Br    0.89724   0.72316   0.31940   0.00000  Uiso   1.00
Br522  Br    0.76943   0.94350   0.18060   0.00000  Uiso   1.00
C523   C     0.08745   0.16665   0.75001   0.00000  Uiso   1.00
C524   C     0.24588   0.16668   0.74999   0.00000  Uiso   1.00
C525   C     0.14371   0.08620   0.52205   0.00000  Uiso   1.00
C526   C     0.18962   0.24713   0.97795   0.00000  Uiso   1.00
C527   C     0.02127   0.12456   0.75062   0.00000  Uiso   1.00
C528   C     0.31206   0.20877   0.74938   0.00000  Uiso   1.00
C529   C     0.31201   0.12458   0.75046   0.00000  Uiso   1.00
C530   C     0.02132   0.20875   0.74954   0.00000  Uiso   1.00
C531   C     0.29055   0.16668   0.74993   0.00000  Uiso   1.00
C532   C     0.04279   0.16665   0.75007   0.00000  Uiso   1.00
C533   C     0.14024   0.02452   0.72190   0.00000  Uiso   1.00
C534   C     0.19309   0.30881   0.77810   0.00000  Uiso   1.00
C535   C     0.19299   0.02482   0.77822   0.00000  Uiso   1.00
C536   C     0.14035   0.30851   0.72178   0.00000  Uiso   1.00
C537   C     0.16676   0.16661   0.66442   0.00000  Uiso   1.00
C538   C     0.16658   0.16672   0.83558   0.00000  Uiso   1.00
C539   C     0.17701   0.20695   0.90787   0.00000  Uiso   1.00
C540   C     0.15632   0.12638   0.59213   0.00000  Uiso   1.00
C541   C     0.16631   0.16675   0.88402   0.00000  Uiso   1.00
C542   C     0.16702   0.16658   0.61598   0.00000  Uiso   1.00
C543   C     0.15542   0.12646   0.90641   0.00000  Uiso   1.00
C544   C     0.17791   0.20688   0.59359   0.00000  Uiso   1.00
C545   C     0.15502   0.12586   0.95276   0.00000  Uiso   1.00
C546   C     0.17832   0.20748   0.54724   0.00000  Uiso   1.00
C547   C     0.16651   0.16656   0.97672   0.00000  Uiso   1.00
C548   C     0.16682   0.16677   0.52328   0.00000  Uiso   1.00
C549   C     0.17770   0.20711   0.95411   0.00000  Uiso   1.00
C550   C     0.15563   0.12622   0.54589   0.00000  Uiso   1.00
C551   C     0.14337   0.08575   0.97574   0.00000  Uiso   1.00
C552   C     0.18996   0.24759   0.52426   0.00000  Uiso   1.00
Cu553  Cu    0.16667   0.21355   0.75000   0.00000  Uiso   1.00
Cu554  Cu    0.16667   0.11978   0.75000   0.00000  Uiso   1.00
H555   H     0.18520   0.23806   0.89039   0.00000  Uiso   1.00
H556   H     0.14813   0.09528   0.60961   0.00000  Uiso   1.00
H557   H     0.14695   0.09585   0.88729   0.00000  Uiso   1.00
H558   H     0.18639   0.23748   0.61271   0.00000  Uiso   1.00
H559   H     0.03722   0.09162   0.75121   0.00000  Uiso   1.00
H560   H     0.29612   0.24171   0.74879   0.00000  Uiso   1.00
H561   H     0.29602   0.09164   0.75077   0.00000  Uiso   1.00
H562   H     0.03731   0.24170   0.74923   0.00000  Uiso   1.00
N563   N     0.16667   0.28402   0.75000   0.00000  Uiso   1.00
N564   N     0.16667   0.04931   0.75000   0.00000  Uiso   1.00
O565   O     0.10655   0.20625   0.75000   0.00000  Uiso   1.00
O566   O     0.22679   0.12709   0.75001   0.00000  Uiso   1.00
O567   O     0.22679   0.20625   0.75001   0.00000  Uiso   1.00
O568   O     0.10655   0.12709   0.75000   0.00000  Uiso   1.00
O569   O     0.16666   0.20627   0.68513   0.00000  Uiso   1.00
O570   O     0.16668   0.12707   0.81487   0.00000  Uiso   1.00
O571   O     0.16668   0.20627   0.81487   0.00000  Uiso   1.00
O572   O     0.16666   0.12707   0.68513   0.00000  Uiso   1.00
Br573  Br    0.12613   0.02947   0.94572   0.00000  Uiso   1.00
Br574  Br    0.20720   0.30386   0.55428   0.00000  Uiso   1.00
F575   F     0.13192   0.04756   0.54380   0.00000  Uiso   1.00
F576   F     0.20141   0.28577   0.95620   0.00000  Uiso   1.00
Br577  Br    0.10167   0.05574   0.68185   0.00000  Uiso   1.00
Br578  Br    0.23166   0.27760   0.81815   0.00000  Uiso   1.00
Br579  Br    0.23057   0.05649   0.81940   0.00000  Uiso   1.00
Br580  Br    0.10276   0.27684   0.68060   0.00000  Uiso   1.00
C581   C     0.42079   0.16665   0.75001   0.00000  Uiso   1.00
C582   C     0.57921   0.16668   0.74999   0.00000  Uiso   1.00
C583   C     0.47705   0.08620   0.52205   0.00000  Uiso   1.00
C584   C     0.52295   0.24713   0.97795   0.00000  Uiso   1.00
C585   C     0.35460   0.12456   0.75062   0.00000  Uiso   1.00
C586   C     0.64540   0.20877   0.74938   0.00000  Uiso   1.00
C587   C     0.64535   0.12458   0.75046   0.00000  Uiso   1.00
C588   C     0.35465   0.20875   0.74954   0.00000  Uiso   1.00
C589   C     0.62388   0.16668   0.74993   0.00000  Uiso   1.00
C590   C     0.37612   0.16665   0.75007   0.00000  Uiso   1.00
C591   C     0.47357   0.02452   0.72190   0.00000  Uiso   1.00
C592   C     0.52643   0.30881   0.77810   0.00000  Uiso   1.00
C593   C     0.52632   0.02482   0.77822   0.00000  Uiso   1.00
C594   C     0.47368   0.30851   0.72178   0.00000  Uiso   1.00
C595   C     0.50009   0.16661   0.66442   0.00000  Uiso   1.00
C596   C     0.49991   0.16672   0.83558   0.00000  Uiso   1.00
C597   C     0.51035   0.20695   0.90787   0.00000  Uiso   1.00
C598   C     0.48965   0.12638   0.59213   0.00000  Uiso   1.00
C599   C     0.49964   0.16675   0.88402   0.00000  Uiso   1.00
C600   C     0.50036   0.16658   0.61598   0.00000  Uiso   1.00
C601   C     0.48876   0.12646   0.90641   0.00000  Uiso   1.00
C602   C     0.51124   0.20688   0.59359   0.00000  Uiso   1.00
C603   C     0.48835   0.12586   0.95276   0.00000  Uiso   1.00
C604   C     0.51165   0.20748   0.54724   0.00000  Uiso   1.00
C605   C     0.49984   0.16656   0.97672   0.00000  Uiso   1.00
C606   C     0.50016   0.16677   0.52328   0.00000  Uiso   1.00
C607   C     0.51104   0.20711   0.95411   0.00000  Uiso   1.00
C608   C     0.48896   0.12622   0.54589   0.00000  Uiso   1.00
C609   C     0.47670   0.08575   0.97574   0.00000  Uiso   1.00
C610   C     0.52330   0.24759   0.52426   0.00000  Uiso   1.00
Cu611  Cu    0.50000   0.21355   0.75000   0.00000  Uiso   1.00
Cu612  Cu    0.50000   0.11978   0.75000   0.00000  Uiso   1.00
H613   H     0.51853   0.23806   0.89039   0.00000  Uiso   1.00
H614   H     0.48147   0.09528   0.60961   0.00000  Uiso   1.00
H615   H     0.48028   0.09585   0.88729   0.00000  Uiso   1.00
H616   H     0.51972   0.23748   0.61271   0.00000  Uiso   1.00
H617   H     0.37055   0.09162   0.75121   0.00000  Uiso   1.00
H618   H     0.62945   0.24171   0.74879   0.00000  Uiso   1.00
H619   H     0.62936   0.09164   0.75077   0.00000  Uiso   1.00
H620   H     0.37064   0.24170   0.74923   0.00000  Uiso   1.00
N621   N     0.50000   0.28402   0.75000   0.00000  Uiso   1.00
N622   N     0.50000   0.04931   0.75000   0.00000  Uiso   1.00
O623   O     0.43988   0.20625   0.75000   0.00000  Uiso   1.00
O624   O     0.56012   0.12709   0.75001   0.00000  Uiso   1.00
O625   O     0.56012   0.20625   0.75001   0.00000  Uiso   1.00
O626   O     0.43988   0.12709   0.75000   0.00000  Uiso   1.00
O627   O     0.49999   0.20627   0.68513   0.00000  Uiso   1.00
O628   O     0.50001   0.12707   0.81487   0.00000  Uiso   1.00
O629   O     0.50001   0.20627   0.81487   0.00000  Uiso   1.00
O630   O     0.49999   0.12707   0.68513   0.00000  Uiso   1.00
Br631  Br    0.45947   0.02947   0.94572   0.00000  Uiso   1.00
Br632  Br    0.54053   0.30386   0.55428   0.00000  Uiso   1.00
F633   F     0.46526   0.04756   0.54380   0.00000  Uiso   1.00
F634   F     0.53474   0.28577   0.95620   0.00000  Uiso   1.00
Br635  Br    0.43500   0.05574   0.68185   0.00000  Uiso   1.00
Br636  Br    0.56500   0.27760   0.81815   0.00000  Uiso   1.00
Br637  Br    0.56391   0.05649   0.81940   0.00000  Uiso   1.00
Br638  Br    0.43609   0.27684   0.68060   0.00000  Uiso   1.00
C639   C     0.75412   0.16665   0.75001   0.00000  Uiso   1.00
C640   C     0.91255   0.16668   0.74999   0.00000  Uiso   1.00
C641   C     0.81038   0.08620   0.52205   0.00000  Uiso   1.00
C642   C     0.85629   0.24713   0.97795   0.00000  Uiso   1.00
C643   C     0.68793   0.12456   0.75062   0.00000  Uiso   1.00
C644   C     0.97873   0.20877   0.74938   0.00000  Uiso   1.00
C645   C     0.97868   0.12458   0.75046   0.00000  Uiso   1.00
C646   C     0.68799   0.20875   0.74954   0.00000  Uiso   1.00
C647   C     0.95721   0.16668   0.74993   0.00000  Uiso   1.00
C648   C     0.70945   0.16665   0.75007   0.00000  Uiso   1.00
C649   C     0.80691   0.02452   0.72190   0.00000  Uiso   1.00
C650   C     0.85976   0.30881   0.77810   0.00000  Uiso   1.00
C651   C     0.85965   0.02482   0.77822   0.00000  Uiso   1.00
C652   C     0.80701   0.30851   0.72178   0.00000  Uiso   1.00
C653   C     0.83342   0.16661   0.66442   0.00000  Uiso   1.00
C654   C     0.83324   0.16672   0.83558   0.00000  Uiso   1.00
C655   C     0.84368   0.20695   0.90787   0.00000  Uiso   1.00
C656   C     0.82299   0.12638   0.59213   0.00000  Uiso   1.00
C657   C     0.83298   0.16675   0.88402   0.00000  Uiso   1.00
C658   C     0.83369   0.16658   0.61598   0.00000  Uiso   1.00
C659   C     0.82209   0.12646   0.90641   0.00000  Uiso   1.00
C660   C     0.84458   0.20688   0.59359   0.00000  Uiso   1.00
C661   C     0.82168   0.12586   0.95276   0.00000  Uiso   1.00
C662   C     0.84498   0.20748   0.54724   0.00000  Uiso   1.00
C663   C     0.83318   0.16656   0.97672   0.00000  Uiso   1.00
C664   C     0.83349   0.16677   0.52328   0.00000  Uiso   1.00
C665   C     0.84437   0.20711   0.95411   0.00000  Uiso   1.00
C666   C     0.82230   0.12622   0.54589   0.00000  Uiso   1.00
C667   C     0.81004   0.08575   0.97574   0.00000  Uiso   1.00
C668   C     0.85663   0.24759   0.52426   0.00000  Uiso   1.00
Cu669  Cu    0.83333   0.21355   0.75000   0.00000  Uiso   1.00
Cu670  Cu    0.83333   0.11978   0.75000   0.00000  Uiso   1.00
H671   H     0.85187   0.23806   0.89039   0.00000  Uiso   1.00
H672   H     0.81480   0.09528   0.60961   0.00000  Uiso   1.00
H673   H     0.81361   0.09585   0.88729   0.00000  Uiso   1.00
H674   H     0.85305   0.23748   0.61271   0.00000  Uiso   1.00
H675   H     0.70388   0.09162   0.75121   0.00000  Uiso   1.00
H676   H     0.96278   0.24171   0.74879   0.00000  Uiso   1.00
H677   H     0.96269   0.09164   0.75077   0.00000  Uiso   1.00
H678   H     0.70397   0.24170   0.74923   0.00000  Uiso   1.00
N679   N     0.83333   0.28402   0.75000   0.00000  Uiso   1.00
N680   N     0.83333   0.04931   0.75000   0.00000  Uiso   1.00
O681   O     0.77321   0.20625   0.75000   0.00000  Uiso   1.00
O682   O     0.89345   0.12709   0.75001   0.00000  Uiso   1.00
O683   O     0.89345   0.20625   0.75001   0.00000  Uiso   1.00
O684   O     0.77321   0.12709   0.75000   0.00000  Uiso   1.00
O685   O     0.83332   0.20627   0.68513   0.00000  Uiso   1.00
O686   O     0.83334   0.12707   0.81487   0.00000  Uiso   1.00
O687   O     0.83334   0.20627   0.81487   0.00000  Uiso   1.00
O688   O     0.83332   0.12707   0.68513   0.00000  Uiso   1.00
Br689  Br    0.79280   0.02947   0.94572   0.00000  Uiso   1.00
Br690  Br    0.87387   0.30386   0.55428   0.00000  Uiso   1.00
F691   F     0.79859   0.04756   0.54380   0.00000  Uiso   1.00
F692   F     0.86808   0.28577   0.95620   0.00000  Uiso   1.00
Br693  Br    0.76834   0.05574   0.68185   0.00000  Uiso   1.00
Br694  Br    0.89833   0.27760   0.81815   0.00000  Uiso   1.00
Br695  Br    0.89724   0.05649   0.81940   0.00000  Uiso   1.00
Br696  Br    0.76943   0.27684   0.68060   0.00000  Uiso   1.00
C697   C     0.08745   0.49998   0.75001   0.00000  Uiso   1.00
C698   C     0.24588   0.50002   0.74999   0.00000  Uiso   1.00
C699   C     0.14371   0.41953   0.52205   0.00000  Uiso   1.00
C700   C     0.18962   0.58047   0.97795   0.00000  Uiso   1.00
C701   C     0.02127   0.45790   0.75062   0.00000  Uiso   1.00
C702   C     0.31206   0.54210   0.74938   0.00000  Uiso   1.00
C703   C     0.31201   0.45791   0.75046   0.00000  Uiso   1.00
C704   C     0.02132   0.54209   0.74954   0.00000  Uiso   1.00
C705   C     0.29055   0.50002   0.74993   0.00000  Uiso   1.00
C706   C     0.04279   0.49998   0.75007   0.00000  Uiso   1.00
C707   C     0.14024   0.35786   0.72190   0.00000  Uiso   1.00
C708   C     0.19309   0.64214   0.77810   0.00000  Uiso   1.00
C709   C     0.19299   0.35816   0.77822   0.00000  Uiso   1.00
C710   C     0.14035   0.64184   0.72178   0.00000  Uiso   1.00
C711   C     0.16676   0.49995   0.66442   0.00000  Uiso   1.00
C712   C     0.16658   0.50005   0.83558   0.00000  Uiso   1.00
C713   C     0.17701   0.54028   0.90787   0.00000  Uiso   1.00
C714   C     0.15632   0.45972   0.59213   0.00000  Uiso   1.00
C715   C     0.16631   0.50008   0.88402   0.00000  Uiso   1.00
C716   C     0.16702   0.49992   0.61598   0.00000  Uiso   1.00
C717   C     0.15542   0.45979   0.90641   0.00000  Uiso   1.00
C718   C     0.17791   0.54021   0.59359   0.00000  Uiso   1.00
C719   C     0.15502   0.45919   0.95276   0.00000  Uiso   1.00
C720   C     0.17832   0.54081   0.54724   0.00000  Uiso   1.00
C721   C     0.16651   0.49989   0.97672   0.00000  Uiso   1.00
C722   C     0.16682   0.50011   0.52328   0.00000  Uiso   1.00
C723   C     0.17770   0.54045   0.95411   0.00000  Uiso   1.00
C724   C     0.15563   0.45955   0.54589   0.00000  Uiso   1.00
C725   C     0.14337   0.41908   0.97574   0.00000  Uiso   1.00
C726   C     0.18996   0.58092   0.52426   0.00000  Uiso   1.00
Cu727  Cu    0.16667   0.54689   0.75000   0.00000  Uiso   1.00
Cu728  Cu    0.16667   0.45311   0.75000   0.00000  Uiso   1.00
H729   H     0.18520   0.57139   0.89039   0.00000  Uiso   1.00
H730   H     0.14813   0.42861   0.60961   0.00000  Uiso   1.00
H731   H     0.14695   0.42919   0.88729   0.00000  Uiso   1.00
H732   H     0.18639   0.57081   0.61271   0.00000  Uiso   1.00
H733   H     0.03722   0.42496   0.75121   0.00000  Uiso   1.00
H734   H     0.29612   0.57504   0.74879   0.00000  Uiso   1.00
H735   H     0.29602   0.42497   0.75077   0.00000  Uiso   1.00
H736   H     0.03731   0.57503   0.74923   0.00000  Uiso   1.00
N737   N     0.16667   0.61736   0.75000   0.00000  Uiso   1.00
N738   N     0.16667   0.38264   0.75000   0.00000  Uiso   1.00
O739   O     0.10655   0.53958   0.75000   0.00000  Uiso   1.00
O740   O     0.22679   0.46042   0.75001   0.00000  Uiso   1.00
O741   O     0.22679   0.53958   0.75001   0.00000  Uiso   1.00
O742   O     0.10655   0.46042   0.75000   0.00000  Uiso   1.00
O743   O     0.16666   0.53960   0.68513   0.00000  Uiso   1.00
O744   O     0.16668   0.46040   0.81487   0.00000  Uiso   1.00
O745   O     0.16668   0.53960   0.81487   0.00000  Uiso   1.00
O746   O     0.16666   0.46040   0.68513   0.00000  Uiso   1.00
Br747  Br    0.12613   0.36280   0.94572   0.00000  Uiso   1.00
Br748  Br    0.20720   0.63719   0.55428   0.00000  Uiso   1.00
F749   F     0.13192   0.38089   0.54380   0.00000  Uiso   1.00
F750   F     0.20141   0.61911   0.95620   0.00000  Uiso   1.00
Br751  Br    0.10167   0.38907   0.68185   0.00000  Uiso   1.00
Br752  Br    0.23166   0.61093   0.81815   0.00000  Uiso   1.00
Br753  Br    0.23057   0.38983   0.81940   0.00000  Uiso   1.00
Br754  Br    0.10276   0.61017   0.68060   0.00000  Uiso   1.00
C755   C     0.42079   0.49998   0.75001   0.00000  Uiso   1.00
C756   C     0.57921   0.50002   0.74999   0.00000  Uiso   1.00
C757   C     0.47705   0.41953   0.52205   0.00000  Uiso   1.00
C758   C     0.52295   0.58047   0.97795   0.00000  Uiso   1.00
C759   C     0.35460   0.45790   0.75062   0.00000  Uiso   1.00
C760   C     0.64540   0.54210   0.74938   0.00000  Uiso   1.00
C761   C     0.64535   0.45791   0.75046   0.00000  Uiso   1.00
C762   C     0.35465   0.54209   0.74954   0.00000  Uiso   1.00
C763   C     0.62388   0.50002   0.74993   0.00000  Uiso   1.00
C764   C     0.37612   0.49998   0.75007   0.00000  Uiso   1.00
C765   C     0.47357   0.35786   0.72190   0.00000  Uiso   1.00
C766   C     0.52643   0.64214   0.77810   0.00000  Uiso   1.00
C767   C     0.52632   0.35816   0.77822   0.00000  Uiso   1.00
C768   C     0.47368   0.64184   0.72178   0.00000  Uiso   1.00
C769   C     0.50009   0.49995   0.66442   0.00000  Uiso   1.00
C770   C     0.49991   0.50005   0.83558   0.00000  Uiso   1.00
C771   C     0.51035   0.54028   0.90787   0.00000  Uiso   1.00
C772   C     0.48965   0.45972   0.59213   0.00000  Uiso   1.00
C773   C     0.49964   0.50008   0.88402   0.00000  Uiso   1.00
C774   C     0.50036   0.49992   0.61598   0.00000  Uiso   1.00
C775   C     0.48876   0.45979   0.90641   0.00000  Uiso   1.00
C776   C     0.51124   0.54021   0.59359   0.00000  Uiso   1.00
C777   C     0.48835   0.45919   0.95276   0.00000  Uiso   1.00
C778   C     0.51165   0.54081   0.54724   0.00000  Uiso   1.00
C779   C     0.49984   0.49989   0.97672   0.00000  Uiso   1.00
C780   C     0.50016   0.50011   0.52328   0.00000  Uiso   1.00
C781   C     0.51104   0.54045   0.95411   0.00000  Uiso   1.00
C782   C     0.48896   0.45955   0.54589   0.00000  Uiso   1.00
C783   C     0.47670   0.41908   0.97574   0.00000  Uiso   1.00
C784   C     0.52330   0.58092   0.52426   0.00000  Uiso   1.00
Cu785  Cu    0.50000   0.54689   0.75000   0.00000  Uiso   1.00
Cu786  Cu    0.50000   0.45311   0.75000   0.00000  Uiso   1.00
H787   H     0.51853   0.57139   0.89039   0.00000  Uiso   1.00
H788   H     0.48147   0.42861   0.60961   0.00000  Uiso   1.00
H789   H     0.48028   0.42919   0.88729   0.00000  Uiso   1.00
H790   H     0.51972   0.57081   0.61271   0.00000  Uiso   1.00
H791   H     0.37055   0.42496   0.75121   0.00000  Uiso   1.00
H792   H     0.62945   0.57504   0.74879   0.00000  Uiso   1.00
H793   H     0.62936   0.42497   0.75077   0.00000  Uiso   1.00
H794   H     0.37064   0.57503   0.74923   0.00000  Uiso   1.00
N795   N     0.50000   0.61736   0.75000   0.00000  Uiso   1.00
N796   N     0.50000   0.38264   0.75000   0.00000  Uiso   1.00
O797   O     0.43988   0.53958   0.75000   0.00000  Uiso   1.00
O798   O     0.56012   0.46042   0.75001   0.00000  Uiso   1.00
O799   O     0.56012   0.53958   0.75001   0.00000  Uiso   1.00
O800   O     0.43988   0.46042   0.75000   0.00000  Uiso   1.00
O801   O     0.49999   0.53960   0.68513   0.00000  Uiso   1.00
O802   O     0.50001   0.46040   0.81487   0.00000  Uiso   1.00
O803   O     0.50001   0.53960   0.81487   0.00000  Uiso   1.00
O804   O     0.49999   0.46040   0.68513   0.00000  Uiso   1.00
Br805  Br    0.45947   0.36280   0.94572   0.00000  Uiso   1.00
Br806  Br    0.54053   0.63719   0.55428   0.00000  Uiso   1.00
F807   F     0.46526   0.38089   0.54380   0.00000  Uiso   1.00
F808   F     0.53474   0.61911   0.95620   0.00000  Uiso   1.00
Br809  Br    0.43500   0.38907   0.68185   0.00000  Uiso   1.00
Br810  Br    0.56500   0.61093   0.81815   0.00000  Uiso   1.00
Br811  Br    0.56391   0.38983   0.81940   0.00000  Uiso   1.00
Br812  Br    0.43609   0.61017   0.68060   0.00000  Uiso   1.00
C813   C     0.75412   0.49998   0.75001   0.00000  Uiso   1.00
C814   C     0.91255   0.50002   0.74999   0.00000  Uiso   1.00
C815   C     0.81038   0.41953   0.52205   0.00000  Uiso   1.00
C816   C     0.85629   0.58047   0.97795   0.00000  Uiso   1.00
C817   C     0.68793   0.45790   0.75062   0.00000  Uiso   1.00
C818   C     0.97873   0.54210   0.74938   0.00000  Uiso   1.00
C819   C     0.97868   0.45791   0.75046   0.00000  Uiso   1.00
C820   C     0.68799   0.54209   0.74954   0.00000  Uiso   1.00
C821   C     0.95721   0.50002   0.74993   0.00000  Uiso   1.00
C822   C     0.70945   0.49998   0.75007   0.00000  Uiso   1.00
C823   C     0.80691   0.35786   0.72190   0.00000  Uiso   1.00
C824   C     0.85976   0.64214   0.77810   0.00000  Uiso   1.00
C825   C     0.85965   0.35816   0.77822   0.00000  Uiso   1.00
C826   C     0.80701   0.64184   0.72178   0.00000  Uiso   1.00
C827   C     0.83342   0.49995   0.66442   0.00000  Uiso   1.00
C828   C     0.83324   0.50005   0.83558   0.00000  Uiso   1.00
C829   C     0.84368   0.54028   0.90787   0.00000  Uiso   1.00
C830   C     0.82299   0.45972   0.59213   0.00000  Uiso   1.00
C831   C     0.83298   0.50008   0.88402   0.00000  Uiso   1.00
C832   C     0.83369   0.49992   0.61598   0.00000  Uiso   1.00
C833   C     0.82209   0.45979   0.90641   0.00000  Uiso   1.00
C834   C     0.84458   0.54021   0.59359   0.00000  Uiso   1.00
C835   C     0.82168   0.45919   0.95276   0.00000  Uiso   1.00
C836   C     0.84498   0.54081   0.54724   0.00000  Uiso   1.00
C837   C     0.83318   0.49989   0.97672   0.00000  Uiso   1.00
C838   C     0.83349   0.50011   0.52328   0.00000  Uiso   1.00
C839   C     0.84437   0.54045   0.95411   0.00000  Uiso   1.00
C840   C     0.82230   0.45955   0.54589   0.00000  Uiso   1.00
C841   C     0.81004   0.41908   0.97574   0.00000  Uiso   1.00
C842   C     0.85663   0.58092   0.52426   0.00000  Uiso   1.00
Cu843  Cu    0.83333   0.54689   0.75000   0.00000  Uiso   1.00
Cu844  Cu    0.83333   0.45311   0.75000   0.00000  Uiso   1.00
H845   H     0.85187   0.57139   0.89039   0.00000  Uiso   1.00
H846   H     0.81480   0.42861   0.60961   0.00000  Uiso   1.00
H847   H     0.81361   0.42919   0.88729   0.00000  Uiso   1.00
H848   H     0.85305   0.57081   0.61271   0.00000  Uiso   1.00
H849   H     0.70388   0.42496   0.75121   0.00000  Uiso   1.00
H850   H     0.96278   0.57504   0.74879   0.00000  Uiso   1.00
H851   H     0.96269   0.42497   0.75077   0.00000  Uiso   1.00
H852   H     0.70397   0.57503   0.74923   0.00000  Uiso   1.00
N853   N     0.83333   0.61736   0.75000   0.00000  Uiso   1.00
N854   N     0.83333   0.38264   0.75000   0.00000  Uiso   1.00
O855   O     0.77321   0.53958   0.75000   0.00000  Uiso   1.00
O856   O     0.89345   0.46042   0.75001   0.00000  Uiso   1.00
O857   O     0.89345   0.53958   0.75001   0.00000  Uiso   1.00
O858   O     0.77321   0.46042   0.75000   0.00000  Uiso   1.00
O859   O     0.83332   0.53960   0.68513   0.00000  Uiso   1.00
O860   O     0.83334   0.46040   0.81487   0.00000  Uiso   1.00
O861   O     0.83334   0.53960   0.81487   0.00000  Uiso   1.00
O862   O     0.83332   0.46040   0.68513   0.00000  Uiso   1.00
Br863  Br    0.79280   0.36280   0.94572   0.00000  Uiso   1.00
Br864  Br    0.87387   0.63719   0.55428   0.00000  Uiso   1.00
F865   F     0.79859   0.38089   0.54380   0.00000  Uiso   1.00
F866   F     0.86808   0.61911   0.95620   0.00000  Uiso   1.00
Br867  Br    0.76834   0.38907   0.68185   0.00000  Uiso   1.00
Br868  Br    0.89833   0.61093   0.81815   0.00000  Uiso   1.00
Br869  Br    0.89724   0.38983   0.81940   0.00000  Uiso   1.00
Br870  Br    0.76943   0.61017   0.68060   0.00000  Uiso   1.00
C871   C     0.08745   0.83332   0.75001   0.00000  Uiso   1.00
C872   C     0.24588   0.83335   0.74999   0.00000  Uiso   1.00
C873   C     0.14371   0.75287   0.52205   0.00000  Uiso   1.00
C874   C     0.18962   0.91380   0.97795   0.00000  Uiso   1.00
C875   C     0.02127   0.79123   0.75062   0.00000  Uiso   1.00
C876   C     0.31206   0.87544   0.74938   0.00000  Uiso   1.00
C877   C     0.31201   0.79125   0.75046   0.00000  Uiso   1.00
C878   C     0.02132   0.87542   0.74954   0.00000  Uiso   1.00
C879   C     0.29055   0.83335   0.74993   0.00000  Uiso   1.00
C880   C     0.04279   0.83331   0.75007   0.00000  Uiso   1.00
C881   C     0.14024   0.69119   0.72190   0.00000  Uiso   1.00
C882   C     0.19309   0.97548   0.77810   0.00000  Uiso   1.00
C883   C     0.19299   0.69149   0.77822   0.00000  Uiso   1.00
C884   C     0.14035   0.97518   0.72178   0.00000  Uiso   1.00
C885   C     0.16676   0.83328   0.66442   0.00000  Uiso   1.00
C886   C     0.16658   0.83339   0.83558   0.00000  Uiso   1.00
C887   C     0.17701   0.87362   0.90787   0.00000  Uiso   1.00
C888   C     0.15632   0.79305   0.59213   0.00000  Uiso   1.00
C889   C     0.16631   0.83342   0.88402   0.00000  Uiso   1.00
C890   C     0.16702   0.83325   0.61598   0.00000  Uiso   1.00
C891   C     0.15542   0.79312   0.90641   0.00000  Uiso   1.00
C892   C     0.17791   0.87354   0.59359   0.00000  Uiso   1.00
C893   C     0.15502   0.79252   0.95276   0.00000  Uiso   1.00
C894   C     0.17832   0.87414   0.54724   0.00000  Uiso   1.00
C895   C     0.16651   0.83323   0.97672   0.00000  Uiso   1.00
C896   C     0.16682   0.83344   0.52328   0.00000  Uiso   1.00
C897   C     0.17770   0.87378   0.95411   0.00000  Uiso   1.00
C898   C     0.15563   0.79289   0.54589   0.00000  Uiso   1.00
C899   C     0.14337   0.75241   0.97574   0.00000  Uiso   1.00
C900   C     0.18996   0.91425   0.52426   0.00000  Uiso   1.00
Cu901  Cu    0.16667   0.88022   0.75000   0.00000  Uiso   1.00
Cu902  Cu    0.16667   0.78645   0.75000   0.00000  Uiso   1.00
H903   H     0.18520   0.90472   0.89039   0.00000  Uiso   1.00
H904   H     0.14813   0.76194   0.60961   0.00000  Uiso   1.00
H905   H     0.14695   0.76252   0.88729   0.00000  Uiso   1.00
H906   H     0.18639   0.90415   0.61271   0.00000  Uiso   1.00
H907   H     0.03722   0.75829   0.75121   0.00000  Uiso   1.00
H908   H     0.29612   0.90838   0.74879   0.00000  Uiso   1.00
H909   H     0.29602   0.75830   0.75077   0.00000  Uiso   1.00
H910   H     0.03731   0.90836   0.74923   0.00000  Uiso   1.00
N911   N     0.16667   0.95069   0.75000   0.00000  Uiso   1.00
N912   N     0.16667   0.71598   0.75000   0.00000  Uiso   1.00
O913   O     0.10655   0.87291   0.75000   0.00000  Uiso   1.00
O914   O     0.22679   0.79375   0.75001   0.00000  Uiso   1.00
O915   O     0.22679   0.87291   0.75001   0.00000  Uiso   1.00
O916   O     0.10655   0.79375   0.75000   0.00000  Uiso   1.00
O917   O     0.16666   0.87293   0.68513   0.00000  Uiso   1.00
O918   O     0.16668   0.79373   0.81487   0.00000  Uiso   1.00
O919   O     0.16668   0.87293   0.81487   0.00000  Uiso   1.00
O920   O     0.16666   0.79373   0.68513   0.00000  Uiso   1.00
Br921  Br    0.12613   0.69614   0.94572   0.00000  Uiso   1.00
Br922  Br    0.20720   0.97053   0.55428   0.00000  Uiso   1.00
F923   F     0.13192   0.71423   0.54380   0.00000  Uiso   1.00
F924   F     0.20141   0.95244   0.95620   0.00000  Uiso   1.00
Br925  Br    0.10167   0.72240   0.68185   0.00000  Uiso   1.00
Br926  Br    0.23166   0.94426   0.81815   0.00000  Uiso   1.00
Br927  Br    0.23057   0.72316   0.81940   0.00000  Uiso   1.00
Br928  Br    0.10276   0.94350   0.68060   0.00000  Uiso   1.00
C929   C     0.42079   0.83332   0.75001   0.00000  Uiso   1.00
C930   C     0.57921   0.83335   0.74999   0.00000  Uiso   1.00
C931   C     0.47705   0.75287   0.52205   0.00000  Uiso   1.00
C932   C     0.52295   0.91380   0.97795   0.00000  Uiso   1.00
C933   C     0.35460   0.79123   0.75062   0.00000  Uiso   1.00
C934   C     0.64540   0.87544   0.74938   0.00000  Uiso   1.00
C935   C     0.64535   0.79125   0.75046   0.00000  Uiso   1.00
C936   C     0.35465   0.87542   0.74954   0.00000  Uiso   1.00
C937   C     0.62388   0.83335   0.74993   0.00000  Uiso   1.00
C938   C     0.37612   0.83331   0.75007   0.00000  Uiso   1.00
C939   C     0.47357   0.69119   0.72190   0.00000  Uiso   1.00
C940   C     0.52643   0.97548   0.77810   0.00000  Uiso   1.00
C941   C     0.52632   0.69149   0.77822   0.00000  Uiso   1.00
C942   C     0.47368   0.97518   0.72178   0.00000  Uiso   1.00
C943   C     0.50009   0.83328   0.66442   0.00000  Uiso   1.00
C944   C     0.49991   0.83339   0.83558   0.00000  Uiso   1.00
C945   C     0.51035   0.87362   0.90787   0.00000  Uiso   1.00
C946   C     0.48965   0.79305   0.59213   0.00000  Uiso   1.00
C947   C     0.49964   0.83342   0.88402   0.00000  Uiso   1.00
C948   C     0.50036   0.83325   0.61598   0.00000  Uiso   1.00
C949   C     0.48876   0.79312   0.90641   0.00000  Uiso   1.00
C950   C     0.51124   0.87354   0.59359   0.00000  Uiso   1.00
C951   C     0.48835   0.79252   0.95276   0.00000  Uiso   1.00
C952   C     0.51165   0.87414   0.54724   0.00000  Uiso   1.00
C953   C     0.49984   0.83323   0.97672   0.00000  Uiso   1.00
C954   C     0.50016   0.83344   0.52328   0.00000  Uiso   1.00
C955   C     0.51104   0.87378   0.95411   0.00000  Uiso   1.00
C956   C     0.48896   0.79289   0.54589   0.00000  Uiso   1.00
C957   C     0.47670   0.75241   0.97574   0.00000  Uiso   1.00
C958   C     0.52330   0.91425   0.52426   0.00000  Uiso   1.00
Cu959  Cu    0.50000   0.88022   0.75000   0.00000  Uiso   1.00
Cu960  Cu    0.50000   0.78645   0.75000   0.00000  Uiso   1.00
H961   H     0.51853   0.90472   0.89039   0.00000  Uiso   1.00
H962   H     0.48147   0.76194   0.60961   0.00000  Uiso   1.00
H963   H     0.48028   0.76252   0.88729   0.00000  Uiso   1.00
H964   H     0.51972   0.90415   0.61271   0.00000  Uiso   1.00
H965   H     0.37055   0.75829   0.75121   0.00000  Uiso   1.00
H966   H     0.62945   0.90838   0.74879   0.00000  Uiso   1.00
H967   H     0.62936   0.75830   0.75077   0.00000  Uiso   1.00
H968   H     0.37064   0.90836   0.74923   0.00000  Uiso   1.00
N969   N     0.50000   0.95069   0.75000   0.00000  Uiso   1.00
N970   N     0.50000   0.71598   0.75000   0.00000  Uiso   1.00
O971   O     0.43988   0.87291   0.75000   0.00000  Uiso   1.00
O972   O     0.56012   0.79375   0.75001   0.00000  Uiso   1.00
O973   O     0.56012   0.87291   0.75001   0.00000  Uiso   1.00
O974   O     0.43988   0.79375   0.75000   0.00000  Uiso   1.00
O975   O     0.49999   0.87293   0.68513   0.00000  Uiso   1.00
O976   O     0.50001   0.79373   0.81487   0.00000  Uiso   1.00
O977   O     0.50001   0.87293   0.81487   0.00000  Uiso   1.00
O978   O     0.49999   0.79373   0.68513   0.00000  Uiso   1.00
Br979  Br    0.45947   0.69614   0.94572   0.00000  Uiso   1.00
Br980  Br    0.54053   0.97053   0.55428   0.00000  Uiso   1.00
F981   F     0.46526   0.71423   0.54380   0.00000  Uiso   1.00
F982   F     0.53474   0.95244   0.95620   0.00000  Uiso   1.00
Br983  Br    0.43500   0.72240   0.68185   0.00000  Uiso   1.00
Br984  Br    0.56500   0.94426   0.81815   0.00000  Uiso   1.00
Br985  Br    0.56391   0.72316   0.81940   0.00000  Uiso   1.00
Br986  Br    0.43609   0.94350   0.68060   0.00000  Uiso   1.00
C987   C     0.75412   0.83332   0.75001   0.00000  Uiso   1.00
C988   C     0.91255   0.83335   0.74999   0.00000  Uiso   1.00
C989   C     0.81038   0.75287   0.52205   0.00000  Uiso   1.00
C990   C     0.85629   0.91380   0.97795   0.00000  Uiso   1.00
C991   C     0.68793   0.79123   0.75062   0.00000  Uiso   1.00
C992   C     0.97873   0.87544   0.74938   0.00000  Uiso   1.00
C993   C     0.97868   0.79125   0.75046   0.00000  Uiso   1.00
C994   C     0.68799   0.87542   0.74954   0.00000  Uiso   1.00
C995   C     0.95721   0.83335   0.74993   0.00000  Uiso   1.00
C996   C     0.70945   0.83331   0.75007   0.00000  Uiso   1.00
C997   C     0.80691   0.69119   0.72190   0.00000  Uiso   1.00
C998   C     0.85976   0.97548   0.77810   0.00000  Uiso   1.00
C999   C     0.85965   0.69149   0.77822   0.00000  Uiso   1.00
C1000  C     0.80701   0.97518   0.72178   0.00000  Uiso   1.00
C1001  C     0.83342   0.83328   0.66442   0.00000  Uiso   1.00
C1002  C     0.83324   0.83339   0.83558   0.00000  Uiso   1.00
C1003  C     0.84368   0.87362   0.90787   0.00000  Uiso   1.00
C1004  C     0.82299   0.79305   0.59213   0.00000  Uiso   1.00
C1005  C     0.83298   0.83342   0.88402   0.00000  Uiso   1.00
C1006  C     0.83369   0.83325   0.61598   0.00000  Uiso   1.00
C1007  C     0.82209   0.79312   0.90641   0.00000  Uiso   1.00
C1008  C     0.84458   0.87354   0.59359   0.00000  Uiso   1.00
C1009  C     0.82168   0.79252   0.95276   0.00000  Uiso   1.00
C1010  C     0.84498   0.87414   0.54724   0.00000  Uiso   1.00
C1011  C     0.83318   0.83323   0.97672   0.00000  Uiso   1.00
C1012  C     0.83349   0.83344   0.52328   0.00000  Uiso   1.00
C1013  C     0.84437   0.87378   0.95411   0.00000  Uiso   1.00
C1014  C     0.82230   0.79289   0.54589   0.00000  Uiso   1.00
C1015  C     0.81004   0.75241   0.97574   0.00000  Uiso   1.00
C1016  C     0.85663   0.91425   0.52426   0.00000  Uiso   1.00
Cu1017 Cu    0.83333   0.88022   0.75000   0.00000  Uiso   1.00
Cu1018 Cu    0.83333   0.78645   0.75000   0.00000  Uiso   1.00
H1019  H     0.85187   0.90472   0.89039   0.00000  Uiso   1.00
H1020  H     0.81480   0.76194   0.60961   0.00000  Uiso   1.00
H1021  H     0.81361   0.76252   0.88729   0.00000  Uiso   1.00
H1022  H     0.85305   0.90415   0.61271   0.00000  Uiso   1.00
H1023  H     0.70388   0.75829   0.75121   0.00000  Uiso   1.00
H1024  H     0.96278   0.90838   0.74879   0.00000  Uiso   1.00
H1025  H     0.96269   0.75830   0.75077   0.00000  Uiso   1.00
H1026  H     0.70397   0.90836   0.74923   0.00000  Uiso   1.00
N1027  N     0.83333   0.95069   0.75000   0.00000  Uiso   1.00
N1028  N     0.83333   0.71598   0.75000   0.00000  Uiso   1.00
O1029  O     0.77321   0.87291   0.75000   0.00000  Uiso   1.00
O1030  O     0.89345   0.79375   0.75001   0.00000  Uiso   1.00
O1031  O     0.89345   0.87291   0.75001   0.00000  Uiso   1.00
O1032  O     0.77321   0.79375   0.75000   0.00000  Uiso   1.00
O1033  O     0.83332   0.87293   0.68513   0.00000  Uiso   1.00
O1034  O     0.83334   0.79373   0.81487   0.00000  Uiso   1.00
O1035  O     0.83334   0.87293   0.81487   0.00000  Uiso   1.00
O1036  O     0.83332   0.79373   0.68513   0.00000  Uiso   1.00
Br1037 Br    0.79280   0.69614   0.94572   0.00000  Uiso   1.00
Br1038 Br    0.87387   0.97053   0.55428   0.00000  Uiso   1.00
F1039  F     0.79859   0.71423   0.54380   0.00000  Uiso   1.00
F1040  F     0.86808   0.95244   0.95620   0.00000  Uiso   1.00
Br1041 Br    0.76834   0.72240   0.68185   0.00000  Uiso   1.00
Br1042 Br    0.89833   0.94426   0.81815   0.00000  Uiso   1.00
Br1043 Br    0.89724   0.72316   0.81940   0.00000  Uiso   1.00
Br1044 Br    0.76943   0.94350   0.68060   0.00000  Uiso   1.00
loop_
_geom_bond_atom_site_label_1
_geom_bond_atom_site_label_2
_geom_bond_distance
_geom_bond_site_symmetry_2
_ccdc_geom_bond_type
C1     O46     1.300   .     A
C1     O43     1.299   .     A
C1     C10     1.451   .     S
C2     O45     1.300   .     A
C2     C9      1.451   .     S
C2     O44     1.299   .     A
C3     F53     1.359   .     S
C3     C28     1.403   .     A
C3     C551    1.396   1_554 S
C4     C27     1.403   .     A
C4     F54     1.359   .     S
C4     C552    1.396   .     S
C5     H37     1.083   .     S
C5     C10     1.401   .     A
C5     C123    1.383   1_455 S
C6     H38     1.083   .     S
C6     C9      1.401   .     A
C6     C66     1.383   .     S
C7     H39     1.083   .     S
C7     C9      1.401   .     A
C7     C63     1.383   .     S
C8     C10     1.401   .     A
C8     H40     1.083   .     S
C8     C122    1.383   1_455 S
C11    Br55    1.926   .     S
C11    N42     1.376   .     A
C11    C362    1.424   1_545 S
C12    N41     1.376   .     A
C12    Br56    1.926   .     S
C12    C187    1.424   .     S
C13    N42     1.376   .     A
C13    Br57    1.928   .     S
C13    C360    1.424   1_545 S
C14    N41     1.376   .     A
C14    Br58    1.928   .     S
C14    C185    1.424   .     S
C15    O47     1.302   .     A
C15    C20     1.461   .     S
C15    O50     1.303   .     A
C16    O48     1.302   .     A
C16    O49     1.303   .     A
C16    C19     1.461   .     S
C17    H33     1.082   .     S
C17    C19     1.398   .     A
C17    C27     1.394   .     A
C18    H34     1.082   .     S
C18    C20     1.398   .     A
C18    C28     1.394   .     A
C19    C21     1.400   .     A
C20    C22     1.400   .     A
C21    H35     1.081   .     S
C21    C23     1.399   .     A
C22    C24     1.399   .     A
C22    H36     1.081   .     S
C23    C29     1.411   .     A
C23    C25     1.417   .     A
C24    C26     1.417   .     A
C24    C30     1.411   .     A
C25    C27     1.412   .     A
C25    C548    1.404   .     S
C26    C28     1.412   .     A
C26    C547    1.404   1_554 S
C29    Br51    1.926   .     S
C29    C525    1.396   .     S
C30    Br52    1.926   .     S
C30    C526    1.396   1_554 S
Cu31   Cu32    2.706   .     S
Cu31   N41     2.033   .     S
Cu31   O47     1.967   .     S
Cu31   O43     1.964   .     S
Cu31   O49     1.968   .     S
Cu31   O45     1.965   .     S
Cu32   O48     1.967   .     S
Cu32   O44     1.964   .     S
Cu32   O50     1.968   .     S
Cu32   N42     2.033   .     S
Cu32   O46     1.965   .     S
C59    O104    1.300   .     A
C59    O101    1.299   .     A
C59    C68     1.451   .     S
C60    O103    1.300   .     A
C60    C67     1.451   .     S
C60    O102    1.299   .     A
C61    F111    1.359   .     S
C61    C86     1.403   .     A
C61    C609    1.396   1_554 S
C62    C85     1.403   .     A
C62    F112    1.359   .     S
C62    C610    1.396   .     S
C63    H95     1.083   .     S
C63    C68     1.401   .     A
C64    H96     1.083   .     S
C64    C67     1.401   .     A
C64    C124    1.383   .     S
C65    H97     1.083   .     S
C65    C67     1.401   .     A
C65    C121    1.383   .     S
C66    C68     1.401   .     A
C66    H98     1.083   .     S
C69    Br113   1.926   .     S
C69    N100    1.376   .     A
C69    C420    1.424   1_545 S
C70    N99     1.376   .     A
C70    Br114   1.926   .     S
C70    C245    1.424   .     S
C71    N100    1.376   .     A
C71    Br115   1.928   .     S
C71    C418    1.424   1_545 S
C72    N99     1.376   .     A
C72    Br116   1.928   .     S
C72    C243    1.424   .     S
C73    O105    1.302   .     A
C73    C78     1.461   .     S
C73    O108    1.303   .     A
C74    O106    1.302   .     A
C74    O107    1.303   .     A
C74    C77     1.461   .     S
C75    H91     1.082   .     S
C75    C77     1.398   .     A
C75    C85     1.394   .     A
C76    H92     1.082   .     S
C76    C78     1.398   .     A
C76    C86     1.394   .     A
C77    C79     1.400   .     A
C78    C80     1.400   .     A
C79    H93     1.081   .     S
C79    C81     1.399   .     A
C80    C82     1.399   .     A
C80    H94     1.081   .     S
C81    C87     1.411   .     A
C81    C83     1.417   .     A
C82    C84     1.417   .     A
C82    C88     1.411   .     A
C83    C85     1.412   .     A
C83    C606    1.404   .     S
C84    C86     1.412   .     A
C84    C605    1.404   1_554 S
C87    Br109   1.926   .     S
C87    C583    1.396   .     S
C88    Br110   1.926   .     S
C88    C584    1.396   1_554 S
Cu89   Cu90    2.706   .     S
Cu89   N99     2.033   .     S
Cu89   O105    1.967   .     S
Cu89   O101    1.964   .     S
Cu89   O107    1.968   .     S
Cu89   O103    1.965   .     S
Cu90   O106    1.967   .     S
Cu90   O102    1.964   .     S
Cu90   O108    1.968   .     S
Cu90   N100    2.033   .     S
Cu90   O104    1.965   .     S
C117   O162    1.300   .     A
C117   O159    1.299   .     A
C117   C126    1.451   .     S
C118   O161    1.300   .     A
C118   C125    1.451   .     S
C118   O160    1.299   .     A
C119   F169    1.359   .     S
C119   C144    1.403   .     A
C119   C667    1.396   1_554 S
C120   C143    1.403   .     A
C120   F170    1.359   .     S
C120   C668    1.396   .     S
C121   H153    1.083   .     S
C121   C126    1.401   .     A
C122   H154    1.083   .     S
C122   C125    1.401   .     A
C122   C8      1.383   1_655 S
C123   H155    1.083   .     S
C123   C125    1.401   .     A
C123   C5      1.383   1_655 S
C124   C126    1.401   .     A
C124   H156    1.083   .     S
C127   Br171   1.926   .     S
C127   N158    1.376   .     A
C127   C478    1.424   1_545 S
C128   N157    1.376   .     A
C128   Br172   1.926   .     S
C128   C303    1.424   .     S
C129   N158    1.376   .     A
C129   Br173   1.928   .     S
C129   C476    1.424   1_545 S
C130   N157    1.376   .     A
C130   Br174   1.928   .     S
C130   C301    1.424   .     S
C131   O163    1.302   .     A
C131   C136    1.461   .     S
C131   O166    1.303   .     A
C132   O164    1.302   .     A
C132   O165    1.303   .     A
C132   C135    1.461   .     S
C133   H149    1.082   .     S
C133   C135    1.398   .     A
C133   C143    1.394   .     A
C134   H150    1.082   .     S
C134   C136    1.398   .     A
C134   C144    1.394   .     A
C135   C137    1.400   .     A
C136   C138    1.400   .     A
C137   H151    1.081   .     S
C137   C139    1.399   .     A
C138   C140    1.399   .     A
C138   H152    1.081   .     S
C139   C145    1.411   .     A
C139   C141    1.417   .     A
C140   C142    1.417   .     A
C140   C146    1.411   .     A
C141   C143    1.412   .     A
C141   C664    1.404   .     S
C142   C144    1.412   .     A
C142   C663    1.404   1_554 S
C145   Br167   1.926   .     S
C145   C641    1.396   .     S
C146   Br168   1.926   .     S
C146   C642    1.396   1_554 S
Cu147  Cu148   2.706   .     S
Cu147  N157    2.033   .     S
Cu147  O163    1.967   .     S
Cu147  O159    1.964   .     S
Cu147  O165    1.968   .     S
Cu147  O161    1.965   .     S
Cu148  O164    1.967   .     S
Cu148  O160    1.964   .     S
Cu148  O166    1.968   .     S
Cu148  N158    2.033   .     S
Cu148  O162    1.965   .     S
C175   O220    1.300   .     A
C175   O217    1.299   .     A
C175   C184    1.451   .     S
C176   O219    1.300   .     A
C176   C183    1.451   .     S
C176   O218    1.299   .     A
C177   F227    1.359   .     S
C177   C202    1.403   .     A
C177   C725    1.396   1_554 S
C178   C201    1.403   .     A
C178   F228    1.359   .     S
C178   C726    1.396   .     S
C179   H211    1.083   .     S
C179   C184    1.401   .     A
C179   C297    1.383   1_455 S
C180   H212    1.083   .     S
C180   C183    1.401   .     A
C180   C240    1.383   .     S
C181   H213    1.083   .     S
C181   C183    1.401   .     A
C181   C237    1.383   .     S
C182   C184    1.401   .     A
C182   H214    1.083   .     S
C182   C296    1.383   1_455 S
C185   Br229   1.926   .     S
C185   N216    1.376   .     A
C186   N215    1.376   .     A
C186   Br230   1.926   .     S
C186   C361    1.424   .     S
C187   N216    1.376   .     A
C187   Br231   1.928   .     S
C188   N215    1.376   .     A
C188   Br232   1.928   .     S
C188   C359    1.424   .     S
C189   O221    1.302   .     A
C189   C194    1.461   .     S
C189   O224    1.303   .     A
C190   O222    1.302   .     A
C190   O223    1.303   .     A
C190   C193    1.461   .     S
C191   H207    1.082   .     S
C191   C193    1.398   .     A
C191   C201    1.394   .     A
C192   H208    1.082   .     S
C192   C194    1.398   .     A
C192   C202    1.394   .     A
C193   C195    1.400   .     A
C194   C196    1.400   .     A
C195   H209    1.081   .     S
C195   C197    1.399   .     A
C196   C198    1.399   .     A
C196   H210    1.081   .     S
C197   C203    1.411   .     A
C197   C199    1.417   .     A
C198   C200    1.417   .     A
C198   C204    1.411   .     A
C199   C201    1.412   .     A
C199   C722    1.404   .     S
C200   C202    1.412   .     A
C200   C721    1.404   1_554 S
C203   Br225   1.926   .     S
C203   C699    1.396   .     S
C204   Br226   1.926   .     S
C204   C700    1.396   1_554 S
Cu205  Cu206   2.706   .     S
Cu205  N215    2.033   .     S
Cu205  O221    1.967   .     S
Cu205  O217    1.964   .     S
Cu205  O223    1.968   .     S
Cu205  O219    1.965   .     S
Cu206  O222    1.967   .     S
Cu206  O218    1.964   .     S
Cu206  O224    1.968   .     S
Cu206  N216    2.033   .     S
Cu206  O220    1.965   .     S
C233   O278    1.300   .     A
C233   O275    1.299   .     A
C233   C242    1.451   .     S
C234   O277    1.300   .     A
C234   C241    1.451   .     S
C234   O276    1.299   .     A
C235   F285    1.359   .     S
C235   C260    1.403   .     A
C235   C783    1.396   1_554 S
C236   C259    1.403   .     A
C236   F286    1.359   .     S
C236   C784    1.396   .     S
C237   H269    1.083   .     S
C237   C242    1.401   .     A
C238   H270    1.083   .     S
C238   C241    1.401   .     A
C238   C298    1.383   .     S
C239   H271    1.083   .     S
C239   C241    1.401   .     A
C239   C295    1.383   .     S
C240   C242    1.401   .     A
C240   H272    1.083   .     S
C243   Br287   1.926   .     S
C243   N274    1.376   .     A
C244   N273    1.376   .     A
C244   Br288   1.926   .     S
C244   C419    1.424   .     S
C245   N274    1.376   .     A
C245   Br289   1.928   .     S
C246   N273    1.376   .     A
C246   Br290   1.928   .     S
C246   C417    1.424   .     S
C247   O279    1.302   .     A
C247   C252    1.461   .     S
C247   O282    1.303   .     A
C248   O280    1.302   .     A
C248   O281    1.303   .     A
C248   C251    1.461   .     S
C249   H265    1.082   .     S
C249   C251    1.398   .     A
C249   C259    1.394   .     A
C250   H266    1.082   .     S
C250   C252    1.398   .     A
C250   C260    1.394   .     A
C251   C253    1.400   .     A
C252   C254    1.400   .     A
C253   H267    1.081   .     S
C253   C255    1.399   .     A
C254   C256    1.399   .     A
C254   H268    1.081   .     S
C255   C261    1.411   .     A
C255   C257    1.417   .     A
C256   C258    1.417   .     A
C256   C262    1.411   .     A
C257   C259    1.412   .     A
C257   C780    1.404   .     S
C258   C260    1.412   .     A
C258   C779    1.404   1_554 S
C261   Br283   1.926   .     S
C261   C757    1.396   .     S
C262   Br284   1.926   .     S
C262   C758    1.396   1_554 S
Cu263  Cu264   2.706   .     S
Cu263  N273    2.033   .     S
Cu263  O279    1.967   .     S
Cu263  O275    1.964   .     S
Cu263  O281    1.968   .     S
Cu263  O277    1.965   .     S
Cu264  O280    1.967   .     S
Cu264  O276    1.964   .     S
Cu264  O282    1.968   .     S
Cu264  N274    2.033   .     S
Cu264  O278    1.965   .     S
C291   O336    1.300   .     A
C291   O333    1.299   .     A
C291   C300    1.451   .     S
C292   O335    1.300   .     A
C292   C299    1.451   .     S
C292   O334    1.299   .     A
C293   F343    1.359   .     S
C293   C318    1.403   .     A
C293   C841    1.396   1_554 S
C294   C317    1.403   .     A
C294   F344    1.359   .     S
C294   C842    1.396   .     S
C295   H327    1.083   .     S
C295   C300    1.401   .     A
C296   H328    1.083   .     S
C296   C299    1.401   .     A
C296   C182    1.383   1_655 S
C297   H329    1.083   .     S
C297   C299    1.401   .     A
C297   C179    1.383   1_655 S
C298   C300    1.401   .     A
C298   H330    1.083   .     S
C301   Br345   1.926   .     S
C301   N332    1.376   .     A
C302   N331    1.376   .     A
C302   Br346   1.926   .     S
C302   C477    1.424   .     S
C303   N332    1.376   .     A
C303   Br347   1.928   .     S
C304   N331    1.376   .     A
C304   Br348   1.928   .     S
C304   C475    1.424   .     S
C305   O337    1.302   .     A
C305   C310    1.461   .     S
C305   O340    1.303   .     A
C306   O338    1.302   .     A
C306   O339    1.303   .     A
C306   C309    1.461   .     S
C307   H323    1.082   .     S
C307   C309    1.398   .     A
C307   C317    1.394   .     A
C308   H324    1.082   .     S
C308   C310    1.398   .     A
C308   C318    1.394   .     A
C309   C311    1.400   .     A
C310   C312    1.400   .     A
C311   H325    1.081   .     S
C311   C313    1.399   .     A
C312   C314    1.399   .     A
C312   H326    1.081   .     S
C313   C319    1.411   .     A
C313   C315    1.417   .     A
C314   C316    1.417   .     A
C314   C320    1.411   .     A
C315   C317    1.412   .     A
C315   C838    1.404   .     S
C316   C318    1.412   .     A
C316   C837    1.404   1_554 S
C319   Br341   1.926   .     S
C319   C815    1.396   .     S
C320   Br342   1.926   .     S
C320   C816    1.396   1_554 S
Cu321  Cu322   2.706   .     S
Cu321  N331    2.033   .     S
Cu321  O337    1.967   .     S
Cu321  O333    1.964   .     S
Cu321  O339    1.968   .     S
Cu321  O335    1.965   .     S
Cu322  O338    1.967   .     S
Cu322  O334    1.964   .     S
Cu322  O340    1.968   .     S
Cu322  N332    2.033   .     S
Cu322  O336    1.965   .     S
C349   O394    1.300   .     A
C349   O391    1.299   .     A
C349   C358    1.451   .     S
C350   O393    1.300   .     A
C350   C357    1.451   .     S
C350   O392    1.299   .     A
C351   F401    1.359   .     S
C351   C376    1.403   .     A
C351   C899    1.396   1_554 S
C352   C375    1.403   .     A
C352   F402    1.359   .     S
C352   C900    1.396   .     S
C353   H385    1.083   .     S
C353   C358    1.401   .     A
C353   C471    1.383   1_455 S
C354   H386    1.083   .     S
C354   C357    1.401   .     A
C354   C414    1.383   .     S
C355   H387    1.083   .     S
C355   C357    1.401   .     A
C355   C411    1.383   .     S
C356   C358    1.401   .     A
C356   H388    1.083   .     S
C356   C470    1.383   1_455 S
C359   Br403   1.926   .     S
C359   N390    1.376   .     A
C360   N389    1.376   .     A
C360   Br404   1.926   .     S
C360   C13     1.424   1_565 S
C361   N390    1.376   .     A
C361   Br405   1.928   .     S
C362   N389    1.376   .     A
C362   Br406   1.928   .     S
C362   C11     1.424   1_565 S
C363   O395    1.302   .     A
C363   C368    1.461   .     S
C363   O398    1.303   .     A
C364   O396    1.302   .     A
C364   O397    1.303   .     A
C364   C367    1.461   .     S
C365   H381    1.082   .     S
C365   C367    1.398   .     A
C365   C375    1.394   .     A
C366   H382    1.082   .     S
C366   C368    1.398   .     A
C366   C376    1.394   .     A
C367   C369    1.400   .     A
C368   C370    1.400   .     A
C369   H383    1.081   .     S
C369   C371    1.399   .     A
C370   C372    1.399   .     A
C370   H384    1.081   .     S
C371   C377    1.411   .     A
C371   C373    1.417   .     A
C372   C374    1.417   .     A
C372   C378    1.411   .     A
C373   C375    1.412   .     A
C373   C896    1.404   .     S
C374   C376    1.412   .     A
C374   C895    1.404   1_554 S
C377   Br399   1.926   .     S
C377   C873    1.396   .     S
C378   Br400   1.926   .     S
C378   C874    1.396   1_554 S
Cu379  Cu380   2.706   .     S
Cu379  N389    2.033   .     S
Cu379  O395    1.967   .     S
Cu379  O391    1.964   .     S
Cu379  O397    1.968   .     S
Cu379  O393    1.965   .     S
Cu380  O396    1.967   .     S
Cu380  O392    1.964   .     S
Cu380  O398    1.968   .     S
Cu380  N390    2.033   .     S
Cu380  O394    1.965   .     S
C407   O452    1.300   .     A
C407   O449    1.299   .     A
C407   C416    1.451   .     S
C408   O451    1.300   .     A
C408   C415    1.451   .     S
C408   O450    1.299   .     A
C409   F459    1.359   .     S
C409   C434    1.403   .     A
C409   C957    1.396   1_554 S
C410   C433    1.403   .     A
C410   F460    1.359   .     S
C410   C958    1.396   .     S
C411   H443    1.083   .     S
C411   C416    1.401   .     A
C412   H444    1.083   .     S
C412   C415    1.401   .     A
C412   C472    1.383   .     S
C413   H445    1.083   .     S
C413   C415    1.401   .     A
C413   C469    1.383   .     S
C414   C416    1.401   .     A
C414   H446    1.083   .     S
C417   Br461   1.926   .     S
C417   N448    1.376   .     A
C418   N447    1.376   .     A
C418   Br462   1.926   .     S
C418   C71     1.424   1_565 S
C419   N448    1.376   .     A
C419   Br463   1.928   .     S
C420   N447    1.376   .     A
C420   Br464   1.928   .     S
C420   C69     1.424   1_565 S
C421   O453    1.302   .     A
C421   C426    1.461   .     S
C421   O456    1.303   .     A
C422   O454    1.302   .     A
C422   O455    1.303   .     A
C422   C425    1.461   .     S
C423   H439    1.082   .     S
C423   C425    1.398   .     A
C423   C433    1.394   .     A
C424   H440    1.082   .     S
C424   C426    1.398   .     A
C424   C434    1.394   .     A
C425   C427    1.400   .     A
C426   C428    1.400   .     A
C427   H441    1.081   .     S
C427   C429    1.399   .     A
C428   C430    1.399   .     A
C428   H442    1.081   .     S
C429   C435    1.411   .     A
C429   C431    1.417   .     A
C430   C432    1.417   .     A
C430   C436    1.411   .     A
C431   C433    1.412   .     A
C431   C954    1.404   .     S
C432   C434    1.412   .     A
C432   C953    1.404   1_554 S
C435   Br457   1.926   .     S
C435   C931    1.396   .     S
C436   Br458   1.926   .     S
C436   C932    1.396   1_554 S
Cu437  Cu438   2.706   .     S
Cu437  N447    2.033   .     S
Cu437  O453    1.967   .     S
Cu437  O449    1.964   .     S
Cu437  O455    1.968   .     S
Cu437  O451    1.965   .     S
Cu438  O454    1.967   .     S
Cu438  O450    1.964   .     S
Cu438  O456    1.968   .     S
Cu438  N448    2.033   .     S
Cu438  O452    1.965   .     S
C465   O510    1.300   .     A
C465   O507    1.299   .     A
C465   C474    1.451   .     S
C466   O509    1.300   .     A
C466   C473    1.451   .     S
C466   O508    1.299   .     A
C467   F517    1.359   .     S
C467   C492    1.403   .     A
C467   C1015   1.396   1_554 S
C468   C491    1.403   .     A
C468   F518    1.359   .     S
C468   C1016   1.396   .     S
C469   H501    1.083   .     S
C469   C474    1.401   .     A
C470   H502    1.083   .     S
C470   C473    1.401   .     A
C470   C356    1.383   1_655 S
C471   H503    1.083   .     S
C471   C473    1.401   .     A
C471   C353    1.383   1_655 S
C472   C474    1.401   .     A
C472   H504    1.083   .     S
C475   Br519   1.926   .     S
C475   N506    1.376   .     A
C476   N505    1.376   .     A
C476   Br520   1.926   .     S
C476   C129    1.424   1_565 S
C477   N506    1.376   .     A
C477   Br521   1.928   .     S
C478   N505    1.376   .     A
C478   Br522   1.928   .     S
C478   C127    1.424   1_565 S
C479   O511    1.302   .     A
C479   C484    1.461   .     S
C479   O514    1.303   .     A
C480   O512    1.302   .     A
C480   O513    1.303   .     A
C480   C483    1.461   .     S
C481   H497    1.082   .     S
C481   C483    1.398   .     A
C481   C491    1.394   .     A
C482   H498    1.082   .     S
C482   C484    1.398   .     A
C482   C492    1.394   .     A
C483   C485    1.400   .     A
C484   C486    1.400   .     A
C485   H499    1.081   .     S
C485   C487    1.399   .     A
C486   C488    1.399   .     A
C486   H500    1.081   .     S
C487   C493    1.411   .     A
C487   C489    1.417   .     A
C488   C490    1.417   .     A
C488   C494    1.411   .     A
C489   C491    1.412   .     A
C489   C1012   1.404   .     S
C490   C492    1.412   .     A
C490   C1011   1.404   1_554 S
C493   Br515   1.926   .     S
C493   C989    1.396   .     S
C494   Br516   1.926   .     S
C494   C990    1.396   1_554 S
Cu495  Cu496   2.706   .     S
Cu495  N505    2.033   .     S
Cu495  O511    1.967   .     S
Cu495  O507    1.964   .     S
Cu495  O513    1.968   .     S
Cu495  O509    1.965   .     S
Cu496  O512    1.967   .     S
Cu496  O508    1.964   .     S
Cu496  O514    1.968   .     S
Cu496  N506    2.033   .     S
Cu496  O510    1.965   .     S
C523   O568    1.300   .     A
C523   O565    1.299   .     A
C523   C532    1.451   .     S
C524   O567    1.300   .     A
C524   C531    1.451   .     S
C524   O566    1.299   .     A
C525   F575    1.359   .     S
C525   C550    1.403   .     A
C526   C549    1.403   .     A
C526   F576    1.359   .     S
C526   C30     1.396   1_556 S
C527   H559    1.083   .     S
C527   C532    1.401   .     A
C527   C645    1.383   1_455 S
C528   H560    1.083   .     S
C528   C531    1.401   .     A
C528   C588    1.383   .     S
C529   H561    1.083   .     S
C529   C531    1.401   .     A
C529   C585    1.383   .     S
C530   C532    1.401   .     A
C530   H562    1.083   .     S
C530   C644    1.383   1_455 S
C533   Br577   1.926   .     S
C533   N564    1.376   .     A
C533   C884    1.424   1_545 S
C534   N563    1.376   .     A
C534   Br578   1.926   .     S
C534   C709    1.424   .     S
C535   N564    1.376   .     A
C535   Br579   1.928   .     S
C535   C882    1.424   1_545 S
C536   N563    1.376   .     A
C536   Br580   1.928   .     S
C536   C707    1.424   .     S
C537   O569    1.302   .     A
C537   C542    1.461   .     S
C537   O572    1.303   .     A
C538   O570    1.302   .     A
C538   O571    1.303   .     A
C538   C541    1.461   .     S
C539   H555    1.082   .     S
C539   C541    1.398   .     A
C539   C549    1.394   .     A
C540   H556    1.082   .     S
C540   C542    1.398   .     A
C540   C550    1.394   .     A
C541   C543    1.400   .     A
C542   C544    1.400   .     A
C543   H557    1.081   .     S
C543   C545    1.399   .     A
C544   C546    1.399   .     A
C544   H558    1.081   .     S
C545   C551    1.411   .     A
C545   C547    1.417   .     A
C546   C548    1.417   .     A
C546   C552    1.411   .     A
C547   C549    1.412   .     A
C547   C26     1.404   1_556 S
C548   C550    1.412   .     A
C551   Br573   1.926   .     S
C551   C3      1.396   1_556 S
C552   Br574   1.926   .     S
Cu553  Cu554   2.706   .     S
Cu553  N563    2.033   .     S
Cu553  O569    1.967   .     S
Cu553  O565    1.964   .     S
Cu553  O571    1.968   .     S
Cu553  O567    1.965   .     S
Cu554  O570    1.967   .     S
Cu554  O566    1.964   .     S
Cu554  O572    1.968   .     S
Cu554  N564    2.033   .     S
Cu554  O568    1.965   .     S
C581   O626    1.300   .     A
C581   O623    1.299   .     A
C581   C590    1.451   .     S
C582   O625    1.300   .     A
C582   C589    1.451   .     S
C582   O624    1.299   .     A
C583   F633    1.359   .     S
C583   C608    1.403   .     A
C584   C607    1.403   .     A
C584   F634    1.359   .     S
C584   C88     1.396   1_556 S
C585   H617    1.083   .     S
C585   C590    1.401   .     A
C586   H618    1.083   .     S
C586   C589    1.401   .     A
C586   C646    1.383   .     S
C587   H619    1.083   .     S
C587   C589    1.401   .     A
C587   C643    1.383   .     S
C588   C590    1.401   .     A
C588   H620    1.083   .     S
C591   Br635   1.926   .     S
C591   N622    1.376   .     A
C591   C942    1.424   1_545 S
C592   N621    1.376   .     A
C592   Br636   1.926   .     S
C592   C767    1.424   .     S
C593   N622    1.376   .     A
C593   Br637   1.928   .     S
C593   C940    1.424   1_545 S
C594   N621    1.376   .     A
C594   Br638   1.928   .     S
C594   C765    1.424   .     S
C595   O627    1.302   .     A
C595   C600    1.461   .     S
C595   O630    1.303   .     A
C596   O628    1.302   .     A
C596   O629    1.303   .     A
C596   C599    1.461   .     S
C597   H613    1.082   .     S
C597   C599    1.398   .     A
C597   C607    1.394   .     A
C598   H614    1.082   .     S
C598   C600    1.398   .     A
C598   C608    1.394   .     A
C599   C601    1.400   .     A
C600   C602    1.400   .     A
C601   H615    1.081   .     S
C601   C603    1.399   .     A
C602   C604    1.399   .     A
C602   H616    1.081   .     S
C603   C609    1.411   .     A
C603   C605    1.417   .     A
C604   C606    1.417   .     A
C604   C610    1.411   .     A
C605   C607    1.412   .     A
C605   C84     1.404   1_556 S
C606   C608    1.412   .     A
C609   Br631   1.926   .     S
C609   C61     1.396   1_556 S
C610   Br632   1.926   .     S
Cu611  Cu612   2.706   .     S
Cu611  N621    2.033   .     S
Cu611  O627    1.967   .     S
Cu611  O623    1.964   .     S
Cu611  O629    1.968   .     S
Cu611  O625    1.965   .     S
Cu612  O628    1.967   .     S
Cu612  O624    1.964   .     S
Cu612  O630    1.968   .     S
Cu612  N622    2.033   .     S
Cu612  O626    1.965   .     S
C639   O684    1.300   .     A
C639   O681    1.299   .     A
C639   C648    1.451   .     S
C640   O683    1.300   .     A
C640   C647    1.451   .     S
C640   O682    1.299   .     A
C641   F691    1.359   .     S
C641   C666    1.403   .     A
C642   C665    1.403   .     A
C642   F692    1.359   .     S
C642   C146    1.396   1_556 S
C643   H675    1.083   .     S
C643   C648    1.401   .     A
C644   H676    1.083   .     S
C644   C647    1.401   .     A
C644   C530    1.383   1_655 S
C645   H677    1.083   .     S
C645   C647    1.401   .     A
C645   C527    1.383   1_655 S
C646   C648    1.401   .     A
C646   H678    1.083   .     S
C649   Br693   1.926   .     S
C649   N680    1.376   .     A
C649   C1000   1.424   1_545 S
C650   N679    1.376   .     A
C650   Br694   1.926   .     S
C650   C825    1.424   .     S
C651   N680    1.376   .     A
C651   Br695   1.928   .     S
C651   C998    1.424   1_545 S
C652   N679    1.376   .     A
C652   Br696   1.928   .     S
C652   C823    1.424   .     S
C653   O685    1.302   .     A
C653   C658    1.461   .     S
C653   O688    1.303   .     A
C654   O686    1.302   .     A
C654   O687    1.303   .     A
C654   C657    1.461   .     S
C655   H671    1.082   .     S
C655   C657    1.398   .     A
C655   C665    1.394   .     A
C656   H672    1.082   .     S
C656   C658    1.398   .     A
C656   C666    1.394   .     A
C657   C659    1.400   .     A
C658   C660    1.400   .     A
C659   H673    1.081   .     S
C659   C661    1.399   .     A
C660   C662    1.399   .     A
C660   H674    1.081   .     S
C661   C667    1.411   .     A
C661   C663    1.417   .     A
C662   C664    1.417   .     A
C662   C668    1.411   .     A
C663   C665    1.412   .     A
C663   C142    1.404   1_556 S
C664   C666    1.412   .     A
C667   Br689   1.926   .     S
C667   C119    1.396   1_556 S
C668   Br690   1.926   .     S
Cu669  Cu670   2.706   .     S
Cu669  N679    2.033   .     S
Cu669  O685    1.967   .     S
Cu669  O681    1.964   .     S
Cu669  O687    1.968   .     S
Cu669  O683    1.965   .     S
Cu670  O686    1.967   .     S
Cu670  O682    1.964   .     S
Cu670  O688    1.968   .     S
Cu670  N680    2.033   .     S
Cu670  O684    1.965   .     S
C697   O742    1.300   .     A
C697   O739    1.299   .     A
C697   C706    1.451   .     S
C698   O741    1.300   .     A
C698   C705    1.451   .     S
C698   O740    1.299   .     A
C699   F749    1.359   .     S
C699   C724    1.403   .     A
C700   C723    1.403   .     A
C700   F750    1.359   .     S
C700   C204    1.396   1_556 S
C701   H733    1.083   .     S
C701   C706    1.401   .     A
C701   C819    1.383   1_455 S
C702   H734    1.083   .     S
C702   C705    1.401   .     A
C702   C762    1.383   .     S
C703   H735    1.083   .     S
C703   C705    1.401   .     A
C703   C759    1.383   .     S
C704   C706    1.401   .     A
C704   H736    1.083   .     S
C704   C818    1.383   1_455 S
C707   Br751   1.926   .     S
C707   N738    1.376   .     A
C708   N737    1.376   .     A
C708   Br752   1.926   .     S
C708   C883    1.424   .     S
C709   N738    1.376   .     A
C709   Br753   1.928   .     S
C710   N737    1.376   .     A
C710   Br754   1.928   .     S
C710   C881    1.424   .     S
C711   O743    1.302   .     A
C711   C716    1.461   .     S
C711   O746    1.303   .     A
C712   O744    1.302   .     A
C712   O745    1.303   .     A
C712   C715    1.461   .     S
C713   H729    1.082   .     S
C713   C715    1.398   .     A
C713   C723    1.394   .     A
C714   H730    1.082   .     S
C714   C716    1.398   .     A
C714   C724    1.394   .     A
C715   C717    1.400   .     A
C716   C718    1.400   .     A
C717   H731    1.081   .     S
C717   C719    1.399   .     A
C718   C720    1.399   .     A
C718   H732    1.081   .     S
C719   C725    1.411   .     A
C719   C721    1.417   .     A
C720   C722    1.417   .     A
C720   C726    1.411   .     A
C721   C723    1.412   .     A
C721   C200    1.404   1_556 S
C722   C724    1.412   .     A
C725   Br747   1.926   .     S
C725   C177    1.396   1_556 S
C726   Br748   1.926   .     S
Cu727  Cu728   2.706   .     S
Cu727  N737    2.033   .     S
Cu727  O743    1.967   .     S
Cu727  O739    1.964   .     S
Cu727  O745    1.968   .     S
Cu727  O741    1.965   .     S
Cu728  O744    1.967   .     S
Cu728  O740    1.964   .     S
Cu728  O746    1.968   .     S
Cu728  N738    2.033   .     S
Cu728  O742    1.965   .     S
C755   O800    1.300   .     A
C755   O797    1.299   .     A
C755   C764    1.451   .     S
C756   O799    1.300   .     A
C756   C763    1.451   .     S
C756   O798    1.299   .     A
C757   F807    1.359   .     S
C757   C782    1.403   .     A
C758   C781    1.403   .     A
C758   F808    1.359   .     S
C758   C262    1.396   1_556 S
C759   H791    1.083   .     S
C759   C764    1.401   .     A
C760   H792    1.083   .     S
C760   C763    1.401   .     A
C760   C820    1.383   .     S
C761   H793    1.083   .     S
C761   C763    1.401   .     A
C761   C817    1.383   .     S
C762   C764    1.401   .     A
C762   H794    1.083   .     S
C765   Br809   1.926   .     S
C765   N796    1.376   .     A
C766   N795    1.376   .     A
C766   Br810   1.926   .     S
C766   C941    1.424   .     S
C767   N796    1.376   .     A
C767   Br811   1.928   .     S
C768   N795    1.376   .     A
C768   Br812   1.928   .     S
C768   C939    1.424   .     S
C769   O801    1.302   .     A
C769   C774    1.461   .     S
C769   O804    1.303   .     A
C770   O802    1.302   .     A
C770   O803    1.303   .     A
C770   C773    1.461   .     S
C771   H787    1.082   .     S
C771   C773    1.398   .     A
C771   C781    1.394   .     A
C772   H788    1.082   .     S
C772   C774    1.398   .     A
C772   C782    1.394   .     A
C773   C775    1.400   .     A
C774   C776    1.400   .     A
C775   H789    1.081   .     S
C775   C777    1.399   .     A
C776   C778    1.399   .     A
C776   H790    1.081   .     S
C777   C783    1.411   .     A
C777   C779    1.417   .     A
C778   C780    1.417   .     A
C778   C784    1.411   .     A
C779   C781    1.412   .     A
C779   C258    1.404   1_556 S
C780   C782    1.412   .     A
C783   Br805   1.926   .     S
C783   C235    1.396   1_556 S
C784   Br806   1.926   .     S
Cu785  Cu786   2.706   .     S
Cu785  N795    2.033   .     S
Cu785  O801    1.967   .     S
Cu785  O797    1.964   .     S
Cu785  O803    1.968   .     S
Cu785  O799    1.965   .     S
Cu786  O802    1.967   .     S
Cu786  O798    1.964   .     S
Cu786  O804    1.968   .     S
Cu786  N796    2.033   .     S
Cu786  O800    1.965   .     S
C813   O858    1.300   .     A
C813   O855    1.299   .     A
C813   C822    1.451   .     S
C814   O857    1.300   .     A
C814   C821    1.451   .     S
C814   O856    1.299   .     A
C815   F865    1.359   .     S
C815   C840    1.403   .     A
C816   C839    1.403   .     A
C816   F866    1.359   .     S
C816   C320    1.396   1_556 S
C817   H849    1.083   .     S
C817   C822    1.401   .     A
C818   H850    1.083   .     S
C818   C821    1.401   .     A
C818   C704    1.383   1_655 S
C819   H851    1.083   .     S
C819   C821    1.401   .     A
C819   C701    1.383   1_655 S
C820   C822    1.401   .     A
C820   H852    1.083   .     S
C823   Br867   1.926   .     S
C823   N854    1.376   .     A
C824   N853    1.376   .     A
C824   Br868   1.926   .     S
C824   C999    1.424   .     S
C825   N854    1.376   .     A
C825   Br869   1.928   .     S
C826   N853    1.376   .     A
C826   Br870   1.928   .     S
C826   C997    1.424   .     S
C827   O859    1.302   .     A
C827   C832    1.461   .     S
C827   O862    1.303   .     A
C828   O860    1.302   .     A
C828   O861    1.303   .     A
C828   C831    1.461   .     S
C829   H845    1.082   .     S
C829   C831    1.398   .     A
C829   C839    1.394   .     A
C830   H846    1.082   .     S
C830   C832    1.398   .     A
C830   C840    1.394   .     A
C831   C833    1.400   .     A
C832   C834    1.400   .     A
C833   H847    1.081   .     S
C833   C835    1.399   .     A
C834   C836    1.399   .     A
C834   H848    1.081   .     S
C835   C841    1.411   .     A
C835   C837    1.417   .     A
C836   C838    1.417   .     A
C836   C842    1.411   .     A
C837   C839    1.412   .     A
C837   C316    1.404   1_556 S
C838   C840    1.412   .     A
C841   Br863   1.926   .     S
C841   C293    1.396   1_556 S
C842   Br864   1.926   .     S
Cu843  Cu844   2.706   .     S
Cu843  N853    2.033   .     S
Cu843  O859    1.967   .     S
Cu843  O855    1.964   .     S
Cu843  O861    1.968   .     S
Cu843  O857    1.965   .     S
Cu844  O860    1.967   .     S
Cu844  O856    1.964   .     S
Cu844  O862    1.968   .     S
Cu844  N854    2.033   .     S
Cu844  O858    1.965   .     S
C871   O916    1.300   .     A
C871   O913    1.299   .     A
C871   C880    1.451   .     S
C872   O915    1.300   .     A
C872   C879    1.451   .     S
C872   O914    1.299   .     A
C873   F923    1.359   .     S
C873   C898    1.403   .     A
C874   C897    1.403   .     A
C874   F924    1.359   .     S
C874   C378    1.396   1_556 S
C875   H907    1.083   .     S
C875   C880    1.401   .     A
C875   C993    1.383   1_455 S
C876   H908    1.083   .     S
C876   C879    1.401   .     A
C876   C936    1.383   .     S
C877   H909    1.083   .     S
C877   C879    1.401   .     A
C877   C933    1.383   .     S
C878   C880    1.401   .     A
C878   H910    1.083   .     S
C878   C992    1.383   1_455 S
C881   Br925   1.926   .     S
C881   N912    1.376   .     A
C882   N911    1.376   .     A
C882   Br926   1.926   .     S
C882   C535    1.424   1_565 S
C883   N912    1.376   .     A
C883   Br927   1.928   .     S
C884   N911    1.376   .     A
C884   Br928   1.928   .     S
C884   C533    1.424   1_565 S
C885   O917    1.302   .     A
C885   C890    1.461   .     S
C885   O920    1.303   .     A
C886   O918    1.302   .     A
C886   O919    1.303   .     A
C886   C889    1.461   .     S
C887   H903    1.082   .     S
C887   C889    1.398   .     A
C887   C897    1.394   .     A
C888   H904    1.082   .     S
C888   C890    1.398   .     A
C888   C898    1.394   .     A
C889   C891    1.400   .     A
C890   C892    1.400   .     A
C891   H905    1.081   .     S
C891   C893    1.399   .     A
C892   C894    1.399   .     A
C892   H906    1.081   .     S
C893   C899    1.411   .     A
C893   C895    1.417   .     A
C894   C896    1.417   .     A
C894   C900    1.411   .     A
C895   C897    1.412   .     A
C895   C374    1.404   1_556 S
C896   C898    1.412   .     A
C899   Br921   1.926   .     S
C899   C351    1.396   1_556 S
C900   Br922   1.926   .     S
Cu901  Cu902   2.706   .     S
Cu901  N911    2.033   .     S
Cu901  O917    1.967   .     S
Cu901  O913    1.964   .     S
Cu901  O919    1.968   .     S
Cu901  O915    1.965   .     S
Cu902  O918    1.967   .     S
Cu902  O914    1.964   .     S
Cu902  O920    1.968   .     S
Cu902  N912    2.033   .     S
Cu902  O916    1.965   .     S
C929   O974    1.300   .     A
C929   O971    1.299   .     A
C929   C938    1.451   .     S
C930   O973    1.300   .     A
C930   C937    1.451   .     S
C930   O972    1.299   .     A
C931   F981    1.359   .     S
C931   C956    1.403   .     A
C932   C955    1.403   .     A
C932   F982    1.359   .     S
C932   C436    1.396   1_556 S
C933   H965    1.083   .     S
C933   C938    1.401   .     A
C934   H966    1.083   .     S
C934   C937    1.401   .     A
C934   C994    1.383   .     S
C935   H967    1.083   .     S
C935   C937    1.401   .     A
C935   C991    1.383   .     S
C936   C938    1.401   .     A
C936   H968    1.083   .     S
C939   Br983   1.926   .     S
C939   N970    1.376   .     A
C940   N969    1.376   .     A
C940   Br984   1.926   .     S
C940   C593    1.424   1_565 S
C941   N970    1.376   .     A
C941   Br985   1.928   .     S
C942   N969    1.376   .     A
C942   Br986   1.928   .     S
C942   C591    1.424   1_565 S
C943   O975    1.302   .     A
C943   C948    1.461   .     S
C943   O978    1.303   .     A
C944   O976    1.302   .     A
C944   O977    1.303   .     A
C944   C947    1.461   .     S
C945   H961    1.082   .     S
C945   C947    1.398   .     A
C945   C955    1.394   .     A
C946   H962    1.082   .     S
C946   C948    1.398   .     A
C946   C956    1.394   .     A
C947   C949    1.400   .     A
C948   C950    1.400   .     A
C949   H963    1.081   .     S
C949   C951    1.399   .     A
C950   C952    1.399   .     A
C950   H964    1.081   .     S
C951   C957    1.411   .     A
C951   C953    1.417   .     A
C952   C954    1.417   .     A
C952   C958    1.411   .     A
C953   C955    1.412   .     A
C953   C432    1.404   1_556 S
C954   C956    1.412   .     A
C957   Br979   1.926   .     S
C957   C409    1.396   1_556 S
C958   Br980   1.926   .     S
Cu959  Cu960   2.706   .     S
Cu959  N969    2.033   .     S
Cu959  O975    1.967   .     S
Cu959  O971    1.964   .     S
Cu959  O977    1.968   .     S
Cu959  O973    1.965   .     S
Cu960  O976    1.967   .     S
Cu960  O972    1.964   .     S
Cu960  O978    1.968   .     S
Cu960  N970    2.033   .     S
Cu960  O974    1.965   .     S
C987   O1032   1.300   .     A
C987   O1029   1.299   .     A
C987   C996    1.451   .     S
C988   O1031   1.300   .     A
C988   C995    1.451   .     S
C988   O1030   1.299   .     A
C989   F1039   1.359   .     S
C989   C1014   1.403   .     A
C990   C1013   1.403   .     A
C990   F1040   1.359   .     S
C990   C494    1.396   1_556 S
C991   H1023   1.083   .     S
C991   C996    1.401   .     A
C992   H1024   1.083   .     S
C992   C995    1.401   .     A
C992   C878    1.383   1_655 S
C993   H1025   1.083   .     S
C993   C995    1.401   .     A
C993   C875    1.383   1_655 S
C994   C996    1.401   .     A
C994   H1026   1.083   .     S
C997   Br1041  1.926   .     S
C997   N1028   1.376   .     A
C998   N1027   1.376   .     A
C998   Br1042  1.926   .     S
C998   C651    1.424   1_565 S
C999   N1028   1.376   .     A
C999   Br1043  1.928   .     S
C1000  N1027   1.376   .     A
C1000  Br1044  1.928   .     S
C1000  C649    1.424   1_565 S
C1001  O1033   1.302   .     A
C1001  C1006   1.461   .     S
C1001  O1036   1.303   .     A
C1002  O1034   1.302   .     A
C1002  O1035   1.303   .     A
C1002  C1005   1.461   .     S
C1003  H1019   1.082   .     S
C1003  C1005   1.398   .     A
C1003  C1013   1.394   .     A
C1004  H1020   1.082   .     S
C1004  C1006   1.398   .     A
C1004  C1014   1.394   .     A
C1005  C1007   1.400   .     A
C1006  C1008   1.400   .     A
C1007  H1021   1.081   .     S
C1007  C1009   1.399   .     A
C1008  C1010   1.399   .     A
C1008  H1022   1.081   .     S
C1009  C1015   1.411   .     A
C1009  C1011   1.417   .     A
C1010  C1012   1.417   .     A
C1010  C1016   1.411   .     A
C1011  C1013   1.412   .     A
C1011  C490    1.404   1_556 S
C1012  C1014   1.412   .     A
C1015  Br1037  1.926   .     S
C1015  C467    1.396   1_556 S
C1016  Br1038  1.926   .     S
Cu1017 Cu1018  2.706   .     S
Cu1017 N1027   2.033   .     S
Cu1017 O1033   1.967   .     S
Cu1017 O1029   1.964   .     S
Cu1017 O1035   1.968   .     S
Cu1017 O1031   1.965   .     S
Cu1018 O1034   1.967   .     S
Cu1018 O1030   1.964   .     S
Cu1018 O1036   1.968   .     S
Cu1018 N1028   2.033   .     S
Cu1018 O1032   1.965   .     S
