data_str_m2_o1_o16_pcu_sym.112
_audit_creation_date              2020-01-03
_audit_creation_method            'Materials Studio'
_symmetry_space_group_name_H-M    'P1'
_symmetry_Int_Tables_number       1
_symmetry_cell_setting            triclinic
loop_
_symmetry_equiv_pos_as_xyz
  x,y,z
_cell_length_a                    28.6669
_cell_length_b                    32.3963
_cell_length_c                    26.8894
_cell_angle_alpha                 90.7497
_cell_angle_beta                  71.9673
_cell_angle_gamma                 89.5646
loop_
_atom_site_label
_atom_site_type_symbol
_atom_site_fract_x
_atom_site_fract_y
_atom_site_fract_z
_atom_site_U_iso_or_equiv
_atom_site_adp_type
_atom_site_occupancy
C1     C     0.16711   0.24586   0.24800   0.00000  Uiso   1.00
C2     C     0.14587   0.16553   0.48932   0.00000  Uiso   1.00
C3     C     0.15660   0.15312   0.43612   0.00000  Uiso   1.00
C4     C     0.18166   0.15818   0.01521   0.00000  Uiso   1.00
C5     C     0.22563   0.13619   0.48877   0.00000  Uiso   1.00
C6     C     0.23333   0.12123   0.43809   0.00000  Uiso   1.00
C7     C     0.19902   0.12885   0.41253   0.00000  Uiso   1.00
C8     C     0.17486   0.17125   0.06699   0.00000  Uiso   1.00
C9     C     0.25174   0.13950   0.06629   0.00000  Uiso   1.00
C10    C     0.12428   0.16487   0.40798   0.00000  Uiso   1.00
C11    C     0.19631   0.31174   0.27105   0.00000  Uiso   1.00
C12    C     0.14031   0.16487   0.35018   0.00000  Uiso   1.00
C13    C     0.19646   0.02107   0.27210   0.00000  Uiso   1.00
C14    C     0.16730   0.04290   0.24828   0.00000  Uiso   1.00
C15    C     0.13908   0.02219   0.22198   0.00000  Uiso   1.00
C16    C     0.14014   0.31258   0.21856   0.00000  Uiso   1.00
C17    C     0.16787   0.29055   0.24517   0.00000  Uiso   1.00
C18    C     0.30051   0.19732   0.27468   0.00000  Uiso   1.00
C19    C     0.01638   0.19770   0.27496   0.00000  Uiso   1.00
C20    C     0.03243   0.13616   0.22461   0.00000  Uiso   1.00
C21    C     0.31627   0.13621   0.22458   0.00000  Uiso   1.00
C22    C     0.16683   0.08746   0.24978   0.00000  Uiso   1.00
C23    C     0.19306   0.16592   0.14996   0.00000  Uiso   1.00
C24    C     0.26074   0.12796   0.01408   0.00000  Uiso   1.00
C25    C     0.20824   0.16045   0.09310   0.00000  Uiso   1.00
C26    C     0.07798   0.18154   0.43507   0.00000  Uiso   1.00
C27    C     0.06498   0.19088   0.48848   0.00000  Uiso   1.00
C28    C     0.09957   0.18431   0.01471   0.00000  Uiso   1.00
Cu29   Cu    0.11978   0.16666   0.25000   0.00000  Uiso   1.00
Cu30   Cu    0.21355   0.16667   0.25000   0.00000  Uiso   1.00
H31    H     0.27770   0.13054   0.08621   0.00000  Uiso   1.00
H32    H     0.21839   0.03699   0.29253   0.00000  Uiso   1.00
H33    H     0.11802   0.03970   0.20205   0.00000  Uiso   1.00
H34    H     0.27519   0.22158   0.29473   0.00000  Uiso   1.00
H35    H     0.05711   0.11174   0.20407   0.00000  Uiso   1.00
H36    H     0.30392   0.11179   0.20404   0.00000  Uiso   1.00
H37    H     0.29429   0.11117   0.49406   0.00000  Uiso   1.00
H38    H     0.14320   0.18900   0.08897   0.00000  Uiso   1.00
H39    H     0.05218   0.18845   0.41427   0.00000  Uiso   1.00
H40    H     0.08930   0.19430   0.05487   0.00000  Uiso   1.00
H41    H     0.20568   0.11433   0.37452   0.00000  Uiso   1.00
H42    H     0.21788   0.29525   0.29129   0.00000  Uiso   1.00
N43    N     0.04931   0.16666   0.24998   0.00000  Uiso   1.00
N44    N     0.28402   0.16669   0.24999   0.00000  Uiso   1.00
O45    O     0.12708   0.22678   0.25000   0.00000  Uiso   1.00
O46    O     0.20627   0.22679   0.25000   0.00000  Uiso   1.00
O47    O     0.10775   0.16665   0.32549   0.00000  Uiso   1.00
O48    O     0.18694   0.16666   0.32549   0.00000  Uiso   1.00
O49    O     0.12706   0.10654   0.24999   0.00000  Uiso   1.00
O50    O     0.20625   0.10655   0.24999   0.00000  Uiso   1.00
O51    O     0.14640   0.16667   0.17451   0.00000  Uiso   1.00
O52    O     0.22559   0.16668   0.17451   0.00000  Uiso   1.00
C53    C     0.11453   0.29257   0.18445   0.00000  Uiso   1.00
O54    O     0.13199   0.26168   0.15856   0.00000  Uiso   1.00
O55    O     0.07137   0.31031   0.18007   0.00000  Uiso   1.00
H56    H     0.05752   0.29415   0.15542   0.00000  Uiso   1.00
C57    C     0.02986   0.23341   0.30188   0.00000  Uiso   1.00
O58    O     0.04707   0.22849   0.33755   0.00000  Uiso   1.00
O59    O     0.01964   0.27327   0.28851   0.00000  Uiso   1.00
H60    H     0.02996   0.29543   0.30981   0.00000  Uiso   1.00
H61    H     0.26582   0.10302   0.41827   0.00000  Uiso   1.00
C62    C     0.01632   0.21046   0.01570   0.00000  Uiso   1.00
O63    O     0.32802   0.22934   0.49032   0.00000  Uiso   1.00
O64    O     0.32750   0.20803   0.06984   0.00000  Uiso   1.00
H65    H     0.00977   0.18690   0.08732   0.00000  Uiso   1.00
C66    C     0.50044   0.24586   0.24800   0.00000  Uiso   1.00
C67    C     0.47920   0.16553   0.48932   0.00000  Uiso   1.00
C68    C     0.48994   0.15312   0.43612   0.00000  Uiso   1.00
C69    C     0.51500   0.15818   0.01521   0.00000  Uiso   1.00
C70    C     0.55896   0.13619   0.48877   0.00000  Uiso   1.00
C71    C     0.56666   0.12123   0.43809   0.00000  Uiso   1.00
C72    C     0.53236   0.12885   0.41253   0.00000  Uiso   1.00
C73    C     0.50820   0.17125   0.06699   0.00000  Uiso   1.00
C74    C     0.58508   0.13950   0.06629   0.00000  Uiso   1.00
C75    C     0.45761   0.16487   0.40798   0.00000  Uiso   1.00
C76    C     0.52964   0.31174   0.27105   0.00000  Uiso   1.00
C77    C     0.47364   0.16487   0.35018   0.00000  Uiso   1.00
C78    C     0.52979   0.02107   0.27210   0.00000  Uiso   1.00
C79    C     0.50063   0.04290   0.24828   0.00000  Uiso   1.00
C80    C     0.47241   0.02219   0.22198   0.00000  Uiso   1.00
C81    C     0.47347   0.31258   0.21856   0.00000  Uiso   1.00
C82    C     0.50120   0.29055   0.24517   0.00000  Uiso   1.00
C83    C     0.63384   0.19732   0.27468   0.00000  Uiso   1.00
C84    C     0.34971   0.19770   0.27496   0.00000  Uiso   1.00
C85    C     0.36577   0.13616   0.22461   0.00000  Uiso   1.00
C86    C     0.64960   0.13621   0.22458   0.00000  Uiso   1.00
C87    C     0.50017   0.08746   0.24978   0.00000  Uiso   1.00
C88    C     0.52640   0.16592   0.14996   0.00000  Uiso   1.00
C89    C     0.59407   0.12796   0.01408   0.00000  Uiso   1.00
C90    C     0.54158   0.16045   0.09310   0.00000  Uiso   1.00
C91    C     0.41131   0.18154   0.43507   0.00000  Uiso   1.00
C92    C     0.39832   0.19088   0.48848   0.00000  Uiso   1.00
C93    C     0.43290   0.18431   0.01471   0.00000  Uiso   1.00
Cu94   Cu    0.45311   0.16666   0.25000   0.00000  Uiso   1.00
Cu95   Cu    0.54689   0.16667   0.25000   0.00000  Uiso   1.00
H96    H     0.61104   0.13054   0.08621   0.00000  Uiso   1.00
H97    H     0.55173   0.03699   0.29253   0.00000  Uiso   1.00
H98    H     0.45135   0.03970   0.20205   0.00000  Uiso   1.00
H99    H     0.60853   0.22158   0.29473   0.00000  Uiso   1.00
H100   H     0.39044   0.11174   0.20407   0.00000  Uiso   1.00
H101   H     0.63725   0.11179   0.20404   0.00000  Uiso   1.00
H102   H     0.62763   0.11117   0.49406   0.00000  Uiso   1.00
H103   H     0.47653   0.18900   0.08897   0.00000  Uiso   1.00
H104   H     0.38552   0.18845   0.41427   0.00000  Uiso   1.00
H105   H     0.42264   0.19430   0.05487   0.00000  Uiso   1.00
H106   H     0.53901   0.11433   0.37452   0.00000  Uiso   1.00
H107   H     0.55121   0.29525   0.29129   0.00000  Uiso   1.00
N108   N     0.38265   0.16666   0.24998   0.00000  Uiso   1.00
N109   N     0.61735   0.16669   0.24999   0.00000  Uiso   1.00
O110   O     0.46042   0.22678   0.25000   0.00000  Uiso   1.00
O111   O     0.53961   0.22679   0.25000   0.00000  Uiso   1.00
O112   O     0.44108   0.16665   0.32549   0.00000  Uiso   1.00
O113   O     0.52027   0.16666   0.32549   0.00000  Uiso   1.00
O114   O     0.46039   0.10654   0.24999   0.00000  Uiso   1.00
O115   O     0.53958   0.10655   0.24999   0.00000  Uiso   1.00
O116   O     0.47973   0.16667   0.17451   0.00000  Uiso   1.00
O117   O     0.55892   0.16668   0.17451   0.00000  Uiso   1.00
C118   C     0.44786   0.29257   0.18445   0.00000  Uiso   1.00
O119   O     0.46532   0.26168   0.15856   0.00000  Uiso   1.00
O120   O     0.40470   0.31031   0.18007   0.00000  Uiso   1.00
H121   H     0.39085   0.29415   0.15542   0.00000  Uiso   1.00
C122   C     0.36320   0.23341   0.30188   0.00000  Uiso   1.00
O123   O     0.38040   0.22849   0.33755   0.00000  Uiso   1.00
O124   O     0.35297   0.27327   0.28851   0.00000  Uiso   1.00
H125   H     0.36329   0.29543   0.30981   0.00000  Uiso   1.00
H126   H     0.59915   0.10302   0.41827   0.00000  Uiso   1.00
C127   C     0.34965   0.21046   0.01570   0.00000  Uiso   1.00
O128   O     0.66135   0.22934   0.49032   0.00000  Uiso   1.00
O129   O     0.66084   0.20803   0.06984   0.00000  Uiso   1.00
H130   H     0.34311   0.18690   0.08732   0.00000  Uiso   1.00
C131   C     0.83378   0.24586   0.24800   0.00000  Uiso   1.00
C132   C     0.81253   0.16553   0.48932   0.00000  Uiso   1.00
C133   C     0.82327   0.15312   0.43612   0.00000  Uiso   1.00
C134   C     0.84833   0.15818   0.01521   0.00000  Uiso   1.00
C135   C     0.89230   0.13619   0.48877   0.00000  Uiso   1.00
C136   C     0.90000   0.12123   0.43809   0.00000  Uiso   1.00
C137   C     0.86569   0.12885   0.41253   0.00000  Uiso   1.00
C138   C     0.84153   0.17125   0.06699   0.00000  Uiso   1.00
C139   C     0.91841   0.13950   0.06629   0.00000  Uiso   1.00
C140   C     0.79095   0.16487   0.40798   0.00000  Uiso   1.00
C141   C     0.86297   0.31174   0.27105   0.00000  Uiso   1.00
C142   C     0.80697   0.16487   0.35018   0.00000  Uiso   1.00
C143   C     0.86313   0.02107   0.27210   0.00000  Uiso   1.00
C144   C     0.83397   0.04290   0.24828   0.00000  Uiso   1.00
C145   C     0.80575   0.02219   0.22198   0.00000  Uiso   1.00
C146   C     0.80681   0.31258   0.21856   0.00000  Uiso   1.00
C147   C     0.83453   0.29055   0.24517   0.00000  Uiso   1.00
C148   C     0.96718   0.19732   0.27468   0.00000  Uiso   1.00
C149   C     0.68305   0.19770   0.27496   0.00000  Uiso   1.00
C150   C     0.69910   0.13616   0.22461   0.00000  Uiso   1.00
C151   C     0.98293   0.13621   0.22458   0.00000  Uiso   1.00
C152   C     0.83350   0.08746   0.24978   0.00000  Uiso   1.00
C153   C     0.85973   0.16592   0.14996   0.00000  Uiso   1.00
C154   C     0.92740   0.12796   0.01408   0.00000  Uiso   1.00
C155   C     0.87491   0.16045   0.09310   0.00000  Uiso   1.00
C156   C     0.74465   0.18154   0.43507   0.00000  Uiso   1.00
C157   C     0.73165   0.19088   0.48848   0.00000  Uiso   1.00
C158   C     0.76623   0.18431   0.01471   0.00000  Uiso   1.00
Cu159  Cu    0.78645   0.16666   0.25000   0.00000  Uiso   1.00
Cu160  Cu    0.88022   0.16667   0.25000   0.00000  Uiso   1.00
H161   H     0.94437   0.13054   0.08621   0.00000  Uiso   1.00
H162   H     0.88506   0.03699   0.29253   0.00000  Uiso   1.00
H163   H     0.78469   0.03970   0.20205   0.00000  Uiso   1.00
H164   H     0.94186   0.22158   0.29473   0.00000  Uiso   1.00
H165   H     0.72378   0.11174   0.20407   0.00000  Uiso   1.00
H166   H     0.97058   0.11179   0.20404   0.00000  Uiso   1.00
H167   H     0.96096   0.11117   0.49406   0.00000  Uiso   1.00
H168   H     0.80987   0.18900   0.08897   0.00000  Uiso   1.00
H169   H     0.71885   0.18845   0.41427   0.00000  Uiso   1.00
H170   H     0.75597   0.19430   0.05487   0.00000  Uiso   1.00
H171   H     0.87235   0.11433   0.37452   0.00000  Uiso   1.00
H172   H     0.88455   0.29525   0.29129   0.00000  Uiso   1.00
N173   N     0.71598   0.16666   0.24998   0.00000  Uiso   1.00
N174   N     0.95069   0.16669   0.24999   0.00000  Uiso   1.00
O175   O     0.79375   0.22678   0.25000   0.00000  Uiso   1.00
O176   O     0.87294   0.22679   0.25000   0.00000  Uiso   1.00
O177   O     0.77441   0.16665   0.32549   0.00000  Uiso   1.00
O178   O     0.85360   0.16666   0.32549   0.00000  Uiso   1.00
O179   O     0.79373   0.10654   0.24999   0.00000  Uiso   1.00
O180   O     0.87292   0.10655   0.24999   0.00000  Uiso   1.00
O181   O     0.81306   0.16667   0.17451   0.00000  Uiso   1.00
O182   O     0.89225   0.16668   0.17451   0.00000  Uiso   1.00
C183   C     0.78119   0.29257   0.18445   0.00000  Uiso   1.00
O184   O     0.79865   0.26168   0.15856   0.00000  Uiso   1.00
O185   O     0.73803   0.31031   0.18007   0.00000  Uiso   1.00
H186   H     0.72418   0.29415   0.15542   0.00000  Uiso   1.00
C187   C     0.69653   0.23341   0.30188   0.00000  Uiso   1.00
O188   O     0.71373   0.22849   0.33755   0.00000  Uiso   1.00
O189   O     0.68630   0.27327   0.28851   0.00000  Uiso   1.00
H190   H     0.69663   0.29543   0.30981   0.00000  Uiso   1.00
H191   H     0.93248   0.10302   0.41827   0.00000  Uiso   1.00
C192   C     0.68298   0.21046   0.01570   0.00000  Uiso   1.00
O193   O     0.99468   0.22934   0.49032   0.00000  Uiso   1.00
O194   O     0.99417   0.20803   0.06984   0.00000  Uiso   1.00
H195   H     0.67644   0.18690   0.08732   0.00000  Uiso   1.00
C196   C     0.16711   0.57920   0.24800   0.00000  Uiso   1.00
C197   C     0.14587   0.49886   0.48932   0.00000  Uiso   1.00
C198   C     0.15660   0.48645   0.43612   0.00000  Uiso   1.00
C199   C     0.18166   0.49151   0.01521   0.00000  Uiso   1.00
C200   C     0.22563   0.46953   0.48877   0.00000  Uiso   1.00
C201   C     0.23333   0.45456   0.43809   0.00000  Uiso   1.00
C202   C     0.19902   0.46218   0.41253   0.00000  Uiso   1.00
C203   C     0.17486   0.50458   0.06699   0.00000  Uiso   1.00
C204   C     0.25174   0.47284   0.06629   0.00000  Uiso   1.00
C205   C     0.12428   0.49820   0.40798   0.00000  Uiso   1.00
C206   C     0.19631   0.64508   0.27105   0.00000  Uiso   1.00
C207   C     0.14031   0.49820   0.35018   0.00000  Uiso   1.00
C208   C     0.19646   0.35440   0.27210   0.00000  Uiso   1.00
C209   C     0.16730   0.37624   0.24828   0.00000  Uiso   1.00
C210   C     0.13908   0.35552   0.22198   0.00000  Uiso   1.00
C211   C     0.14014   0.64592   0.21856   0.00000  Uiso   1.00
C212   C     0.16787   0.62389   0.24517   0.00000  Uiso   1.00
C213   C     0.30051   0.53066   0.27468   0.00000  Uiso   1.00
C214   C     0.01638   0.53103   0.27496   0.00000  Uiso   1.00
C215   C     0.03243   0.46949   0.22461   0.00000  Uiso   1.00
C216   C     0.31627   0.46954   0.22458   0.00000  Uiso   1.00
C217   C     0.16683   0.42079   0.24978   0.00000  Uiso   1.00
C218   C     0.19306   0.49925   0.14996   0.00000  Uiso   1.00
C219   C     0.26074   0.46130   0.01408   0.00000  Uiso   1.00
C220   C     0.20824   0.49378   0.09310   0.00000  Uiso   1.00
C221   C     0.07798   0.51487   0.43507   0.00000  Uiso   1.00
C222   C     0.06498   0.52421   0.48848   0.00000  Uiso   1.00
C223   C     0.09957   0.51764   0.01471   0.00000  Uiso   1.00
Cu224  Cu    0.11978   0.49999   0.25000   0.00000  Uiso   1.00
Cu225  Cu    0.21355   0.50001   0.25000   0.00000  Uiso   1.00
H226   H     0.27770   0.46387   0.08621   0.00000  Uiso   1.00
H227   H     0.21839   0.37032   0.29253   0.00000  Uiso   1.00
H228   H     0.11802   0.37304   0.20205   0.00000  Uiso   1.00
H229   H     0.27519   0.55491   0.29473   0.00000  Uiso   1.00
H230   H     0.05711   0.44507   0.20407   0.00000  Uiso   1.00
H231   H     0.30392   0.44513   0.20404   0.00000  Uiso   1.00
H232   H     0.29429   0.44450   0.49406   0.00000  Uiso   1.00
H233   H     0.14320   0.52234   0.08897   0.00000  Uiso   1.00
H234   H     0.05218   0.52179   0.41427   0.00000  Uiso   1.00
H235   H     0.08930   0.52764   0.05487   0.00000  Uiso   1.00
H236   H     0.20568   0.44766   0.37452   0.00000  Uiso   1.00
H237   H     0.21788   0.62859   0.29129   0.00000  Uiso   1.00
N238   N     0.04931   0.49999   0.24998   0.00000  Uiso   1.00
N239   N     0.28402   0.50002   0.24999   0.00000  Uiso   1.00
O240   O     0.12708   0.56011   0.25000   0.00000  Uiso   1.00
O241   O     0.20627   0.56012   0.25000   0.00000  Uiso   1.00
O242   O     0.10775   0.49998   0.32549   0.00000  Uiso   1.00
O243   O     0.18694   0.49999   0.32549   0.00000  Uiso   1.00
O244   O     0.12706   0.43988   0.24999   0.00000  Uiso   1.00
O245   O     0.20625   0.43989   0.24999   0.00000  Uiso   1.00
O246   O     0.14640   0.50001   0.17451   0.00000  Uiso   1.00
O247   O     0.22559   0.50002   0.17451   0.00000  Uiso   1.00
C248   C     0.11453   0.62591   0.18445   0.00000  Uiso   1.00
O249   O     0.13199   0.59501   0.15856   0.00000  Uiso   1.00
O250   O     0.07137   0.64365   0.18007   0.00000  Uiso   1.00
H251   H     0.05752   0.62749   0.15542   0.00000  Uiso   1.00
C252   C     0.02986   0.56674   0.30188   0.00000  Uiso   1.00
O253   O     0.04707   0.56182   0.33755   0.00000  Uiso   1.00
O254   O     0.01964   0.60661   0.28851   0.00000  Uiso   1.00
H255   H     0.02996   0.62876   0.30981   0.00000  Uiso   1.00
H256   H     0.26582   0.43635   0.41827   0.00000  Uiso   1.00
C257   C     0.01632   0.54379   0.01570   0.00000  Uiso   1.00
O258   O     0.32802   0.56267   0.49032   0.00000  Uiso   1.00
O259   O     0.32750   0.54136   0.06984   0.00000  Uiso   1.00
H260   H     0.00977   0.52024   0.08732   0.00000  Uiso   1.00
C261   C     0.50044   0.57920   0.24800   0.00000  Uiso   1.00
C262   C     0.47920   0.49886   0.48932   0.00000  Uiso   1.00
C263   C     0.48994   0.48645   0.43612   0.00000  Uiso   1.00
C264   C     0.51500   0.49151   0.01521   0.00000  Uiso   1.00
C265   C     0.55896   0.46953   0.48877   0.00000  Uiso   1.00
C266   C     0.56666   0.45456   0.43809   0.00000  Uiso   1.00
C267   C     0.53236   0.46218   0.41253   0.00000  Uiso   1.00
C268   C     0.50820   0.50458   0.06699   0.00000  Uiso   1.00
C269   C     0.58508   0.47284   0.06629   0.00000  Uiso   1.00
C270   C     0.45761   0.49820   0.40798   0.00000  Uiso   1.00
C271   C     0.52964   0.64508   0.27105   0.00000  Uiso   1.00
C272   C     0.47364   0.49820   0.35018   0.00000  Uiso   1.00
C273   C     0.52979   0.35440   0.27210   0.00000  Uiso   1.00
C274   C     0.50063   0.37624   0.24828   0.00000  Uiso   1.00
C275   C     0.47241   0.35552   0.22198   0.00000  Uiso   1.00
C276   C     0.47347   0.64592   0.21856   0.00000  Uiso   1.00
C277   C     0.50120   0.62389   0.24517   0.00000  Uiso   1.00
C278   C     0.63384   0.53066   0.27468   0.00000  Uiso   1.00
C279   C     0.34971   0.53103   0.27496   0.00000  Uiso   1.00
C280   C     0.36577   0.46949   0.22461   0.00000  Uiso   1.00
C281   C     0.64960   0.46954   0.22458   0.00000  Uiso   1.00
C282   C     0.50017   0.42079   0.24978   0.00000  Uiso   1.00
C283   C     0.52640   0.49925   0.14996   0.00000  Uiso   1.00
C284   C     0.59407   0.46130   0.01408   0.00000  Uiso   1.00
C285   C     0.54158   0.49378   0.09310   0.00000  Uiso   1.00
C286   C     0.41131   0.51487   0.43507   0.00000  Uiso   1.00
C287   C     0.39832   0.52421   0.48848   0.00000  Uiso   1.00
C288   C     0.43290   0.51764   0.01471   0.00000  Uiso   1.00
Cu289  Cu    0.45311   0.49999   0.25000   0.00000  Uiso   1.00
Cu290  Cu    0.54689   0.50001   0.25000   0.00000  Uiso   1.00
H291   H     0.61104   0.46387   0.08621   0.00000  Uiso   1.00
H292   H     0.55173   0.37032   0.29253   0.00000  Uiso   1.00
H293   H     0.45135   0.37304   0.20205   0.00000  Uiso   1.00
H294   H     0.60853   0.55491   0.29473   0.00000  Uiso   1.00
H295   H     0.39044   0.44507   0.20407   0.00000  Uiso   1.00
H296   H     0.63725   0.44513   0.20404   0.00000  Uiso   1.00
H297   H     0.62763   0.44450   0.49406   0.00000  Uiso   1.00
H298   H     0.47653   0.52234   0.08897   0.00000  Uiso   1.00
H299   H     0.38552   0.52179   0.41427   0.00000  Uiso   1.00
H300   H     0.42264   0.52764   0.05487   0.00000  Uiso   1.00
H301   H     0.53901   0.44766   0.37452   0.00000  Uiso   1.00
H302   H     0.55121   0.62859   0.29129   0.00000  Uiso   1.00
N303   N     0.38265   0.49999   0.24998   0.00000  Uiso   1.00
N304   N     0.61735   0.50002   0.24999   0.00000  Uiso   1.00
O305   O     0.46042   0.56011   0.25000   0.00000  Uiso   1.00
O306   O     0.53961   0.56012   0.25000   0.00000  Uiso   1.00
O307   O     0.44108   0.49998   0.32549   0.00000  Uiso   1.00
O308   O     0.52027   0.49999   0.32549   0.00000  Uiso   1.00
O309   O     0.46039   0.43988   0.24999   0.00000  Uiso   1.00
O310   O     0.53958   0.43989   0.24999   0.00000  Uiso   1.00
O311   O     0.47973   0.50001   0.17451   0.00000  Uiso   1.00
O312   O     0.55892   0.50002   0.17451   0.00000  Uiso   1.00
C313   C     0.44786   0.62591   0.18445   0.00000  Uiso   1.00
O314   O     0.46532   0.59501   0.15856   0.00000  Uiso   1.00
O315   O     0.40470   0.64365   0.18007   0.00000  Uiso   1.00
H316   H     0.39085   0.62749   0.15542   0.00000  Uiso   1.00
C317   C     0.36320   0.56674   0.30188   0.00000  Uiso   1.00
O318   O     0.38040   0.56182   0.33755   0.00000  Uiso   1.00
O319   O     0.35297   0.60661   0.28851   0.00000  Uiso   1.00
H320   H     0.36329   0.62876   0.30981   0.00000  Uiso   1.00
H321   H     0.59915   0.43635   0.41827   0.00000  Uiso   1.00
C322   C     0.34965   0.54379   0.01570   0.00000  Uiso   1.00
O323   O     0.66135   0.56267   0.49032   0.00000  Uiso   1.00
O324   O     0.66084   0.54136   0.06984   0.00000  Uiso   1.00
H325   H     0.34311   0.52024   0.08732   0.00000  Uiso   1.00
C326   C     0.83378   0.57920   0.24800   0.00000  Uiso   1.00
C327   C     0.81253   0.49886   0.48932   0.00000  Uiso   1.00
C328   C     0.82327   0.48645   0.43612   0.00000  Uiso   1.00
C329   C     0.84833   0.49151   0.01521   0.00000  Uiso   1.00
C330   C     0.89230   0.46953   0.48877   0.00000  Uiso   1.00
C331   C     0.90000   0.45456   0.43809   0.00000  Uiso   1.00
C332   C     0.86569   0.46218   0.41253   0.00000  Uiso   1.00
C333   C     0.84153   0.50458   0.06699   0.00000  Uiso   1.00
C334   C     0.91841   0.47284   0.06629   0.00000  Uiso   1.00
C335   C     0.79095   0.49820   0.40798   0.00000  Uiso   1.00
C336   C     0.86297   0.64508   0.27105   0.00000  Uiso   1.00
C337   C     0.80697   0.49820   0.35018   0.00000  Uiso   1.00
C338   C     0.86313   0.35440   0.27210   0.00000  Uiso   1.00
C339   C     0.83397   0.37624   0.24828   0.00000  Uiso   1.00
C340   C     0.80575   0.35552   0.22198   0.00000  Uiso   1.00
C341   C     0.80681   0.64592   0.21856   0.00000  Uiso   1.00
C342   C     0.83453   0.62389   0.24517   0.00000  Uiso   1.00
C343   C     0.96718   0.53066   0.27468   0.00000  Uiso   1.00
C344   C     0.68305   0.53103   0.27496   0.00000  Uiso   1.00
C345   C     0.69910   0.46949   0.22461   0.00000  Uiso   1.00
C346   C     0.98293   0.46954   0.22458   0.00000  Uiso   1.00
C347   C     0.83350   0.42079   0.24978   0.00000  Uiso   1.00
C348   C     0.85973   0.49925   0.14996   0.00000  Uiso   1.00
C349   C     0.92740   0.46130   0.01408   0.00000  Uiso   1.00
C350   C     0.87491   0.49378   0.09310   0.00000  Uiso   1.00
C351   C     0.74465   0.51487   0.43507   0.00000  Uiso   1.00
C352   C     0.73165   0.52421   0.48848   0.00000  Uiso   1.00
C353   C     0.76623   0.51764   0.01471   0.00000  Uiso   1.00
Cu354  Cu    0.78645   0.49999   0.25000   0.00000  Uiso   1.00
Cu355  Cu    0.88022   0.50001   0.25000   0.00000  Uiso   1.00
H356   H     0.94437   0.46387   0.08621   0.00000  Uiso   1.00
H357   H     0.88506   0.37032   0.29253   0.00000  Uiso   1.00
H358   H     0.78469   0.37304   0.20205   0.00000  Uiso   1.00
H359   H     0.94186   0.55491   0.29473   0.00000  Uiso   1.00
H360   H     0.72378   0.44507   0.20407   0.00000  Uiso   1.00
H361   H     0.97058   0.44513   0.20404   0.00000  Uiso   1.00
H362   H     0.96096   0.44450   0.49406   0.00000  Uiso   1.00
H363   H     0.80987   0.52234   0.08897   0.00000  Uiso   1.00
H364   H     0.71885   0.52179   0.41427   0.00000  Uiso   1.00
H365   H     0.75597   0.52764   0.05487   0.00000  Uiso   1.00
H366   H     0.87235   0.44766   0.37452   0.00000  Uiso   1.00
H367   H     0.88455   0.62859   0.29129   0.00000  Uiso   1.00
N368   N     0.71598   0.49999   0.24998   0.00000  Uiso   1.00
N369   N     0.95069   0.50002   0.24999   0.00000  Uiso   1.00
O370   O     0.79375   0.56011   0.25000   0.00000  Uiso   1.00
O371   O     0.87294   0.56012   0.25000   0.00000  Uiso   1.00
O372   O     0.77441   0.49998   0.32549   0.00000  Uiso   1.00
O373   O     0.85360   0.49999   0.32549   0.00000  Uiso   1.00
O374   O     0.79373   0.43988   0.24999   0.00000  Uiso   1.00
O375   O     0.87292   0.43989   0.24999   0.00000  Uiso   1.00
O376   O     0.81306   0.50001   0.17451   0.00000  Uiso   1.00
O377   O     0.89225   0.50002   0.17451   0.00000  Uiso   1.00
C378   C     0.78119   0.62591   0.18445   0.00000  Uiso   1.00
O379   O     0.79865   0.59501   0.15856   0.00000  Uiso   1.00
O380   O     0.73803   0.64365   0.18007   0.00000  Uiso   1.00
H381   H     0.72418   0.62749   0.15542   0.00000  Uiso   1.00
C382   C     0.69653   0.56674   0.30188   0.00000  Uiso   1.00
O383   O     0.71373   0.56182   0.33755   0.00000  Uiso   1.00
O384   O     0.68630   0.60661   0.28851   0.00000  Uiso   1.00
H385   H     0.69663   0.62876   0.30981   0.00000  Uiso   1.00
H386   H     0.93248   0.43635   0.41827   0.00000  Uiso   1.00
C387   C     0.68298   0.54379   0.01570   0.00000  Uiso   1.00
O388   O     0.99468   0.56267   0.49032   0.00000  Uiso   1.00
O389   O     0.99417   0.54136   0.06984   0.00000  Uiso   1.00
H390   H     0.67644   0.52024   0.08732   0.00000  Uiso   1.00
C391   C     0.16711   0.91253   0.24800   0.00000  Uiso   1.00
C392   C     0.14587   0.83220   0.48932   0.00000  Uiso   1.00
C393   C     0.15660   0.81979   0.43612   0.00000  Uiso   1.00
C394   C     0.18166   0.82485   0.01521   0.00000  Uiso   1.00
C395   C     0.22563   0.80286   0.48877   0.00000  Uiso   1.00
C396   C     0.23333   0.78789   0.43809   0.00000  Uiso   1.00
C397   C     0.19902   0.79552   0.41253   0.00000  Uiso   1.00
C398   C     0.17486   0.83791   0.06699   0.00000  Uiso   1.00
C399   C     0.25174   0.80617   0.06629   0.00000  Uiso   1.00
C400   C     0.12428   0.83154   0.40798   0.00000  Uiso   1.00
C401   C     0.19631   0.97841   0.27105   0.00000  Uiso   1.00
C402   C     0.14031   0.83153   0.35018   0.00000  Uiso   1.00
C403   C     0.19646   0.68773   0.27210   0.00000  Uiso   1.00
C404   C     0.16730   0.70957   0.24828   0.00000  Uiso   1.00
C405   C     0.13908   0.68886   0.22198   0.00000  Uiso   1.00
C406   C     0.14014   0.97925   0.21856   0.00000  Uiso   1.00
C407   C     0.16787   0.95722   0.24517   0.00000  Uiso   1.00
C408   C     0.30051   0.86399   0.27468   0.00000  Uiso   1.00
C409   C     0.01638   0.86436   0.27496   0.00000  Uiso   1.00
C410   C     0.03243   0.80283   0.22461   0.00000  Uiso   1.00
C411   C     0.31627   0.80288   0.22458   0.00000  Uiso   1.00
C412   C     0.16683   0.75412   0.24978   0.00000  Uiso   1.00
C413   C     0.19306   0.83259   0.14996   0.00000  Uiso   1.00
C414   C     0.26074   0.79463   0.01408   0.00000  Uiso   1.00
C415   C     0.20824   0.82711   0.09310   0.00000  Uiso   1.00
C416   C     0.07798   0.84820   0.43507   0.00000  Uiso   1.00
C417   C     0.06498   0.85755   0.48848   0.00000  Uiso   1.00
C418   C     0.09957   0.85098   0.01471   0.00000  Uiso   1.00
Cu419  Cu    0.11978   0.83333   0.25000   0.00000  Uiso   1.00
Cu420  Cu    0.21355   0.83334   0.25000   0.00000  Uiso   1.00
H421   H     0.27770   0.79720   0.08621   0.00000  Uiso   1.00
H422   H     0.21839   0.70366   0.29253   0.00000  Uiso   1.00
H423   H     0.11802   0.70637   0.20205   0.00000  Uiso   1.00
H424   H     0.27519   0.88824   0.29473   0.00000  Uiso   1.00
H425   H     0.05711   0.77841   0.20407   0.00000  Uiso   1.00
H426   H     0.30392   0.77846   0.20404   0.00000  Uiso   1.00
H427   H     0.29429   0.77783   0.49406   0.00000  Uiso   1.00
H428   H     0.14320   0.85567   0.08897   0.00000  Uiso   1.00
H429   H     0.05218   0.85512   0.41427   0.00000  Uiso   1.00
H430   H     0.08930   0.86097   0.05487   0.00000  Uiso   1.00
H431   H     0.20568   0.78099   0.37452   0.00000  Uiso   1.00
H432   H     0.21788   0.96192   0.29129   0.00000  Uiso   1.00
N433   N     0.04931   0.83332   0.24998   0.00000  Uiso   1.00
N434   N     0.28402   0.83335   0.24999   0.00000  Uiso   1.00
O435   O     0.12708   0.89345   0.25000   0.00000  Uiso   1.00
O436   O     0.20627   0.89346   0.25000   0.00000  Uiso   1.00
O437   O     0.10775   0.83332   0.32549   0.00000  Uiso   1.00
O438   O     0.18694   0.83333   0.32549   0.00000  Uiso   1.00
O439   O     0.12706   0.77321   0.24999   0.00000  Uiso   1.00
O440   O     0.20625   0.77322   0.24999   0.00000  Uiso   1.00
O441   O     0.14640   0.83334   0.17451   0.00000  Uiso   1.00
O442   O     0.22559   0.83335   0.17451   0.00000  Uiso   1.00
C443   C     0.11453   0.95924   0.18445   0.00000  Uiso   1.00
O444   O     0.13199   0.92834   0.15856   0.00000  Uiso   1.00
O445   O     0.07137   0.97698   0.18007   0.00000  Uiso   1.00
H446   H     0.05752   0.96082   0.15542   0.00000  Uiso   1.00
C447   C     0.02986   0.90008   0.30188   0.00000  Uiso   1.00
O448   O     0.04707   0.89516   0.33755   0.00000  Uiso   1.00
O449   O     0.01964   0.93994   0.28851   0.00000  Uiso   1.00
H450   H     0.02996   0.96209   0.30981   0.00000  Uiso   1.00
H451   H     0.26582   0.76968   0.41827   0.00000  Uiso   1.00
C452   C     0.01632   0.87712   0.01570   0.00000  Uiso   1.00
O453   O     0.32802   0.89601   0.49032   0.00000  Uiso   1.00
O454   O     0.32750   0.87469   0.06984   0.00000  Uiso   1.00
H455   H     0.00977   0.85357   0.08732   0.00000  Uiso   1.00
C456   C     0.50044   0.91253   0.24800   0.00000  Uiso   1.00
C457   C     0.47920   0.83220   0.48932   0.00000  Uiso   1.00
C458   C     0.48994   0.81979   0.43612   0.00000  Uiso   1.00
C459   C     0.51500   0.82485   0.01521   0.00000  Uiso   1.00
C460   C     0.55896   0.80286   0.48877   0.00000  Uiso   1.00
C461   C     0.56666   0.78789   0.43809   0.00000  Uiso   1.00
C462   C     0.53236   0.79552   0.41253   0.00000  Uiso   1.00
C463   C     0.50820   0.83791   0.06699   0.00000  Uiso   1.00
C464   C     0.58508   0.80617   0.06629   0.00000  Uiso   1.00
C465   C     0.45761   0.83154   0.40798   0.00000  Uiso   1.00
C466   C     0.52964   0.97841   0.27105   0.00000  Uiso   1.00
C467   C     0.47364   0.83153   0.35018   0.00000  Uiso   1.00
C468   C     0.52979   0.68773   0.27210   0.00000  Uiso   1.00
C469   C     0.50063   0.70957   0.24828   0.00000  Uiso   1.00
C470   C     0.47241   0.68886   0.22198   0.00000  Uiso   1.00
C471   C     0.47347   0.97925   0.21856   0.00000  Uiso   1.00
C472   C     0.50120   0.95722   0.24517   0.00000  Uiso   1.00
C473   C     0.63384   0.86399   0.27468   0.00000  Uiso   1.00
C474   C     0.34971   0.86436   0.27496   0.00000  Uiso   1.00
C475   C     0.36577   0.80283   0.22461   0.00000  Uiso   1.00
C476   C     0.64960   0.80288   0.22458   0.00000  Uiso   1.00
C477   C     0.50017   0.75412   0.24978   0.00000  Uiso   1.00
C478   C     0.52640   0.83259   0.14996   0.00000  Uiso   1.00
C479   C     0.59407   0.79463   0.01408   0.00000  Uiso   1.00
C480   C     0.54158   0.82711   0.09310   0.00000  Uiso   1.00
C481   C     0.41131   0.84820   0.43507   0.00000  Uiso   1.00
C482   C     0.39832   0.85755   0.48848   0.00000  Uiso   1.00
C483   C     0.43290   0.85098   0.01471   0.00000  Uiso   1.00
Cu484  Cu    0.45311   0.83333   0.25000   0.00000  Uiso   1.00
Cu485  Cu    0.54689   0.83334   0.25000   0.00000  Uiso   1.00
H486   H     0.61104   0.79720   0.08621   0.00000  Uiso   1.00
H487   H     0.55173   0.70366   0.29253   0.00000  Uiso   1.00
H488   H     0.45135   0.70637   0.20205   0.00000  Uiso   1.00
H489   H     0.60853   0.88824   0.29473   0.00000  Uiso   1.00
H490   H     0.39044   0.77841   0.20407   0.00000  Uiso   1.00
H491   H     0.63725   0.77846   0.20404   0.00000  Uiso   1.00
H492   H     0.62763   0.77783   0.49406   0.00000  Uiso   1.00
H493   H     0.47653   0.85567   0.08897   0.00000  Uiso   1.00
H494   H     0.38552   0.85512   0.41427   0.00000  Uiso   1.00
H495   H     0.42264   0.86097   0.05487   0.00000  Uiso   1.00
H496   H     0.53901   0.78099   0.37452   0.00000  Uiso   1.00
H497   H     0.55121   0.96192   0.29129   0.00000  Uiso   1.00
N498   N     0.38265   0.83332   0.24998   0.00000  Uiso   1.00
N499   N     0.61735   0.83335   0.24999   0.00000  Uiso   1.00
O500   O     0.46042   0.89345   0.25000   0.00000  Uiso   1.00
O501   O     0.53961   0.89346   0.25000   0.00000  Uiso   1.00
O502   O     0.44108   0.83332   0.32549   0.00000  Uiso   1.00
O503   O     0.52027   0.83333   0.32549   0.00000  Uiso   1.00
O504   O     0.46039   0.77321   0.24999   0.00000  Uiso   1.00
O505   O     0.53958   0.77322   0.24999   0.00000  Uiso   1.00
O506   O     0.47973   0.83334   0.17451   0.00000  Uiso   1.00
O507   O     0.55892   0.83335   0.17451   0.00000  Uiso   1.00
C508   C     0.44786   0.95924   0.18445   0.00000  Uiso   1.00
O509   O     0.46532   0.92834   0.15856   0.00000  Uiso   1.00
O510   O     0.40470   0.97698   0.18007   0.00000  Uiso   1.00
H511   H     0.39085   0.96082   0.15542   0.00000  Uiso   1.00
C512   C     0.36320   0.90008   0.30188   0.00000  Uiso   1.00
O513   O     0.38040   0.89516   0.33755   0.00000  Uiso   1.00
O514   O     0.35297   0.93994   0.28851   0.00000  Uiso   1.00
H515   H     0.36329   0.96209   0.30981   0.00000  Uiso   1.00
H516   H     0.59915   0.76968   0.41827   0.00000  Uiso   1.00
C517   C     0.34965   0.87712   0.01570   0.00000  Uiso   1.00
O518   O     0.66135   0.89601   0.49032   0.00000  Uiso   1.00
O519   O     0.66084   0.87469   0.06984   0.00000  Uiso   1.00
H520   H     0.34311   0.85357   0.08732   0.00000  Uiso   1.00
C521   C     0.83378   0.91253   0.24800   0.00000  Uiso   1.00
C522   C     0.81253   0.83220   0.48932   0.00000  Uiso   1.00
C523   C     0.82327   0.81979   0.43612   0.00000  Uiso   1.00
C524   C     0.84833   0.82485   0.01521   0.00000  Uiso   1.00
C525   C     0.89230   0.80286   0.48877   0.00000  Uiso   1.00
C526   C     0.90000   0.78789   0.43809   0.00000  Uiso   1.00
C527   C     0.86569   0.79552   0.41253   0.00000  Uiso   1.00
C528   C     0.84153   0.83791   0.06699   0.00000  Uiso   1.00
C529   C     0.91841   0.80617   0.06629   0.00000  Uiso   1.00
C530   C     0.79095   0.83154   0.40798   0.00000  Uiso   1.00
C531   C     0.86297   0.97841   0.27105   0.00000  Uiso   1.00
C532   C     0.80697   0.83153   0.35018   0.00000  Uiso   1.00
C533   C     0.86313   0.68773   0.27210   0.00000  Uiso   1.00
C534   C     0.83397   0.70957   0.24828   0.00000  Uiso   1.00
C535   C     0.80575   0.68886   0.22198   0.00000  Uiso   1.00
C536   C     0.80681   0.97925   0.21856   0.00000  Uiso   1.00
C537   C     0.83453   0.95722   0.24517   0.00000  Uiso   1.00
C538   C     0.96718   0.86399   0.27468   0.00000  Uiso   1.00
C539   C     0.68305   0.86436   0.27496   0.00000  Uiso   1.00
C540   C     0.69910   0.80283   0.22461   0.00000  Uiso   1.00
C541   C     0.98293   0.80288   0.22458   0.00000  Uiso   1.00
C542   C     0.83350   0.75412   0.24978   0.00000  Uiso   1.00
C543   C     0.85973   0.83259   0.14996   0.00000  Uiso   1.00
C544   C     0.92740   0.79463   0.01408   0.00000  Uiso   1.00
C545   C     0.87491   0.82711   0.09310   0.00000  Uiso   1.00
C546   C     0.74465   0.84820   0.43507   0.00000  Uiso   1.00
C547   C     0.73165   0.85755   0.48848   0.00000  Uiso   1.00
C548   C     0.76623   0.85098   0.01471   0.00000  Uiso   1.00
Cu549  Cu    0.78645   0.83333   0.25000   0.00000  Uiso   1.00
Cu550  Cu    0.88022   0.83334   0.25000   0.00000  Uiso   1.00
H551   H     0.94437   0.79720   0.08621   0.00000  Uiso   1.00
H552   H     0.88506   0.70366   0.29253   0.00000  Uiso   1.00
H553   H     0.78469   0.70637   0.20205   0.00000  Uiso   1.00
H554   H     0.94186   0.88824   0.29473   0.00000  Uiso   1.00
H555   H     0.72378   0.77841   0.20407   0.00000  Uiso   1.00
H556   H     0.97058   0.77846   0.20404   0.00000  Uiso   1.00
H557   H     0.96096   0.77783   0.49406   0.00000  Uiso   1.00
H558   H     0.80987   0.85567   0.08897   0.00000  Uiso   1.00
H559   H     0.71885   0.85512   0.41427   0.00000  Uiso   1.00
H560   H     0.75597   0.86097   0.05487   0.00000  Uiso   1.00
H561   H     0.87235   0.78099   0.37452   0.00000  Uiso   1.00
H562   H     0.88455   0.96192   0.29129   0.00000  Uiso   1.00
N563   N     0.71598   0.83332   0.24998   0.00000  Uiso   1.00
N564   N     0.95069   0.83335   0.24999   0.00000  Uiso   1.00
O565   O     0.79375   0.89345   0.25000   0.00000  Uiso   1.00
O566   O     0.87294   0.89346   0.25000   0.00000  Uiso   1.00
O567   O     0.77441   0.83332   0.32549   0.00000  Uiso   1.00
O568   O     0.85360   0.83333   0.32549   0.00000  Uiso   1.00
O569   O     0.79373   0.77321   0.24999   0.00000  Uiso   1.00
O570   O     0.87292   0.77322   0.24999   0.00000  Uiso   1.00
O571   O     0.81306   0.83334   0.17451   0.00000  Uiso   1.00
O572   O     0.89225   0.83335   0.17451   0.00000  Uiso   1.00
C573   C     0.78119   0.95924   0.18445   0.00000  Uiso   1.00
O574   O     0.79865   0.92834   0.15856   0.00000  Uiso   1.00
O575   O     0.73803   0.97698   0.18007   0.00000  Uiso   1.00
H576   H     0.72418   0.96082   0.15542   0.00000  Uiso   1.00
C577   C     0.69653   0.90008   0.30188   0.00000  Uiso   1.00
O578   O     0.71373   0.89516   0.33755   0.00000  Uiso   1.00
O579   O     0.68630   0.93994   0.28851   0.00000  Uiso   1.00
H580   H     0.69663   0.96209   0.30981   0.00000  Uiso   1.00
H581   H     0.93248   0.76968   0.41827   0.00000  Uiso   1.00
C582   C     0.68298   0.87712   0.01570   0.00000  Uiso   1.00
O583   O     0.99468   0.89601   0.49032   0.00000  Uiso   1.00
O584   O     0.99417   0.87469   0.06984   0.00000  Uiso   1.00
H585   H     0.67644   0.85357   0.08732   0.00000  Uiso   1.00
C586   C     0.16711   0.24586   0.74800   0.00000  Uiso   1.00
C587   C     0.14587   0.16553   0.98932   0.00000  Uiso   1.00
C588   C     0.15660   0.15312   0.93612   0.00000  Uiso   1.00
C589   C     0.18166   0.15818   0.51521   0.00000  Uiso   1.00
C590   C     0.22563   0.13619   0.98877   0.00000  Uiso   1.00
C591   C     0.23333   0.12123   0.93809   0.00000  Uiso   1.00
C592   C     0.19902   0.12885   0.91253   0.00000  Uiso   1.00
C593   C     0.17486   0.17125   0.56699   0.00000  Uiso   1.00
C594   C     0.25174   0.13950   0.56629   0.00000  Uiso   1.00
C595   C     0.12428   0.16487   0.90798   0.00000  Uiso   1.00
C596   C     0.19631   0.31174   0.77105   0.00000  Uiso   1.00
C597   C     0.14031   0.16487   0.85018   0.00000  Uiso   1.00
C598   C     0.19646   0.02107   0.77210   0.00000  Uiso   1.00
C599   C     0.16730   0.04290   0.74828   0.00000  Uiso   1.00
C600   C     0.13908   0.02219   0.72198   0.00000  Uiso   1.00
C601   C     0.14014   0.31258   0.71856   0.00000  Uiso   1.00
C602   C     0.16787   0.29055   0.74517   0.00000  Uiso   1.00
C603   C     0.30051   0.19732   0.77468   0.00000  Uiso   1.00
C604   C     0.01638   0.19770   0.77496   0.00000  Uiso   1.00
C605   C     0.03243   0.13616   0.72461   0.00000  Uiso   1.00
C606   C     0.31627   0.13621   0.72458   0.00000  Uiso   1.00
C607   C     0.16683   0.08746   0.74978   0.00000  Uiso   1.00
C608   C     0.19306   0.16592   0.64996   0.00000  Uiso   1.00
C609   C     0.26074   0.12796   0.51408   0.00000  Uiso   1.00
C610   C     0.20824   0.16045   0.59310   0.00000  Uiso   1.00
C611   C     0.07798   0.18154   0.93507   0.00000  Uiso   1.00
C612   C     0.06498   0.19088   0.98848   0.00000  Uiso   1.00
C613   C     0.09957   0.18431   0.51471   0.00000  Uiso   1.00
Cu614  Cu    0.11978   0.16666   0.75000   0.00000  Uiso   1.00
Cu615  Cu    0.21355   0.16667   0.75000   0.00000  Uiso   1.00
H616   H     0.27770   0.13054   0.58621   0.00000  Uiso   1.00
H617   H     0.21839   0.03699   0.79253   0.00000  Uiso   1.00
H618   H     0.11802   0.03970   0.70205   0.00000  Uiso   1.00
H619   H     0.27519   0.22158   0.79473   0.00000  Uiso   1.00
H620   H     0.05711   0.11174   0.70407   0.00000  Uiso   1.00
H621   H     0.30392   0.11179   0.70404   0.00000  Uiso   1.00
H622   H     0.29429   0.11117   0.99406   0.00000  Uiso   1.00
H623   H     0.14320   0.18900   0.58897   0.00000  Uiso   1.00
H624   H     0.05218   0.18845   0.91427   0.00000  Uiso   1.00
H625   H     0.08930   0.19430   0.55487   0.00000  Uiso   1.00
H626   H     0.20568   0.11433   0.87452   0.00000  Uiso   1.00
H627   H     0.21788   0.29525   0.79129   0.00000  Uiso   1.00
N628   N     0.04931   0.16666   0.74998   0.00000  Uiso   1.00
N629   N     0.28402   0.16669   0.74999   0.00000  Uiso   1.00
O630   O     0.12708   0.22678   0.75000   0.00000  Uiso   1.00
O631   O     0.20627   0.22679   0.75000   0.00000  Uiso   1.00
O632   O     0.10775   0.16665   0.82549   0.00000  Uiso   1.00
O633   O     0.18694   0.16666   0.82549   0.00000  Uiso   1.00
O634   O     0.12706   0.10654   0.74999   0.00000  Uiso   1.00
O635   O     0.20625   0.10655   0.74999   0.00000  Uiso   1.00
O636   O     0.14640   0.16667   0.67451   0.00000  Uiso   1.00
O637   O     0.22559   0.16668   0.67451   0.00000  Uiso   1.00
C638   C     0.11453   0.29257   0.68445   0.00000  Uiso   1.00
O639   O     0.13199   0.26168   0.65856   0.00000  Uiso   1.00
O640   O     0.07137   0.31031   0.68007   0.00000  Uiso   1.00
H641   H     0.05752   0.29415   0.65542   0.00000  Uiso   1.00
C642   C     0.02986   0.23341   0.80188   0.00000  Uiso   1.00
O643   O     0.04707   0.22849   0.83755   0.00000  Uiso   1.00
O644   O     0.01964   0.27327   0.78851   0.00000  Uiso   1.00
H645   H     0.02996   0.29543   0.80981   0.00000  Uiso   1.00
H646   H     0.26582   0.10302   0.91827   0.00000  Uiso   1.00
C647   C     0.01632   0.21046   0.51570   0.00000  Uiso   1.00
O648   O     0.32802   0.22934   0.99032   0.00000  Uiso   1.00
O649   O     0.32750   0.20803   0.56984   0.00000  Uiso   1.00
H650   H     0.00977   0.18690   0.58732   0.00000  Uiso   1.00
C651   C     0.50044   0.24586   0.74800   0.00000  Uiso   1.00
C652   C     0.47920   0.16553   0.98932   0.00000  Uiso   1.00
C653   C     0.48994   0.15312   0.93612   0.00000  Uiso   1.00
C654   C     0.51500   0.15818   0.51521   0.00000  Uiso   1.00
C655   C     0.55896   0.13619   0.98877   0.00000  Uiso   1.00
C656   C     0.56666   0.12123   0.93809   0.00000  Uiso   1.00
C657   C     0.53236   0.12885   0.91253   0.00000  Uiso   1.00
C658   C     0.50820   0.17125   0.56699   0.00000  Uiso   1.00
C659   C     0.58508   0.13950   0.56629   0.00000  Uiso   1.00
C660   C     0.45761   0.16487   0.90798   0.00000  Uiso   1.00
C661   C     0.52964   0.31174   0.77105   0.00000  Uiso   1.00
C662   C     0.47364   0.16487   0.85018   0.00000  Uiso   1.00
C663   C     0.52979   0.02107   0.77210   0.00000  Uiso   1.00
C664   C     0.50063   0.04290   0.74828   0.00000  Uiso   1.00
C665   C     0.47241   0.02219   0.72198   0.00000  Uiso   1.00
C666   C     0.47347   0.31258   0.71856   0.00000  Uiso   1.00
C667   C     0.50120   0.29055   0.74517   0.00000  Uiso   1.00
C668   C     0.63384   0.19732   0.77468   0.00000  Uiso   1.00
C669   C     0.34971   0.19770   0.77496   0.00000  Uiso   1.00
C670   C     0.36577   0.13616   0.72461   0.00000  Uiso   1.00
C671   C     0.64960   0.13621   0.72458   0.00000  Uiso   1.00
C672   C     0.50017   0.08746   0.74978   0.00000  Uiso   1.00
C673   C     0.52640   0.16592   0.64996   0.00000  Uiso   1.00
C674   C     0.59407   0.12796   0.51408   0.00000  Uiso   1.00
C675   C     0.54158   0.16045   0.59310   0.00000  Uiso   1.00
C676   C     0.41131   0.18154   0.93507   0.00000  Uiso   1.00
C677   C     0.39832   0.19088   0.98848   0.00000  Uiso   1.00
C678   C     0.43290   0.18431   0.51471   0.00000  Uiso   1.00
Cu679  Cu    0.45311   0.16666   0.75000   0.00000  Uiso   1.00
Cu680  Cu    0.54689   0.16667   0.75000   0.00000  Uiso   1.00
H681   H     0.61104   0.13054   0.58621   0.00000  Uiso   1.00
H682   H     0.55173   0.03699   0.79253   0.00000  Uiso   1.00
H683   H     0.45135   0.03970   0.70205   0.00000  Uiso   1.00
H684   H     0.60853   0.22158   0.79473   0.00000  Uiso   1.00
H685   H     0.39044   0.11174   0.70407   0.00000  Uiso   1.00
H686   H     0.63725   0.11179   0.70404   0.00000  Uiso   1.00
H687   H     0.62763   0.11117   0.99406   0.00000  Uiso   1.00
H688   H     0.47653   0.18900   0.58897   0.00000  Uiso   1.00
H689   H     0.38552   0.18845   0.91427   0.00000  Uiso   1.00
H690   H     0.42264   0.19430   0.55487   0.00000  Uiso   1.00
H691   H     0.53901   0.11433   0.87452   0.00000  Uiso   1.00
H692   H     0.55121   0.29525   0.79129   0.00000  Uiso   1.00
N693   N     0.38265   0.16666   0.74998   0.00000  Uiso   1.00
N694   N     0.61735   0.16669   0.74999   0.00000  Uiso   1.00
O695   O     0.46042   0.22678   0.75000   0.00000  Uiso   1.00
O696   O     0.53961   0.22679   0.75000   0.00000  Uiso   1.00
O697   O     0.44108   0.16665   0.82549   0.00000  Uiso   1.00
O698   O     0.52027   0.16666   0.82549   0.00000  Uiso   1.00
O699   O     0.46039   0.10654   0.74999   0.00000  Uiso   1.00
O700   O     0.53958   0.10655   0.74999   0.00000  Uiso   1.00
O701   O     0.47973   0.16667   0.67451   0.00000  Uiso   1.00
O702   O     0.55892   0.16668   0.67451   0.00000  Uiso   1.00
C703   C     0.44786   0.29257   0.68445   0.00000  Uiso   1.00
O704   O     0.46532   0.26168   0.65856   0.00000  Uiso   1.00
O705   O     0.40470   0.31031   0.68007   0.00000  Uiso   1.00
H706   H     0.39085   0.29415   0.65542   0.00000  Uiso   1.00
C707   C     0.36320   0.23341   0.80188   0.00000  Uiso   1.00
O708   O     0.38040   0.22849   0.83755   0.00000  Uiso   1.00
O709   O     0.35297   0.27327   0.78851   0.00000  Uiso   1.00
H710   H     0.36329   0.29543   0.80981   0.00000  Uiso   1.00
H711   H     0.59915   0.10302   0.91827   0.00000  Uiso   1.00
C712   C     0.34965   0.21046   0.51570   0.00000  Uiso   1.00
O713   O     0.66135   0.22934   0.99032   0.00000  Uiso   1.00
O714   O     0.66084   0.20803   0.56984   0.00000  Uiso   1.00
H715   H     0.34311   0.18690   0.58732   0.00000  Uiso   1.00
C716   C     0.83378   0.24586   0.74800   0.00000  Uiso   1.00
C717   C     0.81253   0.16553   0.98932   0.00000  Uiso   1.00
C718   C     0.82327   0.15312   0.93612   0.00000  Uiso   1.00
C719   C     0.84833   0.15818   0.51521   0.00000  Uiso   1.00
C720   C     0.89230   0.13619   0.98877   0.00000  Uiso   1.00
C721   C     0.90000   0.12123   0.93809   0.00000  Uiso   1.00
C722   C     0.86569   0.12885   0.91253   0.00000  Uiso   1.00
C723   C     0.84153   0.17125   0.56699   0.00000  Uiso   1.00
C724   C     0.91841   0.13950   0.56629   0.00000  Uiso   1.00
C725   C     0.79095   0.16487   0.90798   0.00000  Uiso   1.00
C726   C     0.86297   0.31174   0.77105   0.00000  Uiso   1.00
C727   C     0.80697   0.16487   0.85018   0.00000  Uiso   1.00
C728   C     0.86313   0.02107   0.77210   0.00000  Uiso   1.00
C729   C     0.83397   0.04290   0.74828   0.00000  Uiso   1.00
C730   C     0.80575   0.02219   0.72198   0.00000  Uiso   1.00
C731   C     0.80681   0.31258   0.71856   0.00000  Uiso   1.00
C732   C     0.83453   0.29055   0.74517   0.00000  Uiso   1.00
C733   C     0.96718   0.19732   0.77468   0.00000  Uiso   1.00
C734   C     0.68305   0.19770   0.77496   0.00000  Uiso   1.00
C735   C     0.69910   0.13616   0.72461   0.00000  Uiso   1.00
C736   C     0.98293   0.13621   0.72458   0.00000  Uiso   1.00
C737   C     0.83350   0.08746   0.74978   0.00000  Uiso   1.00
C738   C     0.85973   0.16592   0.64996   0.00000  Uiso   1.00
C739   C     0.92740   0.12796   0.51408   0.00000  Uiso   1.00
C740   C     0.87491   0.16045   0.59310   0.00000  Uiso   1.00
C741   C     0.74465   0.18154   0.93507   0.00000  Uiso   1.00
C742   C     0.73165   0.19088   0.98848   0.00000  Uiso   1.00
C743   C     0.76623   0.18431   0.51471   0.00000  Uiso   1.00
Cu744  Cu    0.78645   0.16666   0.75000   0.00000  Uiso   1.00
Cu745  Cu    0.88022   0.16667   0.75000   0.00000  Uiso   1.00
H746   H     0.94437   0.13054   0.58621   0.00000  Uiso   1.00
H747   H     0.88506   0.03699   0.79253   0.00000  Uiso   1.00
H748   H     0.78469   0.03970   0.70205   0.00000  Uiso   1.00
H749   H     0.94186   0.22158   0.79473   0.00000  Uiso   1.00
H750   H     0.72378   0.11174   0.70407   0.00000  Uiso   1.00
H751   H     0.97058   0.11179   0.70404   0.00000  Uiso   1.00
H752   H     0.96096   0.11117   0.99406   0.00000  Uiso   1.00
H753   H     0.80987   0.18900   0.58897   0.00000  Uiso   1.00
H754   H     0.71885   0.18845   0.91427   0.00000  Uiso   1.00
H755   H     0.75597   0.19430   0.55487   0.00000  Uiso   1.00
H756   H     0.87235   0.11433   0.87452   0.00000  Uiso   1.00
H757   H     0.88455   0.29525   0.79129   0.00000  Uiso   1.00
N758   N     0.71598   0.16666   0.74998   0.00000  Uiso   1.00
N759   N     0.95069   0.16669   0.74999   0.00000  Uiso   1.00
O760   O     0.79375   0.22678   0.75000   0.00000  Uiso   1.00
O761   O     0.87294   0.22679   0.75000   0.00000  Uiso   1.00
O762   O     0.77441   0.16665   0.82549   0.00000  Uiso   1.00
O763   O     0.85360   0.16666   0.82549   0.00000  Uiso   1.00
O764   O     0.79373   0.10654   0.74999   0.00000  Uiso   1.00
O765   O     0.87292   0.10655   0.74999   0.00000  Uiso   1.00
O766   O     0.81306   0.16667   0.67451   0.00000  Uiso   1.00
O767   O     0.89225   0.16668   0.67451   0.00000  Uiso   1.00
C768   C     0.78119   0.29257   0.68445   0.00000  Uiso   1.00
O769   O     0.79865   0.26168   0.65856   0.00000  Uiso   1.00
O770   O     0.73803   0.31031   0.68007   0.00000  Uiso   1.00
H771   H     0.72418   0.29415   0.65542   0.00000  Uiso   1.00
C772   C     0.69653   0.23341   0.80188   0.00000  Uiso   1.00
O773   O     0.71373   0.22849   0.83755   0.00000  Uiso   1.00
O774   O     0.68630   0.27327   0.78851   0.00000  Uiso   1.00
H775   H     0.69663   0.29543   0.80981   0.00000  Uiso   1.00
H776   H     0.93248   0.10302   0.91827   0.00000  Uiso   1.00
C777   C     0.68298   0.21046   0.51570   0.00000  Uiso   1.00
O778   O     0.99468   0.22934   0.99032   0.00000  Uiso   1.00
O779   O     0.99417   0.20803   0.56984   0.00000  Uiso   1.00
H780   H     0.67644   0.18690   0.58732   0.00000  Uiso   1.00
C781   C     0.16711   0.57920   0.74800   0.00000  Uiso   1.00
C782   C     0.14587   0.49886   0.98932   0.00000  Uiso   1.00
C783   C     0.15660   0.48645   0.93612   0.00000  Uiso   1.00
C784   C     0.18166   0.49151   0.51521   0.00000  Uiso   1.00
C785   C     0.22563   0.46953   0.98877   0.00000  Uiso   1.00
C786   C     0.23333   0.45456   0.93809   0.00000  Uiso   1.00
C787   C     0.19902   0.46218   0.91253   0.00000  Uiso   1.00
C788   C     0.17486   0.50458   0.56699   0.00000  Uiso   1.00
C789   C     0.25174   0.47284   0.56629   0.00000  Uiso   1.00
C790   C     0.12428   0.49820   0.90798   0.00000  Uiso   1.00
C791   C     0.19631   0.64508   0.77105   0.00000  Uiso   1.00
C792   C     0.14031   0.49820   0.85018   0.00000  Uiso   1.00
C793   C     0.19646   0.35440   0.77210   0.00000  Uiso   1.00
C794   C     0.16730   0.37624   0.74828   0.00000  Uiso   1.00
C795   C     0.13908   0.35552   0.72198   0.00000  Uiso   1.00
C796   C     0.14014   0.64592   0.71856   0.00000  Uiso   1.00
C797   C     0.16787   0.62389   0.74517   0.00000  Uiso   1.00
C798   C     0.30051   0.53066   0.77468   0.00000  Uiso   1.00
C799   C     0.01638   0.53103   0.77496   0.00000  Uiso   1.00
C800   C     0.03243   0.46949   0.72461   0.00000  Uiso   1.00
C801   C     0.31627   0.46954   0.72458   0.00000  Uiso   1.00
C802   C     0.16683   0.42079   0.74978   0.00000  Uiso   1.00
C803   C     0.19306   0.49925   0.64996   0.00000  Uiso   1.00
C804   C     0.26074   0.46130   0.51408   0.00000  Uiso   1.00
C805   C     0.20824   0.49378   0.59310   0.00000  Uiso   1.00
C806   C     0.07798   0.51487   0.93507   0.00000  Uiso   1.00
C807   C     0.06498   0.52421   0.98848   0.00000  Uiso   1.00
C808   C     0.09957   0.51764   0.51471   0.00000  Uiso   1.00
Cu809  Cu    0.11978   0.49999   0.75000   0.00000  Uiso   1.00
Cu810  Cu    0.21355   0.50001   0.75000   0.00000  Uiso   1.00
H811   H     0.27770   0.46387   0.58621   0.00000  Uiso   1.00
H812   H     0.21839   0.37032   0.79253   0.00000  Uiso   1.00
H813   H     0.11802   0.37304   0.70205   0.00000  Uiso   1.00
H814   H     0.27519   0.55491   0.79473   0.00000  Uiso   1.00
H815   H     0.05711   0.44507   0.70407   0.00000  Uiso   1.00
H816   H     0.30392   0.44513   0.70404   0.00000  Uiso   1.00
H817   H     0.29429   0.44450   0.99406   0.00000  Uiso   1.00
H818   H     0.14320   0.52234   0.58897   0.00000  Uiso   1.00
H819   H     0.05218   0.52179   0.91427   0.00000  Uiso   1.00
H820   H     0.08930   0.52764   0.55487   0.00000  Uiso   1.00
H821   H     0.20568   0.44766   0.87452   0.00000  Uiso   1.00
H822   H     0.21788   0.62859   0.79129   0.00000  Uiso   1.00
N823   N     0.04931   0.49999   0.74998   0.00000  Uiso   1.00
N824   N     0.28402   0.50002   0.74999   0.00000  Uiso   1.00
O825   O     0.12708   0.56011   0.75000   0.00000  Uiso   1.00
O826   O     0.20627   0.56012   0.75000   0.00000  Uiso   1.00
O827   O     0.10775   0.49998   0.82549   0.00000  Uiso   1.00
O828   O     0.18694   0.49999   0.82549   0.00000  Uiso   1.00
O829   O     0.12706   0.43988   0.74999   0.00000  Uiso   1.00
O830   O     0.20625   0.43989   0.74999   0.00000  Uiso   1.00
O831   O     0.14640   0.50001   0.67451   0.00000  Uiso   1.00
O832   O     0.22559   0.50002   0.67451   0.00000  Uiso   1.00
C833   C     0.11453   0.62591   0.68445   0.00000  Uiso   1.00
O834   O     0.13199   0.59501   0.65856   0.00000  Uiso   1.00
O835   O     0.07137   0.64365   0.68007   0.00000  Uiso   1.00
H836   H     0.05752   0.62749   0.65542   0.00000  Uiso   1.00
C837   C     0.02986   0.56674   0.80188   0.00000  Uiso   1.00
O838   O     0.04707   0.56182   0.83755   0.00000  Uiso   1.00
O839   O     0.01964   0.60661   0.78851   0.00000  Uiso   1.00
H840   H     0.02996   0.62876   0.80981   0.00000  Uiso   1.00
H841   H     0.26582   0.43635   0.91827   0.00000  Uiso   1.00
C842   C     0.01632   0.54379   0.51570   0.00000  Uiso   1.00
O843   O     0.32802   0.56267   0.99032   0.00000  Uiso   1.00
O844   O     0.32750   0.54136   0.56984   0.00000  Uiso   1.00
H845   H     0.00977   0.52024   0.58732   0.00000  Uiso   1.00
C846   C     0.50044   0.57920   0.74800   0.00000  Uiso   1.00
C847   C     0.47920   0.49886   0.98932   0.00000  Uiso   1.00
C848   C     0.48994   0.48645   0.93612   0.00000  Uiso   1.00
C849   C     0.51500   0.49151   0.51521   0.00000  Uiso   1.00
C850   C     0.55896   0.46953   0.98877   0.00000  Uiso   1.00
C851   C     0.56666   0.45456   0.93809   0.00000  Uiso   1.00
C852   C     0.53236   0.46218   0.91253   0.00000  Uiso   1.00
C853   C     0.50820   0.50458   0.56699   0.00000  Uiso   1.00
C854   C     0.58508   0.47284   0.56629   0.00000  Uiso   1.00
C855   C     0.45761   0.49820   0.90798   0.00000  Uiso   1.00
C856   C     0.52964   0.64508   0.77105   0.00000  Uiso   1.00
C857   C     0.47364   0.49820   0.85018   0.00000  Uiso   1.00
C858   C     0.52979   0.35440   0.77210   0.00000  Uiso   1.00
C859   C     0.50063   0.37624   0.74828   0.00000  Uiso   1.00
C860   C     0.47241   0.35552   0.72198   0.00000  Uiso   1.00
C861   C     0.47347   0.64592   0.71856   0.00000  Uiso   1.00
C862   C     0.50120   0.62389   0.74517   0.00000  Uiso   1.00
C863   C     0.63384   0.53066   0.77468   0.00000  Uiso   1.00
C864   C     0.34971   0.53103   0.77496   0.00000  Uiso   1.00
C865   C     0.36577   0.46949   0.72461   0.00000  Uiso   1.00
C866   C     0.64960   0.46954   0.72458   0.00000  Uiso   1.00
C867   C     0.50017   0.42079   0.74978   0.00000  Uiso   1.00
C868   C     0.52640   0.49925   0.64996   0.00000  Uiso   1.00
C869   C     0.59407   0.46130   0.51408   0.00000  Uiso   1.00
C870   C     0.54158   0.49378   0.59310   0.00000  Uiso   1.00
C871   C     0.41131   0.51487   0.93507   0.00000  Uiso   1.00
C872   C     0.39832   0.52421   0.98848   0.00000  Uiso   1.00
C873   C     0.43290   0.51764   0.51471   0.00000  Uiso   1.00
Cu874  Cu    0.45311   0.49999   0.75000   0.00000  Uiso   1.00
Cu875  Cu    0.54689   0.50001   0.75000   0.00000  Uiso   1.00
H876   H     0.61104   0.46387   0.58621   0.00000  Uiso   1.00
H877   H     0.55173   0.37032   0.79253   0.00000  Uiso   1.00
H878   H     0.45135   0.37304   0.70205   0.00000  Uiso   1.00
H879   H     0.60853   0.55491   0.79473   0.00000  Uiso   1.00
H880   H     0.39044   0.44507   0.70407   0.00000  Uiso   1.00
H881   H     0.63725   0.44513   0.70404   0.00000  Uiso   1.00
H882   H     0.62763   0.44450   0.99406   0.00000  Uiso   1.00
H883   H     0.47653   0.52234   0.58897   0.00000  Uiso   1.00
H884   H     0.38552   0.52179   0.91427   0.00000  Uiso   1.00
H885   H     0.42264   0.52764   0.55487   0.00000  Uiso   1.00
H886   H     0.53901   0.44766   0.87452   0.00000  Uiso   1.00
H887   H     0.55121   0.62859   0.79129   0.00000  Uiso   1.00
N888   N     0.38265   0.49999   0.74998   0.00000  Uiso   1.00
N889   N     0.61735   0.50002   0.74999   0.00000  Uiso   1.00
O890   O     0.46042   0.56011   0.75000   0.00000  Uiso   1.00
O891   O     0.53961   0.56012   0.75000   0.00000  Uiso   1.00
O892   O     0.44108   0.49998   0.82549   0.00000  Uiso   1.00
O893   O     0.52027   0.49999   0.82549   0.00000  Uiso   1.00
O894   O     0.46039   0.43988   0.74999   0.00000  Uiso   1.00
O895   O     0.53958   0.43989   0.74999   0.00000  Uiso   1.00
O896   O     0.47973   0.50001   0.67451   0.00000  Uiso   1.00
O897   O     0.55892   0.50002   0.67451   0.00000  Uiso   1.00
C898   C     0.44786   0.62591   0.68445   0.00000  Uiso   1.00
O899   O     0.46532   0.59501   0.65856   0.00000  Uiso   1.00
O900   O     0.40470   0.64365   0.68007   0.00000  Uiso   1.00
H901   H     0.39085   0.62749   0.65542   0.00000  Uiso   1.00
C902   C     0.36320   0.56674   0.80188   0.00000  Uiso   1.00
O903   O     0.38040   0.56182   0.83755   0.00000  Uiso   1.00
O904   O     0.35297   0.60661   0.78851   0.00000  Uiso   1.00
H905   H     0.36329   0.62876   0.80981   0.00000  Uiso   1.00
H906   H     0.59915   0.43635   0.91827   0.00000  Uiso   1.00
C907   C     0.34965   0.54379   0.51570   0.00000  Uiso   1.00
O908   O     0.66135   0.56267   0.99032   0.00000  Uiso   1.00
O909   O     0.66084   0.54136   0.56984   0.00000  Uiso   1.00
H910   H     0.34311   0.52024   0.58732   0.00000  Uiso   1.00
C911   C     0.83378   0.57920   0.74800   0.00000  Uiso   1.00
C912   C     0.81253   0.49886   0.98932   0.00000  Uiso   1.00
C913   C     0.82327   0.48645   0.93612   0.00000  Uiso   1.00
C914   C     0.84833   0.49151   0.51521   0.00000  Uiso   1.00
C915   C     0.89230   0.46953   0.98877   0.00000  Uiso   1.00
C916   C     0.90000   0.45456   0.93809   0.00000  Uiso   1.00
C917   C     0.86569   0.46218   0.91253   0.00000  Uiso   1.00
C918   C     0.84153   0.50458   0.56699   0.00000  Uiso   1.00
C919   C     0.91841   0.47284   0.56629   0.00000  Uiso   1.00
C920   C     0.79095   0.49820   0.90798   0.00000  Uiso   1.00
C921   C     0.86297   0.64508   0.77105   0.00000  Uiso   1.00
C922   C     0.80697   0.49820   0.85018   0.00000  Uiso   1.00
C923   C     0.86313   0.35440   0.77210   0.00000  Uiso   1.00
C924   C     0.83397   0.37624   0.74828   0.00000  Uiso   1.00
C925   C     0.80575   0.35552   0.72198   0.00000  Uiso   1.00
C926   C     0.80681   0.64592   0.71856   0.00000  Uiso   1.00
C927   C     0.83453   0.62389   0.74517   0.00000  Uiso   1.00
C928   C     0.96718   0.53066   0.77468   0.00000  Uiso   1.00
C929   C     0.68305   0.53103   0.77496   0.00000  Uiso   1.00
C930   C     0.69910   0.46949   0.72461   0.00000  Uiso   1.00
C931   C     0.98293   0.46954   0.72458   0.00000  Uiso   1.00
C932   C     0.83350   0.42079   0.74978   0.00000  Uiso   1.00
C933   C     0.85973   0.49925   0.64996   0.00000  Uiso   1.00
C934   C     0.92740   0.46130   0.51408   0.00000  Uiso   1.00
C935   C     0.87491   0.49378   0.59310   0.00000  Uiso   1.00
C936   C     0.74465   0.51487   0.93507   0.00000  Uiso   1.00
C937   C     0.73165   0.52421   0.98848   0.00000  Uiso   1.00
C938   C     0.76623   0.51764   0.51471   0.00000  Uiso   1.00
Cu939  Cu    0.78645   0.49999   0.75000   0.00000  Uiso   1.00
Cu940  Cu    0.88022   0.50001   0.75000   0.00000  Uiso   1.00
H941   H     0.94437   0.46387   0.58621   0.00000  Uiso   1.00
H942   H     0.88506   0.37032   0.79253   0.00000  Uiso   1.00
H943   H     0.78469   0.37304   0.70205   0.00000  Uiso   1.00
H944   H     0.94186   0.55491   0.79473   0.00000  Uiso   1.00
H945   H     0.72378   0.44507   0.70407   0.00000  Uiso   1.00
H946   H     0.97058   0.44513   0.70404   0.00000  Uiso   1.00
H947   H     0.96096   0.44450   0.99406   0.00000  Uiso   1.00
H948   H     0.80987   0.52234   0.58897   0.00000  Uiso   1.00
H949   H     0.71885   0.52179   0.91427   0.00000  Uiso   1.00
H950   H     0.75597   0.52764   0.55487   0.00000  Uiso   1.00
H951   H     0.87235   0.44766   0.87452   0.00000  Uiso   1.00
H952   H     0.88455   0.62859   0.79129   0.00000  Uiso   1.00
N953   N     0.71598   0.49999   0.74998   0.00000  Uiso   1.00
N954   N     0.95069   0.50002   0.74999   0.00000  Uiso   1.00
O955   O     0.79375   0.56011   0.75000   0.00000  Uiso   1.00
O956   O     0.87294   0.56012   0.75000   0.00000  Uiso   1.00
O957   O     0.77441   0.49998   0.82549   0.00000  Uiso   1.00
O958   O     0.85360   0.49999   0.82549   0.00000  Uiso   1.00
O959   O     0.79373   0.43988   0.74999   0.00000  Uiso   1.00
O960   O     0.87292   0.43989   0.74999   0.00000  Uiso   1.00
O961   O     0.81306   0.50001   0.67451   0.00000  Uiso   1.00
O962   O     0.89225   0.50002   0.67451   0.00000  Uiso   1.00
C963   C     0.78119   0.62591   0.68445   0.00000  Uiso   1.00
O964   O     0.79865   0.59501   0.65856   0.00000  Uiso   1.00
O965   O     0.73803   0.64365   0.68007   0.00000  Uiso   1.00
H966   H     0.72418   0.62749   0.65542   0.00000  Uiso   1.00
C967   C     0.69653   0.56674   0.80188   0.00000  Uiso   1.00
O968   O     0.71373   0.56182   0.83755   0.00000  Uiso   1.00
O969   O     0.68630   0.60661   0.78851   0.00000  Uiso   1.00
H970   H     0.69663   0.62876   0.80981   0.00000  Uiso   1.00
H971   H     0.93248   0.43635   0.91827   0.00000  Uiso   1.00
C972   C     0.68298   0.54379   0.51570   0.00000  Uiso   1.00
O973   O     0.99468   0.56267   0.99032   0.00000  Uiso   1.00
O974   O     0.99417   0.54136   0.56984   0.00000  Uiso   1.00
H975   H     0.67644   0.52024   0.58732   0.00000  Uiso   1.00
C976   C     0.16711   0.91253   0.74800   0.00000  Uiso   1.00
C977   C     0.14587   0.83220   0.98932   0.00000  Uiso   1.00
C978   C     0.15660   0.81979   0.93612   0.00000  Uiso   1.00
C979   C     0.18166   0.82485   0.51521   0.00000  Uiso   1.00
C980   C     0.22563   0.80286   0.98877   0.00000  Uiso   1.00
C981   C     0.23333   0.78789   0.93809   0.00000  Uiso   1.00
C982   C     0.19902   0.79552   0.91253   0.00000  Uiso   1.00
C983   C     0.17486   0.83791   0.56699   0.00000  Uiso   1.00
C984   C     0.25174   0.80617   0.56629   0.00000  Uiso   1.00
C985   C     0.12428   0.83154   0.90798   0.00000  Uiso   1.00
C986   C     0.19631   0.97841   0.77105   0.00000  Uiso   1.00
C987   C     0.14031   0.83153   0.85018   0.00000  Uiso   1.00
C988   C     0.19646   0.68773   0.77210   0.00000  Uiso   1.00
C989   C     0.16730   0.70957   0.74828   0.00000  Uiso   1.00
C990   C     0.13908   0.68886   0.72198   0.00000  Uiso   1.00
C991   C     0.14014   0.97925   0.71856   0.00000  Uiso   1.00
C992   C     0.16787   0.95722   0.74517   0.00000  Uiso   1.00
C993   C     0.30051   0.86399   0.77468   0.00000  Uiso   1.00
C994   C     0.01638   0.86436   0.77496   0.00000  Uiso   1.00
C995   C     0.03243   0.80283   0.72461   0.00000  Uiso   1.00
C996   C     0.31627   0.80288   0.72458   0.00000  Uiso   1.00
C997   C     0.16683   0.75412   0.74978   0.00000  Uiso   1.00
C998   C     0.19306   0.83259   0.64996   0.00000  Uiso   1.00
C999   C     0.26074   0.79463   0.51408   0.00000  Uiso   1.00
C1000  C     0.20824   0.82711   0.59310   0.00000  Uiso   1.00
C1001  C     0.07798   0.84820   0.93507   0.00000  Uiso   1.00
C1002  C     0.06498   0.85755   0.98848   0.00000  Uiso   1.00
C1003  C     0.09957   0.85098   0.51471   0.00000  Uiso   1.00
Cu1004 Cu    0.11978   0.83333   0.75000   0.00000  Uiso   1.00
Cu1005 Cu    0.21355   0.83334   0.75000   0.00000  Uiso   1.00
H1006  H     0.27770   0.79720   0.58621   0.00000  Uiso   1.00
H1007  H     0.21839   0.70366   0.79253   0.00000  Uiso   1.00
H1008  H     0.11802   0.70637   0.70205   0.00000  Uiso   1.00
H1009  H     0.27519   0.88824   0.79473   0.00000  Uiso   1.00
H1010  H     0.05711   0.77841   0.70407   0.00000  Uiso   1.00
H1011  H     0.30392   0.77846   0.70404   0.00000  Uiso   1.00
H1012  H     0.29429   0.77783   0.99406   0.00000  Uiso   1.00
H1013  H     0.14320   0.85567   0.58897   0.00000  Uiso   1.00
H1014  H     0.05218   0.85512   0.91427   0.00000  Uiso   1.00
H1015  H     0.08930   0.86097   0.55487   0.00000  Uiso   1.00
H1016  H     0.20568   0.78099   0.87452   0.00000  Uiso   1.00
H1017  H     0.21788   0.96192   0.79129   0.00000  Uiso   1.00
N1018  N     0.04931   0.83332   0.74998   0.00000  Uiso   1.00
N1019  N     0.28402   0.83335   0.74999   0.00000  Uiso   1.00
O1020  O     0.12708   0.89345   0.75000   0.00000  Uiso   1.00
O1021  O     0.20627   0.89346   0.75000   0.00000  Uiso   1.00
O1022  O     0.10775   0.83332   0.82549   0.00000  Uiso   1.00
O1023  O     0.18694   0.83333   0.82549   0.00000  Uiso   1.00
O1024  O     0.12706   0.77321   0.74999   0.00000  Uiso   1.00
O1025  O     0.20625   0.77322   0.74999   0.00000  Uiso   1.00
O1026  O     0.14640   0.83334   0.67451   0.00000  Uiso   1.00
O1027  O     0.22559   0.83335   0.67451   0.00000  Uiso   1.00
C1028  C     0.11453   0.95924   0.68445   0.00000  Uiso   1.00
O1029  O     0.13199   0.92834   0.65856   0.00000  Uiso   1.00
O1030  O     0.07137   0.97698   0.68007   0.00000  Uiso   1.00
H1031  H     0.05752   0.96082   0.65542   0.00000  Uiso   1.00
C1032  C     0.02986   0.90008   0.80188   0.00000  Uiso   1.00
O1033  O     0.04707   0.89516   0.83755   0.00000  Uiso   1.00
O1034  O     0.01964   0.93994   0.78851   0.00000  Uiso   1.00
H1035  H     0.02996   0.96209   0.80981   0.00000  Uiso   1.00
H1036  H     0.26582   0.76968   0.91827   0.00000  Uiso   1.00
C1037  C     0.01632   0.87712   0.51570   0.00000  Uiso   1.00
O1038  O     0.32802   0.89601   0.99032   0.00000  Uiso   1.00
O1039  O     0.32750   0.87469   0.56984   0.00000  Uiso   1.00
H1040  H     0.00977   0.85357   0.58732   0.00000  Uiso   1.00
C1041  C     0.50044   0.91253   0.74800   0.00000  Uiso   1.00
C1042  C     0.47920   0.83220   0.98932   0.00000  Uiso   1.00
C1043  C     0.48994   0.81979   0.93612   0.00000  Uiso   1.00
C1044  C     0.51500   0.82485   0.51521   0.00000  Uiso   1.00
C1045  C     0.55896   0.80286   0.98877   0.00000  Uiso   1.00
C1046  C     0.56666   0.78789   0.93809   0.00000  Uiso   1.00
C1047  C     0.53236   0.79552   0.91253   0.00000  Uiso   1.00
C1048  C     0.50820   0.83791   0.56699   0.00000  Uiso   1.00
C1049  C     0.58508   0.80617   0.56629   0.00000  Uiso   1.00
C1050  C     0.45761   0.83154   0.90798   0.00000  Uiso   1.00
C1051  C     0.52964   0.97841   0.77105   0.00000  Uiso   1.00
C1052  C     0.47364   0.83153   0.85018   0.00000  Uiso   1.00
C1053  C     0.52979   0.68773   0.77210   0.00000  Uiso   1.00
C1054  C     0.50063   0.70957   0.74828   0.00000  Uiso   1.00
C1055  C     0.47241   0.68886   0.72198   0.00000  Uiso   1.00
C1056  C     0.47347   0.97925   0.71856   0.00000  Uiso   1.00
C1057  C     0.50120   0.95722   0.74517   0.00000  Uiso   1.00
C1058  C     0.63384   0.86399   0.77468   0.00000  Uiso   1.00
C1059  C     0.34971   0.86436   0.77496   0.00000  Uiso   1.00
C1060  C     0.36577   0.80283   0.72461   0.00000  Uiso   1.00
C1061  C     0.64960   0.80288   0.72458   0.00000  Uiso   1.00
C1062  C     0.50017   0.75412   0.74978   0.00000  Uiso   1.00
C1063  C     0.52640   0.83259   0.64996   0.00000  Uiso   1.00
C1064  C     0.59407   0.79463   0.51408   0.00000  Uiso   1.00
C1065  C     0.54158   0.82711   0.59310   0.00000  Uiso   1.00
C1066  C     0.41131   0.84820   0.93507   0.00000  Uiso   1.00
C1067  C     0.39832   0.85755   0.98848   0.00000  Uiso   1.00
C1068  C     0.43290   0.85098   0.51471   0.00000  Uiso   1.00
Cu1069 Cu    0.45311   0.83333   0.75000   0.00000  Uiso   1.00
Cu1070 Cu    0.54689   0.83334   0.75000   0.00000  Uiso   1.00
H1071  H     0.61104   0.79720   0.58621   0.00000  Uiso   1.00
H1072  H     0.55173   0.70366   0.79253   0.00000  Uiso   1.00
H1073  H     0.45135   0.70637   0.70205   0.00000  Uiso   1.00
H1074  H     0.60853   0.88824   0.79473   0.00000  Uiso   1.00
H1075  H     0.39044   0.77841   0.70407   0.00000  Uiso   1.00
H1076  H     0.63725   0.77846   0.70404   0.00000  Uiso   1.00
H1077  H     0.62763   0.77783   0.99406   0.00000  Uiso   1.00
H1078  H     0.47653   0.85567   0.58897   0.00000  Uiso   1.00
H1079  H     0.38552   0.85512   0.91427   0.00000  Uiso   1.00
H1080  H     0.42264   0.86097   0.55487   0.00000  Uiso   1.00
H1081  H     0.53901   0.78099   0.87452   0.00000  Uiso   1.00
H1082  H     0.55121   0.96192   0.79129   0.00000  Uiso   1.00
N1083  N     0.38265   0.83332   0.74998   0.00000  Uiso   1.00
N1084  N     0.61735   0.83335   0.74999   0.00000  Uiso   1.00
O1085  O     0.46042   0.89345   0.75000   0.00000  Uiso   1.00
O1086  O     0.53961   0.89346   0.75000   0.00000  Uiso   1.00
O1087  O     0.44108   0.83332   0.82549   0.00000  Uiso   1.00
O1088  O     0.52027   0.83333   0.82549   0.00000  Uiso   1.00
O1089  O     0.46039   0.77321   0.74999   0.00000  Uiso   1.00
O1090  O     0.53958   0.77322   0.74999   0.00000  Uiso   1.00
O1091  O     0.47973   0.83334   0.67451   0.00000  Uiso   1.00
O1092  O     0.55892   0.83335   0.67451   0.00000  Uiso   1.00
C1093  C     0.44786   0.95924   0.68445   0.00000  Uiso   1.00
O1094  O     0.46532   0.92834   0.65856   0.00000  Uiso   1.00
O1095  O     0.40470   0.97698   0.68007   0.00000  Uiso   1.00
H1096  H     0.39085   0.96082   0.65542   0.00000  Uiso   1.00
C1097  C     0.36320   0.90008   0.80188   0.00000  Uiso   1.00
O1098  O     0.38040   0.89516   0.83755   0.00000  Uiso   1.00
O1099  O     0.35297   0.93994   0.78851   0.00000  Uiso   1.00
H1100  H     0.36329   0.96209   0.80981   0.00000  Uiso   1.00
H1101  H     0.59915   0.76968   0.91827   0.00000  Uiso   1.00
C1102  C     0.34965   0.87712   0.51570   0.00000  Uiso   1.00
O1103  O     0.66135   0.89601   0.99032   0.00000  Uiso   1.00
O1104  O     0.66084   0.87469   0.56984   0.00000  Uiso   1.00
H1105  H     0.34311   0.85357   0.58732   0.00000  Uiso   1.00
C1106  C     0.83378   0.91253   0.74800   0.00000  Uiso   1.00
C1107  C     0.81253   0.83220   0.98932   0.00000  Uiso   1.00
C1108  C     0.82327   0.81979   0.93612   0.00000  Uiso   1.00
C1109  C     0.84833   0.82485   0.51521   0.00000  Uiso   1.00
C1110  C     0.89230   0.80286   0.98877   0.00000  Uiso   1.00
C1111  C     0.90000   0.78789   0.93809   0.00000  Uiso   1.00
C1112  C     0.86569   0.79552   0.91253   0.00000  Uiso   1.00
C1113  C     0.84153   0.83791   0.56699   0.00000  Uiso   1.00
C1114  C     0.91841   0.80617   0.56629   0.00000  Uiso   1.00
C1115  C     0.79095   0.83154   0.90798   0.00000  Uiso   1.00
C1116  C     0.86297   0.97841   0.77105   0.00000  Uiso   1.00
C1117  C     0.80697   0.83153   0.85018   0.00000  Uiso   1.00
C1118  C     0.86313   0.68773   0.77210   0.00000  Uiso   1.00
C1119  C     0.83397   0.70957   0.74828   0.00000  Uiso   1.00
C1120  C     0.80575   0.68886   0.72198   0.00000  Uiso   1.00
C1121  C     0.80681   0.97925   0.71856   0.00000  Uiso   1.00
C1122  C     0.83453   0.95722   0.74517   0.00000  Uiso   1.00
C1123  C     0.96718   0.86399   0.77468   0.00000  Uiso   1.00
C1124  C     0.68305   0.86436   0.77496   0.00000  Uiso   1.00
C1125  C     0.69910   0.80283   0.72461   0.00000  Uiso   1.00
C1126  C     0.98293   0.80288   0.72458   0.00000  Uiso   1.00
C1127  C     0.83350   0.75412   0.74978   0.00000  Uiso   1.00
C1128  C     0.85973   0.83259   0.64996   0.00000  Uiso   1.00
C1129  C     0.92740   0.79463   0.51408   0.00000  Uiso   1.00
C1130  C     0.87491   0.82711   0.59310   0.00000  Uiso   1.00
C1131  C     0.74465   0.84820   0.93507   0.00000  Uiso   1.00
C1132  C     0.73165   0.85755   0.98848   0.00000  Uiso   1.00
C1133  C     0.76623   0.85098   0.51471   0.00000  Uiso   1.00
Cu1134 Cu    0.78645   0.83333   0.75000   0.00000  Uiso   1.00
Cu1135 Cu    0.88022   0.83334   0.75000   0.00000  Uiso   1.00
H1136  H     0.94437   0.79720   0.58621   0.00000  Uiso   1.00
H1137  H     0.88506   0.70366   0.79253   0.00000  Uiso   1.00
H1138  H     0.78469   0.70637   0.70205   0.00000  Uiso   1.00
H1139  H     0.94186   0.88824   0.79473   0.00000  Uiso   1.00
H1140  H     0.72378   0.77841   0.70407   0.00000  Uiso   1.00
H1141  H     0.97058   0.77846   0.70404   0.00000  Uiso   1.00
H1142  H     0.96096   0.77783   0.99406   0.00000  Uiso   1.00
H1143  H     0.80987   0.85567   0.58897   0.00000  Uiso   1.00
H1144  H     0.71885   0.85512   0.91427   0.00000  Uiso   1.00
H1145  H     0.75597   0.86097   0.55487   0.00000  Uiso   1.00
H1146  H     0.87235   0.78099   0.87452   0.00000  Uiso   1.00
H1147  H     0.88455   0.96192   0.79129   0.00000  Uiso   1.00
N1148  N     0.71598   0.83332   0.74998   0.00000  Uiso   1.00
N1149  N     0.95069   0.83335   0.74999   0.00000  Uiso   1.00
O1150  O     0.79375   0.89345   0.75000   0.00000  Uiso   1.00
O1151  O     0.87294   0.89346   0.75000   0.00000  Uiso   1.00
O1152  O     0.77441   0.83332   0.82549   0.00000  Uiso   1.00
O1153  O     0.85360   0.83333   0.82549   0.00000  Uiso   1.00
O1154  O     0.79373   0.77321   0.74999   0.00000  Uiso   1.00
O1155  O     0.87292   0.77322   0.74999   0.00000  Uiso   1.00
O1156  O     0.81306   0.83334   0.67451   0.00000  Uiso   1.00
O1157  O     0.89225   0.83335   0.67451   0.00000  Uiso   1.00
C1158  C     0.78119   0.95924   0.68445   0.00000  Uiso   1.00
O1159  O     0.79865   0.92834   0.65856   0.00000  Uiso   1.00
O1160  O     0.73803   0.97698   0.68007   0.00000  Uiso   1.00
H1161  H     0.72418   0.96082   0.65542   0.00000  Uiso   1.00
C1162  C     0.69653   0.90008   0.80188   0.00000  Uiso   1.00
O1163  O     0.71373   0.89516   0.83755   0.00000  Uiso   1.00
O1164  O     0.68630   0.93994   0.78851   0.00000  Uiso   1.00
H1165  H     0.69663   0.96209   0.80981   0.00000  Uiso   1.00
H1166  H     0.93248   0.76968   0.91827   0.00000  Uiso   1.00
C1167  C     0.68298   0.87712   0.51570   0.00000  Uiso   1.00
O1168  O     0.99468   0.89601   0.99032   0.00000  Uiso   1.00
O1169  O     0.99417   0.87469   0.56984   0.00000  Uiso   1.00
H1170  H     0.67644   0.85357   0.58732   0.00000  Uiso   1.00
loop_
_geom_bond_atom_site_label_1
_geom_bond_atom_site_label_2
_geom_bond_distance
_geom_bond_site_symmetry_2
_ccdc_geom_bond_type
C1     C17     1.451   .     S
C1     O45     1.294   .     A
C1     O46     1.293   .     A
C2     C3      1.419   .     A
C2     C589    1.427   .     S
C2     C613    1.419   .     S
C3     C10     1.419   .     A
C3     C7      1.412   .     A
C4     C8      1.404   .     A
C4     C587    1.427   1_554 S
C4     C590    1.421   1_554 S
C5     C6      1.391   .     A
C5     C589    1.421   .     S
C5     C609    1.404   .     S
C6     C7      1.386   .     A
C6     H61     1.084   .     S
C7     H41     1.081   .     S
C8     C25     1.396   .     A
C8     H38     1.075   .     S
C9     C24     1.392   .     A
C9     C25     1.398   .     A
C9     H31     1.083   .     S
C10    C26     1.402   .     A
C10    C12     1.478   .     S
C11    H42     1.084   .     S
C11    C17     1.403   .     A
C11    C208    1.382   .     S
C12    O48     1.298   .     A
C12    O47     1.304   .     A
C13    H32     1.084   .     S
C13    C14     1.394   .     A
C13    C401    1.382   1_545 S
C14    C15     1.398   .     A
C14    C22     1.443   .     S
C15    H33     1.085   .     S
C15    C406    1.392   1_545 S
C16    C53     1.486   .     S
C16    C17     1.418   .     A
C16    C210    1.392   .     S
C18    N44     1.354   .     A
C18    H34     1.083   .     S
C18    C84     1.413   .     S
C19    N43     1.389   .     A
C19    C57     1.473   .     S
C19    C148    1.413   1_455 S
C20    N43     1.367   .     A
C20    H35     1.081   .     S
C20    C151    1.419   1_455 S
C21    N44     1.369   .     A
C21    H36     1.082   .     S
C21    C85     1.419   .     S
C22    O50     1.294   .     A
C22    O49     1.291   .     A
C23    O52     1.299   .     A
C23    C25     1.462   .     S
C23    O51     1.296   .     A
C24    C590    1.404   1_554 S
C24    H622    1.084   1_554 S
C26    C27     1.396   .     A
C26    H39     1.080   .     S
C27    C613    1.400   .     S
C27    C647    1.492   .     S
C28    H40     1.072   .     S
C28    C612    1.400   1_554 S
C28    C587    1.419   1_554 S
Cu29   O49     1.957   .     S
Cu29   N43     2.020   .     S
Cu29   O47     1.951   .     S
Cu29   O45     1.960   .     S
Cu29   Cu30    2.688   .     S
Cu29   O51     1.935   .     S
Cu30   N44     2.020   .     S
Cu30   O48     1.935   .     S
Cu30   O52     1.951   .     S
Cu30   O50     1.960   .     S
Cu30   O46     1.957   .     S
H37    C609    1.084   .     S
C53    O55     1.399   .     S
C53    O54     1.223   .     D
O55    H56     1.014   .     S
C57    O58     1.218   .     D
C57    O59     1.398   .     S
O59    H60     1.014   .     S
C62    C612    1.492   1_554 S
C62    O778    1.221   1_454 S
C62    O194    1.400   1_455 S
O63    C712    1.221   .     S
O64    C127    1.400   .     S
O64    H130    1.011   .     S
H65    O194    1.011   1_455 S
C66    C82     1.451   .     S
C66    O110    1.294   .     A
C66    O111    1.293   .     A
C67    C68     1.419   .     A
C67    C654    1.427   .     S
C67    C678    1.419   .     S
C68    C75     1.419   .     A
C68    C72     1.412   .     A
C69    C73     1.404   .     A
C69    C652    1.427   1_554 S
C69    C655    1.421   1_554 S
C70    C71     1.391   .     A
C70    C654    1.421   .     S
C70    C674    1.404   .     S
C71    C72     1.386   .     A
C71    H126    1.084   .     S
C72    H106    1.081   .     S
C73    C90     1.396   .     A
C73    H103    1.075   .     S
C74    C89     1.392   .     A
C74    C90     1.398   .     A
C74    H96     1.083   .     S
C75    C91     1.402   .     A
C75    C77     1.478   .     S
C76    H107    1.084   .     S
C76    C82     1.403   .     A
C76    C273    1.382   .     S
C77    O113    1.298   .     A
C77    O112    1.304   .     A
C78    H97     1.084   .     S
C78    C79     1.394   .     A
C78    C466    1.382   1_545 S
C79    C80     1.398   .     A
C79    C87     1.443   .     S
C80    H98     1.085   .     S
C80    C471    1.392   1_545 S
C81    C118    1.486   .     S
C81    C82     1.418   .     A
C81    C275    1.392   .     S
C83    N109    1.354   .     A
C83    H99     1.083   .     S
C83    C149    1.413   .     S
C84    N108    1.389   .     A
C84    C122    1.473   .     S
C85    N108    1.367   .     A
C85    H100    1.081   .     S
C86    N109    1.369   .     A
C86    H101    1.082   .     S
C86    C150    1.419   .     S
C87    O115    1.294   .     A
C87    O114    1.291   .     A
C88    O117    1.299   .     A
C88    C90     1.462   .     S
C88    O116    1.296   .     A
C89    C655    1.404   1_554 S
C89    H687    1.084   1_554 S
C91    C92     1.396   .     A
C91    H104    1.080   .     S
C92    C678    1.400   .     S
C92    C712    1.492   .     S
C93    H105    1.072   .     S
C93    C677    1.400   1_554 S
C93    C652    1.419   1_554 S
Cu94   O114    1.957   .     S
Cu94   N108    2.020   .     S
Cu94   O112    1.951   .     S
Cu94   O110    1.960   .     S
Cu94   Cu95    2.688   .     S
Cu94   O116    1.935   .     S
Cu95   N109    2.020   .     S
Cu95   O113    1.935   .     S
Cu95   O117    1.951   .     S
Cu95   O115    1.960   .     S
Cu95   O111    1.957   .     S
H102   C674    1.084   .     S
C118   O120    1.399   .     S
C118   O119    1.223   .     D
O120   H121    1.014   .     S
C122   O123    1.218   .     D
C122   O124    1.398   .     S
O124   H125    1.014   .     S
C127   C677    1.492   1_554 S
C127   O648    1.221   1_554 S
O128   C777    1.221   .     S
O129   C192    1.400   .     S
O129   H195    1.011   .     S
C131   C147    1.451   .     S
C131   O175    1.294   .     A
C131   O176    1.293   .     A
C132   C133    1.419   .     A
C132   C719    1.427   .     S
C132   C743    1.419   .     S
C133   C140    1.419   .     A
C133   C137    1.412   .     A
C134   C138    1.404   .     A
C134   C717    1.427   1_554 S
C134   C720    1.421   1_554 S
C135   C136    1.391   .     A
C135   C719    1.421   .     S
C135   C739    1.404   .     S
C136   C137    1.386   .     A
C136   H191    1.084   .     S
C137   H171    1.081   .     S
C138   C155    1.396   .     A
C138   H168    1.075   .     S
C139   C154    1.392   .     A
C139   C155    1.398   .     A
C139   H161    1.083   .     S
C140   C156    1.402   .     A
C140   C142    1.478   .     S
C141   H172    1.084   .     S
C141   C147    1.403   .     A
C141   C338    1.382   .     S
C142   O178    1.298   .     A
C142   O177    1.304   .     A
C143   H162    1.084   .     S
C143   C144    1.394   .     A
C143   C531    1.382   1_545 S
C144   C145    1.398   .     A
C144   C152    1.443   .     S
C145   H163    1.085   .     S
C145   C536    1.392   1_545 S
C146   C183    1.486   .     S
C146   C147    1.418   .     A
C146   C340    1.392   .     S
C148   N174    1.354   .     A
C148   H164    1.083   .     S
C148   C19     1.413   1_655 S
C149   N173    1.389   .     A
C149   C187    1.473   .     S
C150   N173    1.367   .     A
C150   H165    1.081   .     S
C151   N174    1.369   .     A
C151   H166    1.082   .     S
C151   C20     1.419   1_655 S
C152   O180    1.294   .     A
C152   O179    1.291   .     A
C153   O182    1.299   .     A
C153   C155    1.462   .     S
C153   O181    1.296   .     A
C154   C720    1.404   1_554 S
C154   H752    1.084   1_554 S
C156   C157    1.396   .     A
C156   H169    1.080   .     S
C157   C743    1.400   .     S
C157   C777    1.492   .     S
C158   H170    1.072   .     S
C158   C742    1.400   1_554 S
C158   C717    1.419   1_554 S
Cu159  O179    1.957   .     S
Cu159  N173    2.020   .     S
Cu159  O177    1.951   .     S
Cu159  O175    1.960   .     S
Cu159  Cu160   2.688   .     S
Cu159  O181    1.935   .     S
Cu160  N174    2.020   .     S
Cu160  O178    1.935   .     S
Cu160  O182    1.951   .     S
Cu160  O180    1.960   .     S
Cu160  O176    1.957   .     S
H167   C739    1.084   .     S
C183   O185    1.399   .     S
C183   O184    1.223   .     D
O185   H186    1.014   .     S
C187   O188    1.218   .     D
C187   O189    1.398   .     S
O189   H190    1.014   .     S
C192   C742    1.492   1_554 S
C192   O713    1.221   1_554 S
O193   C647    1.221   1_655 S
O194   C62     1.400   1_655 S
O194   H65     1.011   1_655 S
C196   C212    1.451   .     S
C196   O240    1.294   .     A
C196   O241    1.293   .     A
C197   C198    1.419   .     A
C197   C784    1.427   .     S
C197   C808    1.419   .     S
C198   C205    1.419   .     A
C198   C202    1.412   .     A
C199   C203    1.404   .     A
C199   C782    1.427   1_554 S
C199   C785    1.421   1_554 S
C200   C201    1.391   .     A
C200   C784    1.421   .     S
C200   C804    1.404   .     S
C201   C202    1.386   .     A
C201   H256    1.084   .     S
C202   H236    1.081   .     S
C203   C220    1.396   .     A
C203   H233    1.075   .     S
C204   C219    1.392   .     A
C204   C220    1.398   .     A
C204   H226    1.083   .     S
C205   C221    1.402   .     A
C205   C207    1.478   .     S
C206   H237    1.084   .     S
C206   C212    1.403   .     A
C206   C403    1.382   .     S
C207   O243    1.298   .     A
C207   O242    1.304   .     A
C208   H227    1.084   .     S
C208   C209    1.394   .     A
C209   C210    1.398   .     A
C209   C217    1.443   .     S
C210   H228    1.085   .     S
C211   C248    1.486   .     S
C211   C212    1.418   .     A
C211   C405    1.392   .     S
C213   N239    1.354   .     A
C213   H229    1.083   .     S
C213   C279    1.413   .     S
C214   N238    1.389   .     A
C214   C252    1.473   .     S
C214   C343    1.413   1_455 S
C215   N238    1.367   .     A
C215   H230    1.081   .     S
C215   C346    1.419   1_455 S
C216   N239    1.369   .     A
C216   H231    1.082   .     S
C216   C280    1.419   .     S
C217   O245    1.294   .     A
C217   O244    1.291   .     A
C218   O247    1.299   .     A
C218   C220    1.462   .     S
C218   O246    1.296   .     A
C219   C785    1.404   1_554 S
C219   H817    1.084   1_554 S
C221   C222    1.396   .     A
C221   H234    1.080   .     S
C222   C808    1.400   .     S
C222   C842    1.492   .     S
C223   H235    1.072   .     S
C223   C807    1.400   1_554 S
C223   C782    1.419   1_554 S
Cu224  O244    1.957   .     S
Cu224  N238    2.020   .     S
Cu224  O242    1.951   .     S
Cu224  O240    1.960   .     S
Cu224  Cu225   2.688   .     S
Cu224  O246    1.935   .     S
Cu225  N239    2.020   .     S
Cu225  O243    1.935   .     S
Cu225  O247    1.951   .     S
Cu225  O245    1.960   .     S
Cu225  O241    1.957   .     S
H232   C804    1.084   .     S
C248   O250    1.399   .     S
C248   O249    1.223   .     D
O250   H251    1.014   .     S
C252   O253    1.218   .     D
C252   O254    1.398   .     S
O254   H255    1.014   .     S
C257   C807    1.492   1_554 S
C257   O973    1.221   1_454 S
C257   O389    1.400   1_455 S
O258   C907    1.221   .     S
O259   C322    1.400   .     S
O259   H325    1.011   .     S
H260   O389    1.011   1_455 S
C261   C277    1.451   .     S
C261   O305    1.294   .     A
C261   O306    1.293   .     A
C262   C263    1.419   .     A
C262   C849    1.427   .     S
C262   C873    1.419   .     S
C263   C270    1.419   .     A
C263   C267    1.412   .     A
C264   C268    1.404   .     A
C264   C847    1.427   1_554 S
C264   C850    1.421   1_554 S
C265   C266    1.391   .     A
C265   C849    1.421   .     S
C265   C869    1.404   .     S
C266   C267    1.386   .     A
C266   H321    1.084   .     S
C267   H301    1.081   .     S
C268   C285    1.396   .     A
C268   H298    1.075   .     S
C269   C284    1.392   .     A
C269   C285    1.398   .     A
C269   H291    1.083   .     S
C270   C286    1.402   .     A
C270   C272    1.478   .     S
C271   H302    1.084   .     S
C271   C277    1.403   .     A
C271   C468    1.382   .     S
C272   O308    1.298   .     A
C272   O307    1.304   .     A
C273   H292    1.084   .     S
C273   C274    1.394   .     A
C274   C275    1.398   .     A
C274   C282    1.443   .     S
C275   H293    1.085   .     S
C276   C313    1.486   .     S
C276   C277    1.418   .     A
C276   C470    1.392   .     S
C278   N304    1.354   .     A
C278   H294    1.083   .     S
C278   C344    1.413   .     S
C279   N303    1.389   .     A
C279   C317    1.473   .     S
C280   N303    1.367   .     A
C280   H295    1.081   .     S
C281   N304    1.369   .     A
C281   H296    1.082   .     S
C281   C345    1.419   .     S
C282   O310    1.294   .     A
C282   O309    1.291   .     A
C283   O312    1.299   .     A
C283   C285    1.462   .     S
C283   O311    1.296   .     A
C284   C850    1.404   1_554 S
C284   H882    1.084   1_554 S
C286   C287    1.396   .     A
C286   H299    1.080   .     S
C287   C873    1.400   .     S
C287   C907    1.492   .     S
C288   H300    1.072   .     S
C288   C872    1.400   1_554 S
C288   C847    1.419   1_554 S
Cu289  O309    1.957   .     S
Cu289  N303    2.020   .     S
Cu289  O307    1.951   .     S
Cu289  O305    1.960   .     S
Cu289  Cu290   2.688   .     S
Cu289  O311    1.935   .     S
Cu290  N304    2.020   .     S
Cu290  O308    1.935   .     S
Cu290  O312    1.951   .     S
Cu290  O310    1.960   .     S
Cu290  O306    1.957   .     S
H297   C869    1.084   .     S
C313   O315    1.399   .     S
C313   O314    1.223   .     D
O315   H316    1.014   .     S
C317   O318    1.218   .     D
C317   O319    1.398   .     S
O319   H320    1.014   .     S
C322   C872    1.492   1_554 S
C322   O843    1.221   1_554 S
O323   C972    1.221   .     S
O324   C387    1.400   .     S
O324   H390    1.011   .     S
C326   C342    1.451   .     S
C326   O370    1.294   .     A
C326   O371    1.293   .     A
C327   C328    1.419   .     A
C327   C914    1.427   .     S
C327   C938    1.419   .     S
C328   C335    1.419   .     A
C328   C332    1.412   .     A
C329   C333    1.404   .     A
C329   C912    1.427   1_554 S
C329   C915    1.421   1_554 S
C330   C331    1.391   .     A
C330   C914    1.421   .     S
C330   C934    1.404   .     S
C331   C332    1.386   .     A
C331   H386    1.084   .     S
C332   H366    1.081   .     S
C333   C350    1.396   .     A
C333   H363    1.075   .     S
C334   C349    1.392   .     A
C334   C350    1.398   .     A
C334   H356    1.083   .     S
C335   C351    1.402   .     A
C335   C337    1.478   .     S
C336   H367    1.084   .     S
C336   C342    1.403   .     A
C336   C533    1.382   .     S
C337   O373    1.298   .     A
C337   O372    1.304   .     A
C338   H357    1.084   .     S
C338   C339    1.394   .     A
C339   C340    1.398   .     A
C339   C347    1.443   .     S
C340   H358    1.085   .     S
C341   C378    1.486   .     S
C341   C342    1.418   .     A
C341   C535    1.392   .     S
C343   N369    1.354   .     A
C343   H359    1.083   .     S
C343   C214    1.413   1_655 S
C344   N368    1.389   .     A
C344   C382    1.473   .     S
C345   N368    1.367   .     A
C345   H360    1.081   .     S
C346   N369    1.369   .     A
C346   H361    1.082   .     S
C346   C215    1.419   1_655 S
C347   O375    1.294   .     A
C347   O374    1.291   .     A
C348   O377    1.299   .     A
C348   C350    1.462   .     S
C348   O376    1.296   .     A
C349   C915    1.404   1_554 S
C349   H947    1.084   1_554 S
C351   C352    1.396   .     A
C351   H364    1.080   .     S
C352   C938    1.400   .     S
C352   C972    1.492   .     S
C353   H365    1.072   .     S
C353   C937    1.400   1_554 S
C353   C912    1.419   1_554 S
Cu354  O374    1.957   .     S
Cu354  N368    2.020   .     S
Cu354  O372    1.951   .     S
Cu354  O370    1.960   .     S
Cu354  Cu355   2.688   .     S
Cu354  O376    1.935   .     S
Cu355  N369    2.020   .     S
Cu355  O373    1.935   .     S
Cu355  O377    1.951   .     S
Cu355  O375    1.960   .     S
Cu355  O371    1.957   .     S
H362   C934    1.084   .     S
C378   O380    1.399   .     S
C378   O379    1.223   .     D
O380   H381    1.014   .     S
C382   O383    1.218   .     D
C382   O384    1.398   .     S
O384   H385    1.014   .     S
C387   C937    1.492   1_554 S
C387   O908    1.221   1_554 S
O388   C842    1.221   1_655 S
O389   C257    1.400   1_655 S
O389   H260    1.011   1_655 S
C391   C407    1.451   .     S
C391   O435    1.294   .     A
C391   O436    1.293   .     A
C392   C393    1.419   .     A
C392   C979    1.427   .     S
C392   C1003   1.419   .     S
C393   C400    1.419   .     A
C393   C397    1.412   .     A
C394   C398    1.404   .     A
C394   C977    1.427   1_554 S
C394   C980    1.421   1_554 S
C395   C396    1.391   .     A
C395   C979    1.421   .     S
C395   C999    1.404   .     S
C396   C397    1.386   .     A
C396   H451    1.084   .     S
C397   H431    1.081   .     S
C398   C415    1.396   .     A
C398   H428    1.075   .     S
C399   C414    1.392   .     A
C399   C415    1.398   .     A
C399   H421    1.083   .     S
C400   C416    1.402   .     A
C400   C402    1.478   .     S
C401   H432    1.084   .     S
C401   C407    1.403   .     A
C401   C13     1.382   1_565 S
C402   O438    1.298   .     A
C402   O437    1.304   .     A
C403   H422    1.084   .     S
C403   C404    1.394   .     A
C404   C405    1.398   .     A
C404   C412    1.443   .     S
C405   H423    1.085   .     S
C406   C443    1.486   .     S
C406   C407    1.418   .     A
C406   C15     1.392   1_565 S
C408   N434    1.354   .     A
C408   H424    1.083   .     S
C408   C474    1.413   .     S
C409   N433    1.389   .     A
C409   C447    1.473   .     S
C409   C538    1.413   1_455 S
C410   N433    1.367   .     A
C410   H425    1.081   .     S
C410   C541    1.419   1_455 S
C411   N434    1.369   .     A
C411   H426    1.082   .     S
C411   C475    1.419   .     S
C412   O440    1.294   .     A
C412   O439    1.291   .     A
C413   O442    1.299   .     A
C413   C415    1.462   .     S
C413   O441    1.296   .     A
C414   C980    1.404   1_554 S
C414   H1012   1.084   1_554 S
C416   C417    1.396   .     A
C416   H429    1.080   .     S
C417   C1003   1.400   .     S
C417   C1037   1.492   .     S
C418   H430    1.072   .     S
C418   C1002   1.400   1_554 S
C418   C977    1.419   1_554 S
Cu419  O439    1.957   .     S
Cu419  N433    2.020   .     S
Cu419  O437    1.951   .     S
Cu419  O435    1.960   .     S
Cu419  Cu420   2.688   .     S
Cu419  O441    1.935   .     S
Cu420  N434    2.020   .     S
Cu420  O438    1.935   .     S
Cu420  O442    1.951   .     S
Cu420  O440    1.960   .     S
Cu420  O436    1.957   .     S
H427   C999    1.084   .     S
C443   O445    1.399   .     S
C443   O444    1.223   .     D
O445   H446    1.014   .     S
C447   O448    1.218   .     D
C447   O449    1.398   .     S
O449   H450    1.014   .     S
C452   C1002   1.492   1_554 S
C452   O1168   1.221   1_454 S
C452   O584    1.400   1_455 S
O453   C1102   1.221   .     S
O454   C517    1.400   .     S
O454   H520    1.011   .     S
H455   O584    1.011   1_455 S
C456   C472    1.451   .     S
C456   O500    1.294   .     A
C456   O501    1.293   .     A
C457   C458    1.419   .     A
C457   C1044   1.427   .     S
C457   C1068   1.419   .     S
C458   C465    1.419   .     A
C458   C462    1.412   .     A
C459   C463    1.404   .     A
C459   C1042   1.427   1_554 S
C459   C1045   1.421   1_554 S
C460   C461    1.391   .     A
C460   C1044   1.421   .     S
C460   C1064   1.404   .     S
C461   C462    1.386   .     A
C461   H516    1.084   .     S
C462   H496    1.081   .     S
C463   C480    1.396   .     A
C463   H493    1.075   .     S
C464   C479    1.392   .     A
C464   C480    1.398   .     A
C464   H486    1.083   .     S
C465   C481    1.402   .     A
C465   C467    1.478   .     S
C466   H497    1.084   .     S
C466   C472    1.403   .     A
C466   C78     1.382   1_565 S
C467   O503    1.298   .     A
C467   O502    1.304   .     A
C468   H487    1.084   .     S
C468   C469    1.394   .     A
C469   C470    1.398   .     A
C469   C477    1.443   .     S
C470   H488    1.085   .     S
C471   C508    1.486   .     S
C471   C472    1.418   .     A
C471   C80     1.392   1_565 S
C473   N499    1.354   .     A
C473   H489    1.083   .     S
C473   C539    1.413   .     S
C474   N498    1.389   .     A
C474   C512    1.473   .     S
C475   N498    1.367   .     A
C475   H490    1.081   .     S
C476   N499    1.369   .     A
C476   H491    1.082   .     S
C476   C540    1.419   .     S
C477   O505    1.294   .     A
C477   O504    1.291   .     A
C478   O507    1.299   .     A
C478   C480    1.462   .     S
C478   O506    1.296   .     A
C479   C1045   1.404   1_554 S
C479   H1077   1.084   1_554 S
C481   C482    1.396   .     A
C481   H494    1.080   .     S
C482   C1068   1.400   .     S
C482   C1102   1.492   .     S
C483   H495    1.072   .     S
C483   C1067   1.400   1_554 S
C483   C1042   1.419   1_554 S
Cu484  O504    1.957   .     S
Cu484  N498    2.020   .     S
Cu484  O502    1.951   .     S
Cu484  O500    1.960   .     S
Cu484  Cu485   2.688   .     S
Cu484  O506    1.935   .     S
Cu485  N499    2.020   .     S
Cu485  O503    1.935   .     S
Cu485  O507    1.951   .     S
Cu485  O505    1.960   .     S
Cu485  O501    1.957   .     S
H492   C1064   1.084   .     S
C508   O510    1.399   .     S
C508   O509    1.223   .     D
O510   H511    1.014   .     S
C512   O513    1.218   .     D
C512   O514    1.398   .     S
O514   H515    1.014   .     S
C517   C1067   1.492   1_554 S
C517   O1038   1.221   1_554 S
O518   C1167   1.221   .     S
O519   C582    1.400   .     S
O519   H585    1.011   .     S
C521   C537    1.451   .     S
C521   O565    1.294   .     A
C521   O566    1.293   .     A
C522   C523    1.419   .     A
C522   C1109   1.427   .     S
C522   C1133   1.419   .     S
C523   C530    1.419   .     A
C523   C527    1.412   .     A
C524   C528    1.404   .     A
C524   C1107   1.427   1_554 S
C524   C1110   1.421   1_554 S
C525   C526    1.391   .     A
C525   C1109   1.421   .     S
C525   C1129   1.404   .     S
C526   C527    1.386   .     A
C526   H581    1.084   .     S
C527   H561    1.081   .     S
C528   C545    1.396   .     A
C528   H558    1.075   .     S
C529   C544    1.392   .     A
C529   C545    1.398   .     A
C529   H551    1.083   .     S
C530   C546    1.402   .     A
C530   C532    1.478   .     S
C531   H562    1.084   .     S
C531   C537    1.403   .     A
C531   C143    1.382   1_565 S
C532   O568    1.298   .     A
C532   O567    1.304   .     A
C533   H552    1.084   .     S
C533   C534    1.394   .     A
C534   C535    1.398   .     A
C534   C542    1.443   .     S
C535   H553    1.085   .     S
C536   C573    1.486   .     S
C536   C537    1.418   .     A
C536   C145    1.392   1_565 S
C538   N564    1.354   .     A
C538   H554    1.083   .     S
C538   C409    1.413   1_655 S
C539   N563    1.389   .     A
C539   C577    1.473   .     S
C540   N563    1.367   .     A
C540   H555    1.081   .     S
C541   N564    1.369   .     A
C541   H556    1.082   .     S
C541   C410    1.419   1_655 S
C542   O570    1.294   .     A
C542   O569    1.291   .     A
C543   O572    1.299   .     A
C543   C545    1.462   .     S
C543   O571    1.296   .     A
C544   C1110   1.404   1_554 S
C544   H1142   1.084   1_554 S
C546   C547    1.396   .     A
C546   H559    1.080   .     S
C547   C1133   1.400   .     S
C547   C1167   1.492   .     S
C548   H560    1.072   .     S
C548   C1132   1.400   1_554 S
C548   C1107   1.419   1_554 S
Cu549  O569    1.957   .     S
Cu549  N563    2.020   .     S
Cu549  O567    1.951   .     S
Cu549  O565    1.960   .     S
Cu549  Cu550   2.688   .     S
Cu549  O571    1.935   .     S
Cu550  N564    2.020   .     S
Cu550  O568    1.935   .     S
Cu550  O572    1.951   .     S
Cu550  O570    1.960   .     S
Cu550  O566    1.957   .     S
H557   C1129   1.084   .     S
C573   O575    1.399   .     S
C573   O574    1.223   .     D
O575   H576    1.014   .     S
C577   O578    1.218   .     D
C577   O579    1.398   .     S
O579   H580    1.014   .     S
C582   C1132   1.492   1_554 S
C582   O1103   1.221   1_554 S
O583   C1037   1.221   1_655 S
O584   C452    1.400   1_655 S
O584   H455    1.011   1_655 S
C586   C602    1.451   .     S
C586   O630    1.294   .     A
C586   O631    1.293   .     A
C587   C588    1.419   .     A
C587   C4      1.427   1_556 S
C587   C28     1.419   1_556 S
C588   C595    1.419   .     A
C588   C592    1.412   .     A
C589   C593    1.404   .     A
C590   C591    1.391   .     A
C590   C4      1.421   1_556 S
C590   C24     1.404   1_556 S
C591   C592    1.386   .     A
C591   H646    1.084   .     S
C592   H626    1.081   .     S
C593   C610    1.396   .     A
C593   H623    1.075   .     S
C594   C609    1.392   .     A
C594   C610    1.398   .     A
C594   H616    1.083   .     S
C595   C611    1.402   .     A
C595   C597    1.478   .     S
C596   H627    1.084   .     S
C596   C602    1.403   .     A
C596   C793    1.382   .     S
C597   O633    1.298   .     A
C597   O632    1.304   .     A
C598   H617    1.084   .     S
C598   C599    1.394   .     A
C598   C986    1.382   1_545 S
C599   C600    1.398   .     A
C599   C607    1.443   .     S
C600   H618    1.085   .     S
C600   C991    1.392   1_545 S
C601   C638    1.486   .     S
C601   C602    1.418   .     A
C601   C795    1.392   .     S
C603   N629    1.354   .     A
C603   H619    1.083   .     S
C603   C669    1.413   .     S
C604   N628    1.389   .     A
C604   C642    1.473   .     S
C604   C733    1.413   1_455 S
C605   N628    1.367   .     A
C605   H620    1.081   .     S
C605   C736    1.419   1_455 S
C606   N629    1.369   .     A
C606   H621    1.082   .     S
C606   C670    1.419   .     S
C607   O635    1.294   .     A
C607   O634    1.291   .     A
C608   O637    1.299   .     A
C608   C610    1.462   .     S
C608   O636    1.296   .     A
C611   C612    1.396   .     A
C611   H624    1.080   .     S
C612   C28     1.400   1_556 S
C612   C62     1.492   1_556 S
C613   H625    1.072   .     S
Cu614  O634    1.957   .     S
Cu614  N628    2.020   .     S
Cu614  O632    1.951   .     S
Cu614  O630    1.960   .     S
Cu614  Cu615   2.688   .     S
Cu614  O636    1.935   .     S
Cu615  N629    2.020   .     S
Cu615  O633    1.935   .     S
Cu615  O637    1.951   .     S
Cu615  O635    1.960   .     S
Cu615  O631    1.957   .     S
H622   C24     1.084   1_556 S
C638   O640    1.399   .     S
C638   O639    1.223   .     D
O640   H641    1.014   .     S
C642   O643    1.218   .     D
C642   O644    1.398   .     S
O644   H645    1.014   .     S
C647   O193    1.221   1_455 S
C647   O779    1.400   1_455 S
O648   C127    1.221   1_556 S
O649   C712    1.400   .     S
O649   H715    1.011   .     S
H650   O779    1.011   1_455 S
C651   C667    1.451   .     S
C651   O695    1.294   .     A
C651   O696    1.293   .     A
C652   C653    1.419   .     A
C652   C69     1.427   1_556 S
C652   C93     1.419   1_556 S
C653   C660    1.419   .     A
C653   C657    1.412   .     A
C654   C658    1.404   .     A
C655   C656    1.391   .     A
C655   C69     1.421   1_556 S
C655   C89     1.404   1_556 S
C656   C657    1.386   .     A
C656   H711    1.084   .     S
C657   H691    1.081   .     S
C658   C675    1.396   .     A
C658   H688    1.075   .     S
C659   C674    1.392   .     A
C659   C675    1.398   .     A
C659   H681    1.083   .     S
C660   C676    1.402   .     A
C660   C662    1.478   .     S
C661   H692    1.084   .     S
C661   C667    1.403   .     A
C661   C858    1.382   .     S
C662   O698    1.298   .     A
C662   O697    1.304   .     A
C663   H682    1.084   .     S
C663   C664    1.394   .     A
C663   C1051   1.382   1_545 S
C664   C665    1.398   .     A
C664   C672    1.443   .     S
C665   H683    1.085   .     S
C665   C1056   1.392   1_545 S
C666   C703    1.486   .     S
C666   C667    1.418   .     A
C666   C860    1.392   .     S
C668   N694    1.354   .     A
C668   H684    1.083   .     S
C668   C734    1.413   .     S
C669   N693    1.389   .     A
C669   C707    1.473   .     S
C670   N693    1.367   .     A
C670   H685    1.081   .     S
C671   N694    1.369   .     A
C671   H686    1.082   .     S
C671   C735    1.419   .     S
C672   O700    1.294   .     A
C672   O699    1.291   .     A
C673   O702    1.299   .     A
C673   C675    1.462   .     S
C673   O701    1.296   .     A
C676   C677    1.396   .     A
C676   H689    1.080   .     S
C677   C93     1.400   1_556 S
C677   C127    1.492   1_556 S
C678   H690    1.072   .     S
Cu679  O699    1.957   .     S
Cu679  N693    2.020   .     S
Cu679  O697    1.951   .     S
Cu679  O695    1.960   .     S
Cu679  Cu680   2.688   .     S
Cu679  O701    1.935   .     S
Cu680  N694    2.020   .     S
Cu680  O698    1.935   .     S
Cu680  O702    1.951   .     S
Cu680  O700    1.960   .     S
Cu680  O696    1.957   .     S
H687   C89     1.084   1_556 S
C703   O705    1.399   .     S
C703   O704    1.223   .     D
O705   H706    1.014   .     S
C707   O708    1.218   .     D
C707   O709    1.398   .     S
O709   H710    1.014   .     S
O713   C192    1.221   1_556 S
O714   C777    1.400   .     S
O714   H780    1.011   .     S
C716   C732    1.451   .     S
C716   O760    1.294   .     A
C716   O761    1.293   .     A
C717   C718    1.419   .     A
C717   C134    1.427   1_556 S
C717   C158    1.419   1_556 S
C718   C725    1.419   .     A
C718   C722    1.412   .     A
C719   C723    1.404   .     A
C720   C721    1.391   .     A
C720   C134    1.421   1_556 S
C720   C154    1.404   1_556 S
C721   C722    1.386   .     A
C721   H776    1.084   .     S
C722   H756    1.081   .     S
C723   C740    1.396   .     A
C723   H753    1.075   .     S
C724   C739    1.392   .     A
C724   C740    1.398   .     A
C724   H746    1.083   .     S
C725   C741    1.402   .     A
C725   C727    1.478   .     S
C726   H757    1.084   .     S
C726   C732    1.403   .     A
C726   C923    1.382   .     S
C727   O763    1.298   .     A
C727   O762    1.304   .     A
C728   H747    1.084   .     S
C728   C729    1.394   .     A
C728   C1116   1.382   1_545 S
C729   C730    1.398   .     A
C729   C737    1.443   .     S
C730   H748    1.085   .     S
C730   C1121   1.392   1_545 S
C731   C768    1.486   .     S
C731   C732    1.418   .     A
C731   C925    1.392   .     S
C733   N759    1.354   .     A
C733   H749    1.083   .     S
C733   C604    1.413   1_655 S
C734   N758    1.389   .     A
C734   C772    1.473   .     S
C735   N758    1.367   .     A
C735   H750    1.081   .     S
C736   N759    1.369   .     A
C736   H751    1.082   .     S
C736   C605    1.419   1_655 S
C737   O765    1.294   .     A
C737   O764    1.291   .     A
C738   O767    1.299   .     A
C738   C740    1.462   .     S
C738   O766    1.296   .     A
C741   C742    1.396   .     A
C741   H754    1.080   .     S
C742   C158    1.400   1_556 S
C742   C192    1.492   1_556 S
C743   H755    1.072   .     S
Cu744  O764    1.957   .     S
Cu744  N758    2.020   .     S
Cu744  O762    1.951   .     S
Cu744  O760    1.960   .     S
Cu744  Cu745   2.688   .     S
Cu744  O766    1.935   .     S
Cu745  N759    2.020   .     S
Cu745  O763    1.935   .     S
Cu745  O767    1.951   .     S
Cu745  O765    1.960   .     S
Cu745  O761    1.957   .     S
H752   C154    1.084   1_556 S
C768   O770    1.399   .     S
C768   O769    1.223   .     D
O770   H771    1.014   .     S
C772   O773    1.218   .     D
C772   O774    1.398   .     S
O774   H775    1.014   .     S
O778   C62     1.221   1_656 S
O779   C647    1.400   1_655 S
O779   H650    1.011   1_655 S
C781   C797    1.451   .     S
C781   O825    1.294   .     A
C781   O826    1.293   .     A
C782   C783    1.419   .     A
C782   C199    1.427   1_556 S
C782   C223    1.419   1_556 S
C783   C790    1.419   .     A
C783   C787    1.412   .     A
C784   C788    1.404   .     A
C785   C786    1.391   .     A
C785   C199    1.421   1_556 S
C785   C219    1.404   1_556 S
C786   C787    1.386   .     A
C786   H841    1.084   .     S
C787   H821    1.081   .     S
C788   C805    1.396   .     A
C788   H818    1.075   .     S
C789   C804    1.392   .     A
C789   C805    1.398   .     A
C789   H811    1.083   .     S
C790   C806    1.402   .     A
C790   C792    1.478   .     S
C791   H822    1.084   .     S
C791   C797    1.403   .     A
C791   C988    1.382   .     S
C792   O828    1.298   .     A
C792   O827    1.304   .     A
C793   H812    1.084   .     S
C793   C794    1.394   .     A
C794   C795    1.398   .     A
C794   C802    1.443   .     S
C795   H813    1.085   .     S
C796   C833    1.486   .     S
C796   C797    1.418   .     A
C796   C990    1.392   .     S
C798   N824    1.354   .     A
C798   H814    1.083   .     S
C798   C864    1.413   .     S
C799   N823    1.389   .     A
C799   C837    1.473   .     S
C799   C928    1.413   1_455 S
C800   N823    1.367   .     A
C800   H815    1.081   .     S
C800   C931    1.419   1_455 S
C801   N824    1.369   .     A
C801   H816    1.082   .     S
C801   C865    1.419   .     S
C802   O830    1.294   .     A
C802   O829    1.291   .     A
C803   O832    1.299   .     A
C803   C805    1.462   .     S
C803   O831    1.296   .     A
C806   C807    1.396   .     A
C806   H819    1.080   .     S
C807   C223    1.400   1_556 S
C807   C257    1.492   1_556 S
C808   H820    1.072   .     S
Cu809  O829    1.957   .     S
Cu809  N823    2.020   .     S
Cu809  O827    1.951   .     S
Cu809  O825    1.960   .     S
Cu809  Cu810   2.688   .     S
Cu809  O831    1.935   .     S
Cu810  N824    2.020   .     S
Cu810  O828    1.935   .     S
Cu810  O832    1.951   .     S
Cu810  O830    1.960   .     S
Cu810  O826    1.957   .     S
H817   C219    1.084   1_556 S
C833   O835    1.399   .     S
C833   O834    1.223   .     D
O835   H836    1.014   .     S
C837   O838    1.218   .     D
C837   O839    1.398   .     S
O839   H840    1.014   .     S
C842   O388    1.221   1_455 S
C842   O974    1.400   1_455 S
O843   C322    1.221   1_556 S
O844   C907    1.400   .     S
O844   H910    1.011   .     S
H845   O974    1.011   1_455 S
C846   C862    1.451   .     S
C846   O890    1.294   .     A
C846   O891    1.293   .     A
C847   C848    1.419   .     A
C847   C264    1.427   1_556 S
C847   C288    1.419   1_556 S
C848   C855    1.419   .     A
C848   C852    1.412   .     A
C849   C853    1.404   .     A
C850   C851    1.391   .     A
C850   C264    1.421   1_556 S
C850   C284    1.404   1_556 S
C851   C852    1.386   .     A
C851   H906    1.084   .     S
C852   H886    1.081   .     S
C853   C870    1.396   .     A
C853   H883    1.075   .     S
C854   C869    1.392   .     A
C854   C870    1.398   .     A
C854   H876    1.083   .     S
C855   C871    1.402   .     A
C855   C857    1.478   .     S
C856   H887    1.084   .     S
C856   C862    1.403   .     A
C856   C1053   1.382   .     S
C857   O893    1.298   .     A
C857   O892    1.304   .     A
C858   H877    1.084   .     S
C858   C859    1.394   .     A
C859   C860    1.398   .     A
C859   C867    1.443   .     S
C860   H878    1.085   .     S
C861   C898    1.486   .     S
C861   C862    1.418   .     A
C861   C1055   1.392   .     S
C863   N889    1.354   .     A
C863   H879    1.083   .     S
C863   C929    1.413   .     S
C864   N888    1.389   .     A
C864   C902    1.473   .     S
C865   N888    1.367   .     A
C865   H880    1.081   .     S
C866   N889    1.369   .     A
C866   H881    1.082   .     S
C866   C930    1.419   .     S
C867   O895    1.294   .     A
C867   O894    1.291   .     A
C868   O897    1.299   .     A
C868   C870    1.462   .     S
C868   O896    1.296   .     A
C871   C872    1.396   .     A
C871   H884    1.080   .     S
C872   C288    1.400   1_556 S
C872   C322    1.492   1_556 S
C873   H885    1.072   .     S
Cu874  O894    1.957   .     S
Cu874  N888    2.020   .     S
Cu874  O892    1.951   .     S
Cu874  O890    1.960   .     S
Cu874  Cu875   2.688   .     S
Cu874  O896    1.935   .     S
Cu875  N889    2.020   .     S
Cu875  O893    1.935   .     S
Cu875  O897    1.951   .     S
Cu875  O895    1.960   .     S
Cu875  O891    1.957   .     S
H882   C284    1.084   1_556 S
C898   O900    1.399   .     S
C898   O899    1.223   .     D
O900   H901    1.014   .     S
C902   O903    1.218   .     D
C902   O904    1.398   .     S
O904   H905    1.014   .     S
O908   C387    1.221   1_556 S
O909   C972    1.400   .     S
O909   H975    1.011   .     S
C911   C927    1.451   .     S
C911   O955    1.294   .     A
C911   O956    1.293   .     A
C912   C913    1.419   .     A
C912   C329    1.427   1_556 S
C912   C353    1.419   1_556 S
C913   C920    1.419   .     A
C913   C917    1.412   .     A
C914   C918    1.404   .     A
C915   C916    1.391   .     A
C915   C329    1.421   1_556 S
C915   C349    1.404   1_556 S
C916   C917    1.386   .     A
C916   H971    1.084   .     S
C917   H951    1.081   .     S
C918   C935    1.396   .     A
C918   H948    1.075   .     S
C919   C934    1.392   .     A
C919   C935    1.398   .     A
C919   H941    1.083   .     S
C920   C936    1.402   .     A
C920   C922    1.478   .     S
C921   H952    1.084   .     S
C921   C927    1.403   .     A
C921   C1118   1.382   .     S
C922   O958    1.298   .     A
C922   O957    1.304   .     A
C923   H942    1.084   .     S
C923   C924    1.394   .     A
C924   C925    1.398   .     A
C924   C932    1.443   .     S
C925   H943    1.085   .     S
C926   C963    1.486   .     S
C926   C927    1.418   .     A
C926   C1120   1.392   .     S
C928   N954    1.354   .     A
C928   H944    1.083   .     S
C928   C799    1.413   1_655 S
C929   N953    1.389   .     A
C929   C967    1.473   .     S
C930   N953    1.367   .     A
C930   H945    1.081   .     S
C931   N954    1.369   .     A
C931   H946    1.082   .     S
C931   C800    1.419   1_655 S
C932   O960    1.294   .     A
C932   O959    1.291   .     A
C933   O962    1.299   .     A
C933   C935    1.462   .     S
C933   O961    1.296   .     A
C936   C937    1.396   .     A
C936   H949    1.080   .     S
C937   C353    1.400   1_556 S
C937   C387    1.492   1_556 S
C938   H950    1.072   .     S
Cu939  O959    1.957   .     S
Cu939  N953    2.020   .     S
Cu939  O957    1.951   .     S
Cu939  O955    1.960   .     S
Cu939  Cu940   2.688   .     S
Cu939  O961    1.935   .     S
Cu940  N954    2.020   .     S
Cu940  O958    1.935   .     S
Cu940  O962    1.951   .     S
Cu940  O960    1.960   .     S
Cu940  O956    1.957   .     S
H947   C349    1.084   1_556 S
C963   O965    1.399   .     S
C963   O964    1.223   .     D
O965   H966    1.014   .     S
C967   O968    1.218   .     D
C967   O969    1.398   .     S
O969   H970    1.014   .     S
O973   C257    1.221   1_656 S
O974   C842    1.400   1_655 S
O974   H845    1.011   1_655 S
C976   C992    1.451   .     S
C976   O1020   1.294   .     A
C976   O1021   1.293   .     A
C977   C978    1.419   .     A
C977   C394    1.427   1_556 S
C977   C418    1.419   1_556 S
C978   C985    1.419   .     A
C978   C982    1.412   .     A
C979   C983    1.404   .     A
C980   C981    1.391   .     A
C980   C394    1.421   1_556 S
C980   C414    1.404   1_556 S
C981   C982    1.386   .     A
C981   H1036   1.084   .     S
C982   H1016   1.081   .     S
C983   C1000   1.396   .     A
C983   H1013   1.075   .     S
C984   C999    1.392   .     A
C984   C1000   1.398   .     A
C984   H1006   1.083   .     S
C985   C1001   1.402   .     A
C985   C987    1.478   .     S
C986   H1017   1.084   .     S
C986   C992    1.403   .     A
C986   C598    1.382   1_565 S
C987   O1023   1.298   .     A
C987   O1022   1.304   .     A
C988   H1007   1.084   .     S
C988   C989    1.394   .     A
C989   C990    1.398   .     A
C989   C997    1.443   .     S
C990   H1008   1.085   .     S
C991   C1028   1.486   .     S
C991   C992    1.418   .     A
C991   C600    1.392   1_565 S
C993   N1019   1.354   .     A
C993   H1009   1.083   .     S
C993   C1059   1.413   .     S
C994   N1018   1.389   .     A
C994   C1032   1.473   .     S
C994   C1123   1.413   1_455 S
C995   N1018   1.367   .     A
C995   H1010   1.081   .     S
C995   C1126   1.419   1_455 S
C996   N1019   1.369   .     A
C996   H1011   1.082   .     S
C996   C1060   1.419   .     S
C997   O1025   1.294   .     A
C997   O1024   1.291   .     A
C998   O1027   1.299   .     A
C998   C1000   1.462   .     S
C998   O1026   1.296   .     A
C1001  C1002   1.396   .     A
C1001  H1014   1.080   .     S
C1002  C418    1.400   1_556 S
C1002  C452    1.492   1_556 S
C1003  H1015   1.072   .     S
Cu1004 O1024   1.957   .     S
Cu1004 N1018   2.020   .     S
Cu1004 O1022   1.951   .     S
Cu1004 O1020   1.960   .     S
Cu1004 Cu1005  2.688   .     S
Cu1004 O1026   1.935   .     S
Cu1005 N1019   2.020   .     S
Cu1005 O1023   1.935   .     S
Cu1005 O1027   1.951   .     S
Cu1005 O1025   1.960   .     S
Cu1005 O1021   1.957   .     S
H1012  C414    1.084   1_556 S
C1028  O1030   1.399   .     S
C1028  O1029   1.223   .     D
O1030  H1031   1.014   .     S
C1032  O1033   1.218   .     D
C1032  O1034   1.398   .     S
O1034  H1035   1.014   .     S
C1037  O583    1.221   1_455 S
C1037  O1169   1.400   1_455 S
O1038  C517    1.221   1_556 S
O1039  C1102   1.400   .     S
O1039  H1105   1.011   .     S
H1040  O1169   1.011   1_455 S
C1041  C1057   1.451   .     S
C1041  O1085   1.294   .     A
C1041  O1086   1.293   .     A
C1042  C1043   1.419   .     A
C1042  C459    1.427   1_556 S
C1042  C483    1.419   1_556 S
C1043  C1050   1.419   .     A
C1043  C1047   1.412   .     A
C1044  C1048   1.404   .     A
C1045  C1046   1.391   .     A
C1045  C459    1.421   1_556 S
C1045  C479    1.404   1_556 S
C1046  C1047   1.386   .     A
C1046  H1101   1.084   .     S
C1047  H1081   1.081   .     S
C1048  C1065   1.396   .     A
C1048  H1078   1.075   .     S
C1049  C1064   1.392   .     A
C1049  C1065   1.398   .     A
C1049  H1071   1.083   .     S
C1050  C1066   1.402   .     A
C1050  C1052   1.478   .     S
C1051  H1082   1.084   .     S
C1051  C1057   1.403   .     A
C1051  C663    1.382   1_565 S
C1052  O1088   1.298   .     A
C1052  O1087   1.304   .     A
C1053  H1072   1.084   .     S
C1053  C1054   1.394   .     A
C1054  C1055   1.398   .     A
C1054  C1062   1.443   .     S
C1055  H1073   1.085   .     S
C1056  C1093   1.486   .     S
C1056  C1057   1.418   .     A
C1056  C665    1.392   1_565 S
C1058  N1084   1.354   .     A
C1058  H1074   1.083   .     S
C1058  C1124   1.413   .     S
C1059  N1083   1.389   .     A
C1059  C1097   1.473   .     S
C1060  N1083   1.367   .     A
C1060  H1075   1.081   .     S
C1061  N1084   1.369   .     A
C1061  H1076   1.082   .     S
C1061  C1125   1.419   .     S
C1062  O1090   1.294   .     A
C1062  O1089   1.291   .     A
C1063  O1092   1.299   .     A
C1063  C1065   1.462   .     S
C1063  O1091   1.296   .     A
C1066  C1067   1.396   .     A
C1066  H1079   1.080   .     S
C1067  C483    1.400   1_556 S
C1067  C517    1.492   1_556 S
C1068  H1080   1.072   .     S
Cu1069 O1089   1.957   .     S
Cu1069 N1083   2.020   .     S
Cu1069 O1087   1.951   .     S
Cu1069 O1085   1.960   .     S
Cu1069 Cu1070  2.688   .     S
Cu1069 O1091   1.935   .     S
Cu1070 N1084   2.020   .     S
Cu1070 O1088   1.935   .     S
Cu1070 O1092   1.951   .     S
Cu1070 O1090   1.960   .     S
Cu1070 O1086   1.957   .     S
H1077  C479    1.084   1_556 S
C1093  O1095   1.399   .     S
C1093  O1094   1.223   .     D
O1095  H1096   1.014   .     S
C1097  O1098   1.218   .     D
C1097  O1099   1.398   .     S
O1099  H1100   1.014   .     S
O1103  C582    1.221   1_556 S
O1104  C1167   1.400   .     S
O1104  H1170   1.011   .     S
C1106  C1122   1.451   .     S
C1106  O1150   1.294   .     A
C1106  O1151   1.293   .     A
C1107  C1108   1.419   .     A
C1107  C524    1.427   1_556 S
C1107  C548    1.419   1_556 S
C1108  C1115   1.419   .     A
C1108  C1112   1.412   .     A
C1109  C1113   1.404   .     A
C1110  C1111   1.391   .     A
C1110  C524    1.421   1_556 S
C1110  C544    1.404   1_556 S
C1111  C1112   1.386   .     A
C1111  H1166   1.084   .     S
C1112  H1146   1.081   .     S
C1113  C1130   1.396   .     A
C1113  H1143   1.075   .     S
C1114  C1129   1.392   .     A
C1114  C1130   1.398   .     A
C1114  H1136   1.083   .     S
C1115  C1131   1.402   .     A
C1115  C1117   1.478   .     S
C1116  H1147   1.084   .     S
C1116  C1122   1.403   .     A
C1116  C728    1.382   1_565 S
C1117  O1153   1.298   .     A
C1117  O1152   1.304   .     A
C1118  H1137   1.084   .     S
C1118  C1119   1.394   .     A
C1119  C1120   1.398   .     A
C1119  C1127   1.443   .     S
C1120  H1138   1.085   .     S
C1121  C1158   1.486   .     S
C1121  C1122   1.418   .     A
C1121  C730    1.392   1_565 S
C1123  N1149   1.354   .     A
C1123  H1139   1.083   .     S
C1123  C994    1.413   1_655 S
C1124  N1148   1.389   .     A
C1124  C1162   1.473   .     S
C1125  N1148   1.367   .     A
C1125  H1140   1.081   .     S
C1126  N1149   1.369   .     A
C1126  H1141   1.082   .     S
C1126  C995    1.419   1_655 S
C1127  O1155   1.294   .     A
C1127  O1154   1.291   .     A
C1128  O1157   1.299   .     A
C1128  C1130   1.462   .     S
C1128  O1156   1.296   .     A
C1131  C1132   1.396   .     A
C1131  H1144   1.080   .     S
C1132  C548    1.400   1_556 S
C1132  C582    1.492   1_556 S
C1133  H1145   1.072   .     S
Cu1134 O1154   1.957   .     S
Cu1134 N1148   2.020   .     S
Cu1134 O1152   1.951   .     S
Cu1134 O1150   1.960   .     S
Cu1134 Cu1135  2.688   .     S
Cu1134 O1156   1.935   .     S
Cu1135 N1149   2.020   .     S
Cu1135 O1153   1.935   .     S
Cu1135 O1157   1.951   .     S
Cu1135 O1155   1.960   .     S
Cu1135 O1151   1.957   .     S
H1142  C544    1.084   1_556 S
C1158  O1160   1.399   .     S
C1158  O1159   1.223   .     D
O1160  H1161   1.014   .     S
C1162  O1163   1.218   .     D
C1162  O1164   1.398   .     S
O1164  H1165   1.014   .     S
O1168  C452    1.221   1_656 S
O1169  C1037   1.400   1_655 S
O1169  H1040   1.011   1_655 S
