data_str_m2_o10_o17_pcu_sym.193
_audit_creation_date              2020-01-03
_audit_creation_method            'Materials Studio'
_symmetry_space_group_name_H-M    'P1'
_symmetry_Int_Tables_number       1
_symmetry_cell_setting            triclinic
loop_
_symmetry_equiv_pos_as_xyz
  x,y,z
_cell_length_a                    30.0043
_cell_length_b                    26.3405
_cell_length_c                    22.5628
_cell_angle_alpha                 101.3188
_cell_angle_beta                  95.8297
_cell_angle_gamma                 94.1992
loop_
_atom_site_label
_atom_site_type_symbol
_atom_site_fract_x
_atom_site_fract_y
_atom_site_fract_z
_atom_site_U_iso_or_equiv
_atom_site_adp_type
_atom_site_occupancy
C1     C     0.24922   0.06724   0.15203   0.00000  Uiso   1.00
C2     C     0.25078   0.26609   0.18130   0.00000  Uiso   1.00
C3     C     0.01164   0.07226   0.12124   0.00000  Uiso   1.00
C4     C     0.48836   0.26107   0.21209   0.00000  Uiso   1.00
C5     C     0.25528   0.01336   0.14519   0.00000  Uiso   1.00
C6     C     0.24472   0.31998   0.18814   0.00000  Uiso   1.00
C7     C     0.16461   0.16537   0.16658   0.00000  Uiso   1.00
C8     C     0.33539   0.16797   0.16675   0.00000  Uiso   1.00
C9     C     0.41128   0.21619   0.18524   0.00000  Uiso   1.00
C10    C     0.08872   0.11715   0.14810   0.00000  Uiso   1.00
C11    C     0.38363   0.16924   0.16647   0.00000  Uiso   1.00
C12    C     0.11636   0.16410   0.16686   0.00000  Uiso   1.00
C13    C     0.40136   0.12291   0.14527   0.00000  Uiso   1.00
C14    C     0.09864   0.21043   0.18807   0.00000  Uiso   1.00
C15    C     0.44759   0.12145   0.14387   0.00000  Uiso   1.00
C16    C     0.05241   0.21188   0.18947   0.00000  Uiso   1.00
C17    C     0.47659   0.16761   0.16638   0.00000  Uiso   1.00
C18    C     0.02341   0.16573   0.16696   0.00000  Uiso   1.00
C19    C     0.45861   0.21559   0.18789   0.00000  Uiso   1.00
C20    C     0.04139   0.11774   0.14545   0.00000  Uiso   1.00
C21    C     0.46484   0.07441   0.12028   0.00000  Uiso   1.00
C22    C     0.03516   0.25892   0.21305   0.00000  Uiso   1.00
Cu23   Cu    0.25500   0.17246   0.22813   0.00000  Uiso   1.00
Cu24   Cu    0.24499   0.16087   0.10521   0.00000  Uiso   1.00
H25    H     0.37845   0.08789   0.12987   0.00000  Uiso   1.00
H26    H     0.12155   0.24544   0.20346   0.00000  Uiso   1.00
N27    N     0.23744   0.15214   0.01284   0.00000  Uiso   1.00
N28    N     0.26255   0.18119   0.32049   0.00000  Uiso   1.00
O29    O     0.25325   0.09538   0.20659   0.00000  Uiso   1.00
O30    O     0.24674   0.23796   0.12674   0.00000  Uiso   1.00
O31    O     0.24480   0.08559   0.10279   0.00000  Uiso   1.00
O32    O     0.25520   0.24774   0.23055   0.00000  Uiso   1.00
O33    O     0.18935   0.17155   0.21857   0.00000  Uiso   1.00
O34    O     0.31064   0.16179   0.11476   0.00000  Uiso   1.00
O35    O     0.18090   0.16176   0.11477   0.00000  Uiso   1.00
O36    O     0.31910   0.17157   0.21857   0.00000  Uiso   1.00
N37    N     0.39111   0.26430   0.19863   0.00000  Uiso   1.00
H38    H     0.36907   0.26739   0.16080   0.00000  Uiso   1.00
H39    H     0.37284   0.26396   0.23544   0.00000  Uiso   1.00
N40    N     0.10888   0.06904   0.13470   0.00000  Uiso   1.00
H41    H     0.13093   0.06594   0.17253   0.00000  Uiso   1.00
H42    H     0.12716   0.06937   0.09789   0.00000  Uiso   1.00
N43    N     0.43433   0.02899   0.09410   0.00000  Uiso   1.00
H44    H     0.43913   0.01656   0.04849   0.00000  Uiso   1.00
H45    H     0.44093   0.33266   0.11745   0.00000  Uiso   1.00
N46    N     0.06567   0.30434   0.23923   0.00000  Uiso   1.00
H47    H     0.06087   0.31677   0.28485   0.00000  Uiso   1.00
H48    H     0.05907   0.00067   0.21588   0.00000  Uiso   1.00
N49    N     0.02868   0.02429   0.09547   0.00000  Uiso   1.00
H50    H     0.01726   0.32833   0.11698   0.00000  Uiso   1.00
H51    H     0.01677   0.01402   0.04927   0.00000  Uiso   1.00
N52    N     0.47132   0.30905   0.23786   0.00000  Uiso   1.00
H53    H     0.48323   0.31931   0.28407   0.00000  Uiso   1.00
H54    H     0.48274   0.00500   0.21635   0.00000  Uiso   1.00
N55    N     0.27566   0.32465   0.09234   0.00000  Uiso   1.00
H56    H     0.25166   0.29936   0.06161   0.00000  Uiso   1.00
H57    H     0.30363   0.30630   0.10550   0.00000  Uiso   1.00
N58    N     0.22434   0.00869   0.24099   0.00000  Uiso   1.00
H59    H     0.24834   0.03397   0.27172   0.00000  Uiso   1.00
H60    H     0.19637   0.02704   0.22783   0.00000  Uiso   1.00
O61    O     0.21176   0.11434   0.30552   0.00000  Uiso   1.00
C62    C     0.17091   0.10447   0.32784   0.00000  Uiso   1.00
H63    H     0.15415   0.14072   0.00681   0.00000  Uiso   1.00
H64    H     0.17587   0.08338   0.03202   0.00000  Uiso   1.00
H65    H     0.14784   0.07843   0.29102   0.00000  Uiso   1.00
O66    O     0.28824   0.21899   0.02781   0.00000  Uiso   1.00
C67    C     0.32909   0.22886   0.00550   0.00000  Uiso   1.00
H68    H     0.32413   0.24996   0.30131   0.00000  Uiso   1.00
H69    H     0.34585   0.19262   0.32653   0.00000  Uiso   1.00
H70    H     0.35216   0.25490   0.04232   0.00000  Uiso   1.00
C71    C     0.74922   0.06724   0.15203   0.00000  Uiso   1.00
C72    C     0.75078   0.26609   0.18130   0.00000  Uiso   1.00
C73    C     0.51164   0.07226   0.12124   0.00000  Uiso   1.00
C74    C     0.98836   0.26107   0.21209   0.00000  Uiso   1.00
C75    C     0.75528   0.01336   0.14519   0.00000  Uiso   1.00
C76    C     0.74472   0.31998   0.18814   0.00000  Uiso   1.00
C77    C     0.66461   0.16537   0.16658   0.00000  Uiso   1.00
C78    C     0.83539   0.16797   0.16675   0.00000  Uiso   1.00
C79    C     0.91128   0.21619   0.18524   0.00000  Uiso   1.00
C80    C     0.58872   0.11715   0.14810   0.00000  Uiso   1.00
C81    C     0.88363   0.16924   0.16647   0.00000  Uiso   1.00
C82    C     0.61636   0.16410   0.16686   0.00000  Uiso   1.00
C83    C     0.90136   0.12291   0.14527   0.00000  Uiso   1.00
C84    C     0.59864   0.21043   0.18807   0.00000  Uiso   1.00
C85    C     0.94759   0.12145   0.14387   0.00000  Uiso   1.00
C86    C     0.55241   0.21188   0.18947   0.00000  Uiso   1.00
C87    C     0.97659   0.16761   0.16638   0.00000  Uiso   1.00
C88    C     0.52341   0.16573   0.16696   0.00000  Uiso   1.00
C89    C     0.95861   0.21559   0.18789   0.00000  Uiso   1.00
C90    C     0.54139   0.11774   0.14545   0.00000  Uiso   1.00
C91    C     0.96484   0.07441   0.12028   0.00000  Uiso   1.00
C92    C     0.53516   0.25892   0.21305   0.00000  Uiso   1.00
Cu93   Cu    0.75500   0.17246   0.22813   0.00000  Uiso   1.00
Cu94   Cu    0.74499   0.16087   0.10521   0.00000  Uiso   1.00
H95    H     0.87845   0.08789   0.12987   0.00000  Uiso   1.00
H96    H     0.62155   0.24544   0.20346   0.00000  Uiso   1.00
N97    N     0.73744   0.15214   0.01284   0.00000  Uiso   1.00
N98    N     0.76255   0.18119   0.32049   0.00000  Uiso   1.00
O99    O     0.75325   0.09538   0.20659   0.00000  Uiso   1.00
O100   O     0.74674   0.23796   0.12674   0.00000  Uiso   1.00
O101   O     0.74480   0.08559   0.10279   0.00000  Uiso   1.00
O102   O     0.75520   0.24774   0.23055   0.00000  Uiso   1.00
O103   O     0.68935   0.17155   0.21857   0.00000  Uiso   1.00
O104   O     0.81064   0.16179   0.11476   0.00000  Uiso   1.00
O105   O     0.68090   0.16176   0.11477   0.00000  Uiso   1.00
O106   O     0.81910   0.17157   0.21857   0.00000  Uiso   1.00
N107   N     0.89111   0.26430   0.19863   0.00000  Uiso   1.00
H108   H     0.86907   0.26739   0.16080   0.00000  Uiso   1.00
H109   H     0.87284   0.26396   0.23544   0.00000  Uiso   1.00
N110   N     0.60888   0.06904   0.13470   0.00000  Uiso   1.00
H111   H     0.63093   0.06594   0.17253   0.00000  Uiso   1.00
H112   H     0.62716   0.06937   0.09789   0.00000  Uiso   1.00
N113   N     0.93433   0.02899   0.09410   0.00000  Uiso   1.00
H114   H     0.93913   0.01656   0.04849   0.00000  Uiso   1.00
H115   H     0.94093   0.33266   0.11745   0.00000  Uiso   1.00
N116   N     0.56567   0.30434   0.23923   0.00000  Uiso   1.00
H117   H     0.56087   0.31677   0.28485   0.00000  Uiso   1.00
H118   H     0.55907   0.00067   0.21588   0.00000  Uiso   1.00
N119   N     0.52868   0.02429   0.09547   0.00000  Uiso   1.00
H120   H     0.51726   0.32833   0.11698   0.00000  Uiso   1.00
H121   H     0.51677   0.01402   0.04927   0.00000  Uiso   1.00
N122   N     0.97132   0.30905   0.23786   0.00000  Uiso   1.00
H123   H     0.98323   0.31931   0.28407   0.00000  Uiso   1.00
H124   H     0.98274   0.00500   0.21635   0.00000  Uiso   1.00
N125   N     0.77566   0.32465   0.09234   0.00000  Uiso   1.00
H126   H     0.75166   0.29936   0.06161   0.00000  Uiso   1.00
H127   H     0.80363   0.30630   0.10550   0.00000  Uiso   1.00
N128   N     0.72434   0.00869   0.24099   0.00000  Uiso   1.00
H129   H     0.74834   0.03397   0.27172   0.00000  Uiso   1.00
H130   H     0.69637   0.02704   0.22783   0.00000  Uiso   1.00
O131   O     0.71176   0.11434   0.30552   0.00000  Uiso   1.00
C132   C     0.67091   0.10447   0.32784   0.00000  Uiso   1.00
H133   H     0.65415   0.14072   0.00681   0.00000  Uiso   1.00
H134   H     0.67587   0.08338   0.03202   0.00000  Uiso   1.00
H135   H     0.64784   0.07843   0.29102   0.00000  Uiso   1.00
O136   O     0.78824   0.21899   0.02781   0.00000  Uiso   1.00
C137   C     0.82909   0.22886   0.00550   0.00000  Uiso   1.00
H138   H     0.82413   0.24996   0.30131   0.00000  Uiso   1.00
H139   H     0.84585   0.19262   0.32653   0.00000  Uiso   1.00
H140   H     0.85216   0.25490   0.04232   0.00000  Uiso   1.00
C141   C     0.24922   0.40057   0.15203   0.00000  Uiso   1.00
C142   C     0.25078   0.59943   0.18130   0.00000  Uiso   1.00
C143   C     0.01164   0.40559   0.12124   0.00000  Uiso   1.00
C144   C     0.48836   0.59441   0.21209   0.00000  Uiso   1.00
C145   C     0.25528   0.34669   0.14519   0.00000  Uiso   1.00
C146   C     0.24472   0.65331   0.18814   0.00000  Uiso   1.00
C147   C     0.16461   0.49870   0.16658   0.00000  Uiso   1.00
C148   C     0.33539   0.50130   0.16675   0.00000  Uiso   1.00
C149   C     0.41128   0.54952   0.18524   0.00000  Uiso   1.00
C150   C     0.08872   0.45048   0.14810   0.00000  Uiso   1.00
C151   C     0.38363   0.50257   0.16647   0.00000  Uiso   1.00
C152   C     0.11636   0.49743   0.16686   0.00000  Uiso   1.00
C153   C     0.40136   0.45624   0.14527   0.00000  Uiso   1.00
C154   C     0.09864   0.54376   0.18807   0.00000  Uiso   1.00
C155   C     0.44759   0.45478   0.14387   0.00000  Uiso   1.00
C156   C     0.05241   0.54522   0.18947   0.00000  Uiso   1.00
C157   C     0.47659   0.50094   0.16638   0.00000  Uiso   1.00
C158   C     0.02341   0.49906   0.16696   0.00000  Uiso   1.00
C159   C     0.45861   0.54893   0.18789   0.00000  Uiso   1.00
C160   C     0.04139   0.45107   0.14545   0.00000  Uiso   1.00
C161   C     0.46484   0.40774   0.12028   0.00000  Uiso   1.00
C162   C     0.03516   0.59226   0.21305   0.00000  Uiso   1.00
Cu163  Cu    0.25500   0.50579   0.22813   0.00000  Uiso   1.00
Cu164  Cu    0.24499   0.49421   0.10521   0.00000  Uiso   1.00
H165   H     0.37845   0.42122   0.12987   0.00000  Uiso   1.00
H166   H     0.12155   0.57878   0.20346   0.00000  Uiso   1.00
N167   N     0.23744   0.48547   0.01284   0.00000  Uiso   1.00
N168   N     0.26255   0.51453   0.32049   0.00000  Uiso   1.00
O169   O     0.25325   0.42871   0.20659   0.00000  Uiso   1.00
O170   O     0.24674   0.57129   0.12674   0.00000  Uiso   1.00
O171   O     0.24480   0.41892   0.10279   0.00000  Uiso   1.00
O172   O     0.25520   0.58108   0.23055   0.00000  Uiso   1.00
O173   O     0.18935   0.50488   0.21857   0.00000  Uiso   1.00
O174   O     0.31064   0.49512   0.11476   0.00000  Uiso   1.00
O175   O     0.18090   0.49510   0.11477   0.00000  Uiso   1.00
O176   O     0.31910   0.50490   0.21857   0.00000  Uiso   1.00
N177   N     0.39111   0.59763   0.19863   0.00000  Uiso   1.00
H178   H     0.36907   0.60072   0.16080   0.00000  Uiso   1.00
H179   H     0.37284   0.59730   0.23544   0.00000  Uiso   1.00
N180   N     0.10888   0.40237   0.13470   0.00000  Uiso   1.00
H181   H     0.13093   0.39928   0.17253   0.00000  Uiso   1.00
H182   H     0.12716   0.40270   0.09789   0.00000  Uiso   1.00
N183   N     0.43433   0.36232   0.09410   0.00000  Uiso   1.00
H184   H     0.43913   0.34989   0.04849   0.00000  Uiso   1.00
H185   H     0.44093   0.66599   0.11745   0.00000  Uiso   1.00
N186   N     0.06567   0.63768   0.23923   0.00000  Uiso   1.00
H187   H     0.06087   0.65011   0.28485   0.00000  Uiso   1.00
H188   H     0.05907   0.33401   0.21588   0.00000  Uiso   1.00
N189   N     0.02868   0.35762   0.09547   0.00000  Uiso   1.00
H190   H     0.01726   0.66166   0.11698   0.00000  Uiso   1.00
H191   H     0.01677   0.34736   0.04927   0.00000  Uiso   1.00
N192   N     0.47132   0.64238   0.23786   0.00000  Uiso   1.00
H193   H     0.48323   0.65264   0.28407   0.00000  Uiso   1.00
H194   H     0.48274   0.33834   0.21635   0.00000  Uiso   1.00
N195   N     0.27566   0.65798   0.09234   0.00000  Uiso   1.00
H196   H     0.25166   0.63269   0.06161   0.00000  Uiso   1.00
H197   H     0.30363   0.63963   0.10550   0.00000  Uiso   1.00
N198   N     0.22434   0.34202   0.24099   0.00000  Uiso   1.00
H199   H     0.24834   0.36731   0.27172   0.00000  Uiso   1.00
H200   H     0.19637   0.36037   0.22783   0.00000  Uiso   1.00
O201   O     0.21176   0.44767   0.30552   0.00000  Uiso   1.00
C202   C     0.17091   0.43780   0.32784   0.00000  Uiso   1.00
H203   H     0.15415   0.47405   0.00681   0.00000  Uiso   1.00
H204   H     0.17587   0.41671   0.03202   0.00000  Uiso   1.00
H205   H     0.14784   0.41177   0.29102   0.00000  Uiso   1.00
O206   O     0.28824   0.55233   0.02781   0.00000  Uiso   1.00
C207   C     0.32909   0.56220   0.00550   0.00000  Uiso   1.00
H208   H     0.32413   0.58329   0.30131   0.00000  Uiso   1.00
H209   H     0.34585   0.52595   0.32653   0.00000  Uiso   1.00
H210   H     0.35216   0.58823   0.04232   0.00000  Uiso   1.00
C211   C     0.74922   0.40057   0.15203   0.00000  Uiso   1.00
C212   C     0.75078   0.59943   0.18130   0.00000  Uiso   1.00
C213   C     0.51164   0.40559   0.12124   0.00000  Uiso   1.00
C214   C     0.98836   0.59441   0.21209   0.00000  Uiso   1.00
C215   C     0.75528   0.34669   0.14519   0.00000  Uiso   1.00
C216   C     0.74472   0.65331   0.18814   0.00000  Uiso   1.00
C217   C     0.66461   0.49870   0.16658   0.00000  Uiso   1.00
C218   C     0.83539   0.50130   0.16675   0.00000  Uiso   1.00
C219   C     0.91128   0.54952   0.18524   0.00000  Uiso   1.00
C220   C     0.58872   0.45048   0.14810   0.00000  Uiso   1.00
C221   C     0.88363   0.50257   0.16647   0.00000  Uiso   1.00
C222   C     0.61636   0.49743   0.16686   0.00000  Uiso   1.00
C223   C     0.90136   0.45624   0.14527   0.00000  Uiso   1.00
C224   C     0.59864   0.54376   0.18807   0.00000  Uiso   1.00
C225   C     0.94759   0.45478   0.14387   0.00000  Uiso   1.00
C226   C     0.55241   0.54522   0.18947   0.00000  Uiso   1.00
C227   C     0.97659   0.50094   0.16638   0.00000  Uiso   1.00
C228   C     0.52341   0.49906   0.16696   0.00000  Uiso   1.00
C229   C     0.95861   0.54893   0.18789   0.00000  Uiso   1.00
C230   C     0.54139   0.45107   0.14545   0.00000  Uiso   1.00
C231   C     0.96484   0.40774   0.12028   0.00000  Uiso   1.00
C232   C     0.53516   0.59226   0.21305   0.00000  Uiso   1.00
Cu233  Cu    0.75500   0.50579   0.22813   0.00000  Uiso   1.00
Cu234  Cu    0.74499   0.49421   0.10521   0.00000  Uiso   1.00
H235   H     0.87845   0.42122   0.12987   0.00000  Uiso   1.00
H236   H     0.62155   0.57878   0.20346   0.00000  Uiso   1.00
N237   N     0.73744   0.48547   0.01284   0.00000  Uiso   1.00
N238   N     0.76255   0.51453   0.32049   0.00000  Uiso   1.00
O239   O     0.75325   0.42871   0.20659   0.00000  Uiso   1.00
O240   O     0.74674   0.57129   0.12674   0.00000  Uiso   1.00
O241   O     0.74480   0.41892   0.10279   0.00000  Uiso   1.00
O242   O     0.75520   0.58108   0.23055   0.00000  Uiso   1.00
O243   O     0.68935   0.50488   0.21857   0.00000  Uiso   1.00
O244   O     0.81064   0.49512   0.11476   0.00000  Uiso   1.00
O245   O     0.68090   0.49510   0.11477   0.00000  Uiso   1.00
O246   O     0.81910   0.50490   0.21857   0.00000  Uiso   1.00
N247   N     0.89111   0.59763   0.19863   0.00000  Uiso   1.00
H248   H     0.86907   0.60072   0.16080   0.00000  Uiso   1.00
H249   H     0.87284   0.59730   0.23544   0.00000  Uiso   1.00
N250   N     0.60888   0.40237   0.13470   0.00000  Uiso   1.00
H251   H     0.63093   0.39928   0.17253   0.00000  Uiso   1.00
H252   H     0.62716   0.40270   0.09789   0.00000  Uiso   1.00
N253   N     0.93433   0.36232   0.09410   0.00000  Uiso   1.00
H254   H     0.93913   0.34989   0.04849   0.00000  Uiso   1.00
H255   H     0.94093   0.66599   0.11745   0.00000  Uiso   1.00
N256   N     0.56567   0.63768   0.23923   0.00000  Uiso   1.00
H257   H     0.56087   0.65011   0.28485   0.00000  Uiso   1.00
H258   H     0.55907   0.33401   0.21588   0.00000  Uiso   1.00
N259   N     0.52868   0.35762   0.09547   0.00000  Uiso   1.00
H260   H     0.51726   0.66166   0.11698   0.00000  Uiso   1.00
H261   H     0.51677   0.34736   0.04927   0.00000  Uiso   1.00
N262   N     0.97132   0.64238   0.23786   0.00000  Uiso   1.00
H263   H     0.98323   0.65264   0.28407   0.00000  Uiso   1.00
H264   H     0.98274   0.33834   0.21635   0.00000  Uiso   1.00
N265   N     0.77566   0.65798   0.09234   0.00000  Uiso   1.00
H266   H     0.75166   0.63269   0.06161   0.00000  Uiso   1.00
H267   H     0.80363   0.63963   0.10550   0.00000  Uiso   1.00
N268   N     0.72434   0.34202   0.24099   0.00000  Uiso   1.00
H269   H     0.74834   0.36731   0.27172   0.00000  Uiso   1.00
H270   H     0.69637   0.36037   0.22783   0.00000  Uiso   1.00
O271   O     0.71176   0.44767   0.30552   0.00000  Uiso   1.00
C272   C     0.67091   0.43780   0.32784   0.00000  Uiso   1.00
H273   H     0.65415   0.47405   0.00681   0.00000  Uiso   1.00
H274   H     0.67587   0.41671   0.03202   0.00000  Uiso   1.00
H275   H     0.64784   0.41177   0.29102   0.00000  Uiso   1.00
O276   O     0.78824   0.55233   0.02781   0.00000  Uiso   1.00
C277   C     0.82909   0.56220   0.00550   0.00000  Uiso   1.00
H278   H     0.82413   0.58329   0.30131   0.00000  Uiso   1.00
H279   H     0.84585   0.52595   0.32653   0.00000  Uiso   1.00
H280   H     0.85216   0.58823   0.04232   0.00000  Uiso   1.00
C281   C     0.24922   0.73391   0.15203   0.00000  Uiso   1.00
C282   C     0.25078   0.93276   0.18130   0.00000  Uiso   1.00
C283   C     0.01164   0.73893   0.12124   0.00000  Uiso   1.00
C284   C     0.48836   0.92774   0.21209   0.00000  Uiso   1.00
C285   C     0.25528   0.68002   0.14519   0.00000  Uiso   1.00
C286   C     0.24472   0.98664   0.18814   0.00000  Uiso   1.00
C287   C     0.16461   0.83203   0.16658   0.00000  Uiso   1.00
C288   C     0.33539   0.83463   0.16675   0.00000  Uiso   1.00
C289   C     0.41128   0.88285   0.18524   0.00000  Uiso   1.00
C290   C     0.08872   0.78381   0.14810   0.00000  Uiso   1.00
C291   C     0.38363   0.83590   0.16647   0.00000  Uiso   1.00
C292   C     0.11636   0.83076   0.16686   0.00000  Uiso   1.00
C293   C     0.40136   0.78957   0.14527   0.00000  Uiso   1.00
C294   C     0.09864   0.87709   0.18807   0.00000  Uiso   1.00
C295   C     0.44759   0.78812   0.14387   0.00000  Uiso   1.00
C296   C     0.05241   0.87855   0.18947   0.00000  Uiso   1.00
C297   C     0.47659   0.83427   0.16638   0.00000  Uiso   1.00
C298   C     0.02341   0.83239   0.16696   0.00000  Uiso   1.00
C299   C     0.45861   0.88226   0.18789   0.00000  Uiso   1.00
C300   C     0.04139   0.78441   0.14545   0.00000  Uiso   1.00
C301   C     0.46484   0.74108   0.12028   0.00000  Uiso   1.00
C302   C     0.03516   0.92559   0.21305   0.00000  Uiso   1.00
Cu303  Cu    0.25500   0.83913   0.22813   0.00000  Uiso   1.00
Cu304  Cu    0.24499   0.82754   0.10521   0.00000  Uiso   1.00
H305   H     0.37845   0.75456   0.12987   0.00000  Uiso   1.00
H306   H     0.12155   0.91211   0.20346   0.00000  Uiso   1.00
N307   N     0.23744   0.81881   0.01284   0.00000  Uiso   1.00
N308   N     0.26255   0.84786   0.32049   0.00000  Uiso   1.00
O309   O     0.25325   0.76204   0.20659   0.00000  Uiso   1.00
O310   O     0.24674   0.90462   0.12674   0.00000  Uiso   1.00
O311   O     0.24480   0.75226   0.10279   0.00000  Uiso   1.00
O312   O     0.25520   0.91441   0.23055   0.00000  Uiso   1.00
O313   O     0.18935   0.83821   0.21857   0.00000  Uiso   1.00
O314   O     0.31064   0.82845   0.11476   0.00000  Uiso   1.00
O315   O     0.18090   0.82843   0.11477   0.00000  Uiso   1.00
O316   O     0.31910   0.83824   0.21857   0.00000  Uiso   1.00
N317   N     0.39111   0.93096   0.19863   0.00000  Uiso   1.00
H318   H     0.36907   0.93406   0.16080   0.00000  Uiso   1.00
H319   H     0.37284   0.93063   0.23544   0.00000  Uiso   1.00
N320   N     0.10888   0.73570   0.13470   0.00000  Uiso   1.00
H321   H     0.13093   0.73261   0.17253   0.00000  Uiso   1.00
H322   H     0.12716   0.73604   0.09789   0.00000  Uiso   1.00
N323   N     0.43433   0.69566   0.09410   0.00000  Uiso   1.00
H324   H     0.43913   0.68323   0.04849   0.00000  Uiso   1.00
H325   H     0.44093   0.99933   0.11745   0.00000  Uiso   1.00
N326   N     0.06567   0.97101   0.23923   0.00000  Uiso   1.00
H327   H     0.06087   0.98344   0.28485   0.00000  Uiso   1.00
H328   H     0.05907   0.66734   0.21588   0.00000  Uiso   1.00
N329   N     0.02868   0.69095   0.09547   0.00000  Uiso   1.00
H330   H     0.01726   0.99500   0.11698   0.00000  Uiso   1.00
H331   H     0.01677   0.68069   0.04927   0.00000  Uiso   1.00
N332   N     0.47132   0.97571   0.23786   0.00000  Uiso   1.00
H333   H     0.48323   0.98598   0.28407   0.00000  Uiso   1.00
H334   H     0.48274   0.67167   0.21635   0.00000  Uiso   1.00
N335   N     0.27566   0.99131   0.09234   0.00000  Uiso   1.00
H336   H     0.25166   0.96603   0.06161   0.00000  Uiso   1.00
H337   H     0.30363   0.97296   0.10550   0.00000  Uiso   1.00
N338   N     0.22434   0.67535   0.24099   0.00000  Uiso   1.00
H339   H     0.24834   0.70064   0.27172   0.00000  Uiso   1.00
H340   H     0.19637   0.69370   0.22783   0.00000  Uiso   1.00
O341   O     0.21176   0.78101   0.30552   0.00000  Uiso   1.00
C342   C     0.17091   0.77114   0.32784   0.00000  Uiso   1.00
H343   H     0.15415   0.80738   0.00681   0.00000  Uiso   1.00
H344   H     0.17587   0.75004   0.03202   0.00000  Uiso   1.00
H345   H     0.14784   0.74510   0.29102   0.00000  Uiso   1.00
O346   O     0.28824   0.88566   0.02781   0.00000  Uiso   1.00
C347   C     0.32909   0.89553   0.00550   0.00000  Uiso   1.00
H348   H     0.32413   0.91662   0.30131   0.00000  Uiso   1.00
H349   H     0.34585   0.85928   0.32653   0.00000  Uiso   1.00
H350   H     0.35216   0.92157   0.04232   0.00000  Uiso   1.00
C351   C     0.74922   0.73391   0.15203   0.00000  Uiso   1.00
C352   C     0.75078   0.93276   0.18130   0.00000  Uiso   1.00
C353   C     0.51164   0.73893   0.12124   0.00000  Uiso   1.00
C354   C     0.98836   0.92774   0.21209   0.00000  Uiso   1.00
C355   C     0.75528   0.68002   0.14519   0.00000  Uiso   1.00
C356   C     0.74472   0.98664   0.18814   0.00000  Uiso   1.00
C357   C     0.66461   0.83203   0.16658   0.00000  Uiso   1.00
C358   C     0.83539   0.83463   0.16675   0.00000  Uiso   1.00
C359   C     0.91128   0.88285   0.18524   0.00000  Uiso   1.00
C360   C     0.58872   0.78381   0.14810   0.00000  Uiso   1.00
C361   C     0.88363   0.83590   0.16647   0.00000  Uiso   1.00
C362   C     0.61636   0.83076   0.16686   0.00000  Uiso   1.00
C363   C     0.90136   0.78957   0.14527   0.00000  Uiso   1.00
C364   C     0.59864   0.87709   0.18807   0.00000  Uiso   1.00
C365   C     0.94759   0.78812   0.14387   0.00000  Uiso   1.00
C366   C     0.55241   0.87855   0.18947   0.00000  Uiso   1.00
C367   C     0.97659   0.83427   0.16638   0.00000  Uiso   1.00
C368   C     0.52341   0.83239   0.16696   0.00000  Uiso   1.00
C369   C     0.95861   0.88226   0.18789   0.00000  Uiso   1.00
C370   C     0.54139   0.78441   0.14545   0.00000  Uiso   1.00
C371   C     0.96484   0.74108   0.12028   0.00000  Uiso   1.00
C372   C     0.53516   0.92559   0.21305   0.00000  Uiso   1.00
Cu373  Cu    0.75500   0.83913   0.22813   0.00000  Uiso   1.00
Cu374  Cu    0.74499   0.82754   0.10521   0.00000  Uiso   1.00
H375   H     0.87845   0.75456   0.12987   0.00000  Uiso   1.00
H376   H     0.62155   0.91211   0.20346   0.00000  Uiso   1.00
N377   N     0.73744   0.81881   0.01284   0.00000  Uiso   1.00
N378   N     0.76255   0.84786   0.32049   0.00000  Uiso   1.00
O379   O     0.75325   0.76204   0.20659   0.00000  Uiso   1.00
O380   O     0.74674   0.90462   0.12674   0.00000  Uiso   1.00
O381   O     0.74480   0.75226   0.10279   0.00000  Uiso   1.00
O382   O     0.75520   0.91441   0.23055   0.00000  Uiso   1.00
O383   O     0.68935   0.83821   0.21857   0.00000  Uiso   1.00
O384   O     0.81064   0.82845   0.11476   0.00000  Uiso   1.00
O385   O     0.68090   0.82843   0.11477   0.00000  Uiso   1.00
O386   O     0.81910   0.83824   0.21857   0.00000  Uiso   1.00
N387   N     0.89111   0.93096   0.19863   0.00000  Uiso   1.00
H388   H     0.86907   0.93406   0.16080   0.00000  Uiso   1.00
H389   H     0.87284   0.93063   0.23544   0.00000  Uiso   1.00
N390   N     0.60888   0.73570   0.13470   0.00000  Uiso   1.00
H391   H     0.63093   0.73261   0.17253   0.00000  Uiso   1.00
H392   H     0.62716   0.73604   0.09789   0.00000  Uiso   1.00
N393   N     0.93433   0.69566   0.09410   0.00000  Uiso   1.00
H394   H     0.93913   0.68323   0.04849   0.00000  Uiso   1.00
H395   H     0.94093   0.99933   0.11745   0.00000  Uiso   1.00
N396   N     0.56567   0.97101   0.23923   0.00000  Uiso   1.00
H397   H     0.56087   0.98344   0.28485   0.00000  Uiso   1.00
H398   H     0.55907   0.66734   0.21588   0.00000  Uiso   1.00
N399   N     0.52868   0.69095   0.09547   0.00000  Uiso   1.00
H400   H     0.51726   0.99500   0.11698   0.00000  Uiso   1.00
H401   H     0.51677   0.68069   0.04927   0.00000  Uiso   1.00
N402   N     0.97132   0.97571   0.23786   0.00000  Uiso   1.00
H403   H     0.98323   0.98598   0.28407   0.00000  Uiso   1.00
H404   H     0.98274   0.67167   0.21635   0.00000  Uiso   1.00
N405   N     0.77566   0.99131   0.09234   0.00000  Uiso   1.00
H406   H     0.75166   0.96603   0.06161   0.00000  Uiso   1.00
H407   H     0.80363   0.97296   0.10550   0.00000  Uiso   1.00
N408   N     0.72434   0.67535   0.24099   0.00000  Uiso   1.00
H409   H     0.74834   0.70064   0.27172   0.00000  Uiso   1.00
H410   H     0.69637   0.69370   0.22783   0.00000  Uiso   1.00
O411   O     0.71176   0.78101   0.30552   0.00000  Uiso   1.00
C412   C     0.67091   0.77114   0.32784   0.00000  Uiso   1.00
H413   H     0.65415   0.80738   0.00681   0.00000  Uiso   1.00
H414   H     0.67587   0.75004   0.03202   0.00000  Uiso   1.00
H415   H     0.64784   0.74510   0.29102   0.00000  Uiso   1.00
O416   O     0.78824   0.88566   0.02781   0.00000  Uiso   1.00
C417   C     0.82909   0.89553   0.00550   0.00000  Uiso   1.00
H418   H     0.82413   0.91662   0.30131   0.00000  Uiso   1.00
H419   H     0.84585   0.85928   0.32653   0.00000  Uiso   1.00
H420   H     0.85216   0.92157   0.04232   0.00000  Uiso   1.00
C421   C     0.24922   0.06724   0.48537   0.00000  Uiso   1.00
C422   C     0.25078   0.26609   0.51463   0.00000  Uiso   1.00
C423   C     0.01164   0.07226   0.45457   0.00000  Uiso   1.00
C424   C     0.48836   0.26107   0.54543   0.00000  Uiso   1.00
C425   C     0.25528   0.01336   0.47852   0.00000  Uiso   1.00
C426   C     0.24472   0.31998   0.52148   0.00000  Uiso   1.00
C427   C     0.16461   0.16537   0.49992   0.00000  Uiso   1.00
C428   C     0.33539   0.16797   0.50008   0.00000  Uiso   1.00
C429   C     0.41128   0.21619   0.51857   0.00000  Uiso   1.00
C430   C     0.08872   0.11715   0.48143   0.00000  Uiso   1.00
C431   C     0.38363   0.16924   0.49981   0.00000  Uiso   1.00
C432   C     0.11636   0.16410   0.50019   0.00000  Uiso   1.00
C433   C     0.40136   0.12291   0.47860   0.00000  Uiso   1.00
C434   C     0.09864   0.21043   0.52140   0.00000  Uiso   1.00
C435   C     0.44759   0.12145   0.47720   0.00000  Uiso   1.00
C436   C     0.05241   0.21188   0.52280   0.00000  Uiso   1.00
C437   C     0.47659   0.16761   0.49971   0.00000  Uiso   1.00
C438   C     0.02341   0.16573   0.50029   0.00000  Uiso   1.00
C439   C     0.45861   0.21559   0.52122   0.00000  Uiso   1.00
C440   C     0.04139   0.11774   0.47878   0.00000  Uiso   1.00
C441   C     0.46484   0.07441   0.45361   0.00000  Uiso   1.00
C442   C     0.03516   0.25892   0.54639   0.00000  Uiso   1.00
Cu443  Cu    0.25500   0.17246   0.56146   0.00000  Uiso   1.00
Cu444  Cu    0.24499   0.16087   0.43854   0.00000  Uiso   1.00
H445   H     0.37845   0.08789   0.46321   0.00000  Uiso   1.00
H446   H     0.12155   0.24544   0.53679   0.00000  Uiso   1.00
N447   N     0.23744   0.15214   0.34617   0.00000  Uiso   1.00
N448   N     0.26255   0.18119   0.65383   0.00000  Uiso   1.00
O449   O     0.25325   0.09538   0.53992   0.00000  Uiso   1.00
O450   O     0.24674   0.23796   0.46008   0.00000  Uiso   1.00
O451   O     0.24480   0.08559   0.43612   0.00000  Uiso   1.00
O452   O     0.25520   0.24774   0.56388   0.00000  Uiso   1.00
O453   O     0.18935   0.17155   0.55191   0.00000  Uiso   1.00
O454   O     0.31064   0.16179   0.44809   0.00000  Uiso   1.00
O455   O     0.18090   0.16176   0.44810   0.00000  Uiso   1.00
O456   O     0.31910   0.17157   0.55190   0.00000  Uiso   1.00
N457   N     0.39111   0.26430   0.53196   0.00000  Uiso   1.00
H458   H     0.36907   0.26739   0.49414   0.00000  Uiso   1.00
H459   H     0.37284   0.26396   0.56878   0.00000  Uiso   1.00
N460   N     0.10888   0.06904   0.46804   0.00000  Uiso   1.00
H461   H     0.13093   0.06594   0.50586   0.00000  Uiso   1.00
H462   H     0.12716   0.06937   0.43122   0.00000  Uiso   1.00
N463   N     0.43433   0.02899   0.42743   0.00000  Uiso   1.00
H464   H     0.43913   0.01656   0.38182   0.00000  Uiso   1.00
H465   H     0.44093   0.33266   0.45078   0.00000  Uiso   1.00
N466   N     0.06567   0.30434   0.57257   0.00000  Uiso   1.00
H467   H     0.06087   0.31677   0.61818   0.00000  Uiso   1.00
H468   H     0.05907   0.00067   0.54922   0.00000  Uiso   1.00
N469   N     0.02868   0.02429   0.42881   0.00000  Uiso   1.00
H470   H     0.01726   0.32833   0.45032   0.00000  Uiso   1.00
H471   H     0.01677   0.01402   0.38260   0.00000  Uiso   1.00
N472   N     0.47132   0.30905   0.57120   0.00000  Uiso   1.00
H473   H     0.48323   0.31931   0.61740   0.00000  Uiso   1.00
H474   H     0.48274   0.00500   0.54968   0.00000  Uiso   1.00
N475   N     0.27566   0.32465   0.42568   0.00000  Uiso   1.00
H476   H     0.25166   0.29936   0.39495   0.00000  Uiso   1.00
H477   H     0.30363   0.30630   0.43883   0.00000  Uiso   1.00
N478   N     0.22434   0.00869   0.57432   0.00000  Uiso   1.00
H479   H     0.24834   0.03397   0.60505   0.00000  Uiso   1.00
H480   H     0.19637   0.02704   0.56117   0.00000  Uiso   1.00
O481   O     0.21176   0.11434   0.63885   0.00000  Uiso   1.00
C482   C     0.17091   0.10447   0.66117   0.00000  Uiso   1.00
H483   H     0.15415   0.14072   0.34014   0.00000  Uiso   1.00
H484   H     0.17587   0.08338   0.36535   0.00000  Uiso   1.00
H485   H     0.14784   0.07843   0.62435   0.00000  Uiso   1.00
O486   O     0.28824   0.21899   0.36115   0.00000  Uiso   1.00
C487   C     0.32909   0.22886   0.33883   0.00000  Uiso   1.00
H488   H     0.32413   0.24996   0.63465   0.00000  Uiso   1.00
H489   H     0.34585   0.19262   0.65986   0.00000  Uiso   1.00
H490   H     0.35216   0.25490   0.37565   0.00000  Uiso   1.00
C491   C     0.74922   0.06724   0.48537   0.00000  Uiso   1.00
C492   C     0.75078   0.26609   0.51463   0.00000  Uiso   1.00
C493   C     0.51164   0.07226   0.45457   0.00000  Uiso   1.00
C494   C     0.98836   0.26107   0.54543   0.00000  Uiso   1.00
C495   C     0.75528   0.01336   0.47852   0.00000  Uiso   1.00
C496   C     0.74472   0.31998   0.52148   0.00000  Uiso   1.00
C497   C     0.66461   0.16537   0.49992   0.00000  Uiso   1.00
C498   C     0.83539   0.16797   0.50008   0.00000  Uiso   1.00
C499   C     0.91128   0.21619   0.51857   0.00000  Uiso   1.00
C500   C     0.58872   0.11715   0.48143   0.00000  Uiso   1.00
C501   C     0.88363   0.16924   0.49981   0.00000  Uiso   1.00
C502   C     0.61636   0.16410   0.50019   0.00000  Uiso   1.00
C503   C     0.90136   0.12291   0.47860   0.00000  Uiso   1.00
C504   C     0.59864   0.21043   0.52140   0.00000  Uiso   1.00
C505   C     0.94759   0.12145   0.47720   0.00000  Uiso   1.00
C506   C     0.55241   0.21188   0.52280   0.00000  Uiso   1.00
C507   C     0.97659   0.16761   0.49971   0.00000  Uiso   1.00
C508   C     0.52341   0.16573   0.50029   0.00000  Uiso   1.00
C509   C     0.95861   0.21559   0.52122   0.00000  Uiso   1.00
C510   C     0.54139   0.11774   0.47878   0.00000  Uiso   1.00
C511   C     0.96484   0.07441   0.45361   0.00000  Uiso   1.00
C512   C     0.53516   0.25892   0.54639   0.00000  Uiso   1.00
Cu513  Cu    0.75500   0.17246   0.56146   0.00000  Uiso   1.00
Cu514  Cu    0.74499   0.16087   0.43854   0.00000  Uiso   1.00
H515   H     0.87845   0.08789   0.46321   0.00000  Uiso   1.00
H516   H     0.62155   0.24544   0.53679   0.00000  Uiso   1.00
N517   N     0.73744   0.15214   0.34617   0.00000  Uiso   1.00
N518   N     0.76255   0.18119   0.65383   0.00000  Uiso   1.00
O519   O     0.75325   0.09538   0.53992   0.00000  Uiso   1.00
O520   O     0.74674   0.23796   0.46008   0.00000  Uiso   1.00
O521   O     0.74480   0.08559   0.43612   0.00000  Uiso   1.00
O522   O     0.75520   0.24774   0.56388   0.00000  Uiso   1.00
O523   O     0.68935   0.17155   0.55191   0.00000  Uiso   1.00
O524   O     0.81064   0.16179   0.44809   0.00000  Uiso   1.00
O525   O     0.68090   0.16176   0.44810   0.00000  Uiso   1.00
O526   O     0.81910   0.17157   0.55190   0.00000  Uiso   1.00
N527   N     0.89111   0.26430   0.53196   0.00000  Uiso   1.00
H528   H     0.86907   0.26739   0.49414   0.00000  Uiso   1.00
H529   H     0.87284   0.26396   0.56878   0.00000  Uiso   1.00
N530   N     0.60888   0.06904   0.46804   0.00000  Uiso   1.00
H531   H     0.63093   0.06594   0.50586   0.00000  Uiso   1.00
H532   H     0.62716   0.06937   0.43122   0.00000  Uiso   1.00
N533   N     0.93433   0.02899   0.42743   0.00000  Uiso   1.00
H534   H     0.93913   0.01656   0.38182   0.00000  Uiso   1.00
H535   H     0.94093   0.33266   0.45078   0.00000  Uiso   1.00
N536   N     0.56567   0.30434   0.57257   0.00000  Uiso   1.00
H537   H     0.56087   0.31677   0.61818   0.00000  Uiso   1.00
H538   H     0.55907   0.00067   0.54922   0.00000  Uiso   1.00
N539   N     0.52868   0.02429   0.42881   0.00000  Uiso   1.00
H540   H     0.51726   0.32833   0.45032   0.00000  Uiso   1.00
H541   H     0.51677   0.01402   0.38260   0.00000  Uiso   1.00
N542   N     0.97132   0.30905   0.57120   0.00000  Uiso   1.00
H543   H     0.98323   0.31931   0.61740   0.00000  Uiso   1.00
H544   H     0.98274   0.00500   0.54968   0.00000  Uiso   1.00
N545   N     0.77566   0.32465   0.42568   0.00000  Uiso   1.00
H546   H     0.75166   0.29936   0.39495   0.00000  Uiso   1.00
H547   H     0.80363   0.30630   0.43883   0.00000  Uiso   1.00
N548   N     0.72434   0.00869   0.57432   0.00000  Uiso   1.00
H549   H     0.74834   0.03397   0.60505   0.00000  Uiso   1.00
H550   H     0.69637   0.02704   0.56117   0.00000  Uiso   1.00
O551   O     0.71176   0.11434   0.63885   0.00000  Uiso   1.00
C552   C     0.67091   0.10447   0.66117   0.00000  Uiso   1.00
H553   H     0.65415   0.14072   0.34014   0.00000  Uiso   1.00
H554   H     0.67587   0.08338   0.36535   0.00000  Uiso   1.00
H555   H     0.64784   0.07843   0.62435   0.00000  Uiso   1.00
O556   O     0.78824   0.21899   0.36115   0.00000  Uiso   1.00
C557   C     0.82909   0.22886   0.33883   0.00000  Uiso   1.00
H558   H     0.82413   0.24996   0.63465   0.00000  Uiso   1.00
H559   H     0.84585   0.19262   0.65986   0.00000  Uiso   1.00
H560   H     0.85216   0.25490   0.37565   0.00000  Uiso   1.00
C561   C     0.24922   0.40057   0.48537   0.00000  Uiso   1.00
C562   C     0.25078   0.59943   0.51463   0.00000  Uiso   1.00
C563   C     0.01164   0.40559   0.45457   0.00000  Uiso   1.00
C564   C     0.48836   0.59441   0.54543   0.00000  Uiso   1.00
C565   C     0.25528   0.34669   0.47852   0.00000  Uiso   1.00
C566   C     0.24472   0.65331   0.52148   0.00000  Uiso   1.00
C567   C     0.16461   0.49870   0.49992   0.00000  Uiso   1.00
C568   C     0.33539   0.50130   0.50008   0.00000  Uiso   1.00
C569   C     0.41128   0.54952   0.51857   0.00000  Uiso   1.00
C570   C     0.08872   0.45048   0.48143   0.00000  Uiso   1.00
C571   C     0.38363   0.50257   0.49981   0.00000  Uiso   1.00
C572   C     0.11636   0.49743   0.50019   0.00000  Uiso   1.00
C573   C     0.40136   0.45624   0.47860   0.00000  Uiso   1.00
C574   C     0.09864   0.54376   0.52140   0.00000  Uiso   1.00
C575   C     0.44759   0.45478   0.47720   0.00000  Uiso   1.00
C576   C     0.05241   0.54522   0.52280   0.00000  Uiso   1.00
C577   C     0.47659   0.50094   0.49971   0.00000  Uiso   1.00
C578   C     0.02341   0.49906   0.50029   0.00000  Uiso   1.00
C579   C     0.45861   0.54893   0.52122   0.00000  Uiso   1.00
C580   C     0.04139   0.45107   0.47878   0.00000  Uiso   1.00
C581   C     0.46484   0.40774   0.45361   0.00000  Uiso   1.00
C582   C     0.03516   0.59226   0.54639   0.00000  Uiso   1.00
Cu583  Cu    0.25500   0.50579   0.56146   0.00000  Uiso   1.00
Cu584  Cu    0.24499   0.49421   0.43854   0.00000  Uiso   1.00
H585   H     0.37845   0.42122   0.46321   0.00000  Uiso   1.00
H586   H     0.12155   0.57878   0.53679   0.00000  Uiso   1.00
N587   N     0.23744   0.48547   0.34617   0.00000  Uiso   1.00
N588   N     0.26255   0.51453   0.65383   0.00000  Uiso   1.00
O589   O     0.25325   0.42871   0.53992   0.00000  Uiso   1.00
O590   O     0.24674   0.57129   0.46008   0.00000  Uiso   1.00
O591   O     0.24480   0.41892   0.43612   0.00000  Uiso   1.00
O592   O     0.25520   0.58108   0.56388   0.00000  Uiso   1.00
O593   O     0.18935   0.50488   0.55191   0.00000  Uiso   1.00
O594   O     0.31064   0.49512   0.44809   0.00000  Uiso   1.00
O595   O     0.18090   0.49510   0.44810   0.00000  Uiso   1.00
O596   O     0.31910   0.50490   0.55190   0.00000  Uiso   1.00
N597   N     0.39111   0.59763   0.53196   0.00000  Uiso   1.00
H598   H     0.36907   0.60072   0.49414   0.00000  Uiso   1.00
H599   H     0.37284   0.59730   0.56878   0.00000  Uiso   1.00
N600   N     0.10888   0.40237   0.46804   0.00000  Uiso   1.00
H601   H     0.13093   0.39928   0.50586   0.00000  Uiso   1.00
H602   H     0.12716   0.40270   0.43122   0.00000  Uiso   1.00
N603   N     0.43433   0.36232   0.42743   0.00000  Uiso   1.00
H604   H     0.43913   0.34989   0.38182   0.00000  Uiso   1.00
H605   H     0.44093   0.66599   0.45078   0.00000  Uiso   1.00
N606   N     0.06567   0.63768   0.57257   0.00000  Uiso   1.00
H607   H     0.06087   0.65011   0.61818   0.00000  Uiso   1.00
H608   H     0.05907   0.33401   0.54922   0.00000  Uiso   1.00
N609   N     0.02868   0.35762   0.42881   0.00000  Uiso   1.00
H610   H     0.01726   0.66166   0.45032   0.00000  Uiso   1.00
H611   H     0.01677   0.34736   0.38260   0.00000  Uiso   1.00
N612   N     0.47132   0.64238   0.57120   0.00000  Uiso   1.00
H613   H     0.48323   0.65264   0.61740   0.00000  Uiso   1.00
H614   H     0.48274   0.33834   0.54968   0.00000  Uiso   1.00
N615   N     0.27566   0.65798   0.42568   0.00000  Uiso   1.00
H616   H     0.25166   0.63269   0.39495   0.00000  Uiso   1.00
H617   H     0.30363   0.63963   0.43883   0.00000  Uiso   1.00
N618   N     0.22434   0.34202   0.57432   0.00000  Uiso   1.00
H619   H     0.24834   0.36731   0.60505   0.00000  Uiso   1.00
H620   H     0.19637   0.36037   0.56117   0.00000  Uiso   1.00
O621   O     0.21176   0.44767   0.63885   0.00000  Uiso   1.00
C622   C     0.17091   0.43780   0.66117   0.00000  Uiso   1.00
H623   H     0.15415   0.47405   0.34014   0.00000  Uiso   1.00
H624   H     0.17587   0.41671   0.36535   0.00000  Uiso   1.00
H625   H     0.14784   0.41177   0.62435   0.00000  Uiso   1.00
O626   O     0.28824   0.55233   0.36115   0.00000  Uiso   1.00
C627   C     0.32909   0.56220   0.33883   0.00000  Uiso   1.00
H628   H     0.32413   0.58329   0.63465   0.00000  Uiso   1.00
H629   H     0.34585   0.52595   0.65986   0.00000  Uiso   1.00
H630   H     0.35216   0.58823   0.37565   0.00000  Uiso   1.00
C631   C     0.74922   0.40057   0.48537   0.00000  Uiso   1.00
C632   C     0.75078   0.59943   0.51463   0.00000  Uiso   1.00
C633   C     0.51164   0.40559   0.45457   0.00000  Uiso   1.00
C634   C     0.98836   0.59441   0.54543   0.00000  Uiso   1.00
C635   C     0.75528   0.34669   0.47852   0.00000  Uiso   1.00
C636   C     0.74472   0.65331   0.52148   0.00000  Uiso   1.00
C637   C     0.66461   0.49870   0.49992   0.00000  Uiso   1.00
C638   C     0.83539   0.50130   0.50008   0.00000  Uiso   1.00
C639   C     0.91128   0.54952   0.51857   0.00000  Uiso   1.00
C640   C     0.58872   0.45048   0.48143   0.00000  Uiso   1.00
C641   C     0.88363   0.50257   0.49981   0.00000  Uiso   1.00
C642   C     0.61636   0.49743   0.50019   0.00000  Uiso   1.00
C643   C     0.90136   0.45624   0.47860   0.00000  Uiso   1.00
C644   C     0.59864   0.54376   0.52140   0.00000  Uiso   1.00
C645   C     0.94759   0.45478   0.47720   0.00000  Uiso   1.00
C646   C     0.55241   0.54522   0.52280   0.00000  Uiso   1.00
C647   C     0.97659   0.50094   0.49971   0.00000  Uiso   1.00
C648   C     0.52341   0.49906   0.50029   0.00000  Uiso   1.00
C649   C     0.95861   0.54893   0.52122   0.00000  Uiso   1.00
C650   C     0.54139   0.45107   0.47878   0.00000  Uiso   1.00
C651   C     0.96484   0.40774   0.45361   0.00000  Uiso   1.00
C652   C     0.53516   0.59226   0.54639   0.00000  Uiso   1.00
Cu653  Cu    0.75500   0.50579   0.56146   0.00000  Uiso   1.00
Cu654  Cu    0.74499   0.49421   0.43854   0.00000  Uiso   1.00
H655   H     0.87845   0.42122   0.46321   0.00000  Uiso   1.00
H656   H     0.62155   0.57878   0.53679   0.00000  Uiso   1.00
N657   N     0.73744   0.48547   0.34617   0.00000  Uiso   1.00
N658   N     0.76255   0.51453   0.65383   0.00000  Uiso   1.00
O659   O     0.75325   0.42871   0.53992   0.00000  Uiso   1.00
O660   O     0.74674   0.57129   0.46008   0.00000  Uiso   1.00
O661   O     0.74480   0.41892   0.43612   0.00000  Uiso   1.00
O662   O     0.75520   0.58108   0.56388   0.00000  Uiso   1.00
O663   O     0.68935   0.50488   0.55191   0.00000  Uiso   1.00
O664   O     0.81064   0.49512   0.44809   0.00000  Uiso   1.00
O665   O     0.68090   0.49510   0.44810   0.00000  Uiso   1.00
O666   O     0.81910   0.50490   0.55190   0.00000  Uiso   1.00
N667   N     0.89111   0.59763   0.53196   0.00000  Uiso   1.00
H668   H     0.86907   0.60072   0.49414   0.00000  Uiso   1.00
H669   H     0.87284   0.59730   0.56878   0.00000  Uiso   1.00
N670   N     0.60888   0.40237   0.46804   0.00000  Uiso   1.00
H671   H     0.63093   0.39928   0.50586   0.00000  Uiso   1.00
H672   H     0.62716   0.40270   0.43122   0.00000  Uiso   1.00
N673   N     0.93433   0.36232   0.42743   0.00000  Uiso   1.00
H674   H     0.93913   0.34989   0.38182   0.00000  Uiso   1.00
H675   H     0.94093   0.66599   0.45078   0.00000  Uiso   1.00
N676   N     0.56567   0.63768   0.57257   0.00000  Uiso   1.00
H677   H     0.56087   0.65011   0.61818   0.00000  Uiso   1.00
H678   H     0.55907   0.33401   0.54922   0.00000  Uiso   1.00
N679   N     0.52868   0.35762   0.42881   0.00000  Uiso   1.00
H680   H     0.51726   0.66166   0.45032   0.00000  Uiso   1.00
H681   H     0.51677   0.34736   0.38260   0.00000  Uiso   1.00
N682   N     0.97132   0.64238   0.57120   0.00000  Uiso   1.00
H683   H     0.98323   0.65264   0.61740   0.00000  Uiso   1.00
H684   H     0.98274   0.33834   0.54968   0.00000  Uiso   1.00
N685   N     0.77566   0.65798   0.42568   0.00000  Uiso   1.00
H686   H     0.75166   0.63269   0.39495   0.00000  Uiso   1.00
H687   H     0.80363   0.63963   0.43883   0.00000  Uiso   1.00
N688   N     0.72434   0.34202   0.57432   0.00000  Uiso   1.00
H689   H     0.74834   0.36731   0.60505   0.00000  Uiso   1.00
H690   H     0.69637   0.36037   0.56117   0.00000  Uiso   1.00
O691   O     0.71176   0.44767   0.63885   0.00000  Uiso   1.00
C692   C     0.67091   0.43780   0.66117   0.00000  Uiso   1.00
H693   H     0.65415   0.47405   0.34014   0.00000  Uiso   1.00
H694   H     0.67587   0.41671   0.36535   0.00000  Uiso   1.00
H695   H     0.64784   0.41177   0.62435   0.00000  Uiso   1.00
O696   O     0.78824   0.55233   0.36115   0.00000  Uiso   1.00
C697   C     0.82909   0.56220   0.33883   0.00000  Uiso   1.00
H698   H     0.82413   0.58329   0.63465   0.00000  Uiso   1.00
H699   H     0.84585   0.52595   0.65986   0.00000  Uiso   1.00
H700   H     0.85216   0.58823   0.37565   0.00000  Uiso   1.00
C701   C     0.24922   0.73391   0.48537   0.00000  Uiso   1.00
C702   C     0.25078   0.93276   0.51463   0.00000  Uiso   1.00
C703   C     0.01164   0.73893   0.45457   0.00000  Uiso   1.00
C704   C     0.48836   0.92774   0.54543   0.00000  Uiso   1.00
C705   C     0.25528   0.68002   0.47852   0.00000  Uiso   1.00
C706   C     0.24472   0.98664   0.52148   0.00000  Uiso   1.00
C707   C     0.16461   0.83203   0.49992   0.00000  Uiso   1.00
C708   C     0.33539   0.83463   0.50008   0.00000  Uiso   1.00
C709   C     0.41128   0.88285   0.51857   0.00000  Uiso   1.00
C710   C     0.08872   0.78381   0.48143   0.00000  Uiso   1.00
C711   C     0.38363   0.83590   0.49981   0.00000  Uiso   1.00
C712   C     0.11636   0.83076   0.50019   0.00000  Uiso   1.00
C713   C     0.40136   0.78957   0.47860   0.00000  Uiso   1.00
C714   C     0.09864   0.87709   0.52140   0.00000  Uiso   1.00
C715   C     0.44759   0.78812   0.47720   0.00000  Uiso   1.00
C716   C     0.05241   0.87855   0.52280   0.00000  Uiso   1.00
C717   C     0.47659   0.83427   0.49971   0.00000  Uiso   1.00
C718   C     0.02341   0.83239   0.50029   0.00000  Uiso   1.00
C719   C     0.45861   0.88226   0.52122   0.00000  Uiso   1.00
C720   C     0.04139   0.78441   0.47878   0.00000  Uiso   1.00
C721   C     0.46484   0.74108   0.45361   0.00000  Uiso   1.00
C722   C     0.03516   0.92559   0.54639   0.00000  Uiso   1.00
Cu723  Cu    0.25500   0.83913   0.56146   0.00000  Uiso   1.00
Cu724  Cu    0.24499   0.82754   0.43854   0.00000  Uiso   1.00
H725   H     0.37845   0.75456   0.46321   0.00000  Uiso   1.00
H726   H     0.12155   0.91211   0.53679   0.00000  Uiso   1.00
N727   N     0.23744   0.81881   0.34617   0.00000  Uiso   1.00
N728   N     0.26255   0.84786   0.65383   0.00000  Uiso   1.00
O729   O     0.25325   0.76204   0.53992   0.00000  Uiso   1.00
O730   O     0.24674   0.90462   0.46008   0.00000  Uiso   1.00
O731   O     0.24480   0.75226   0.43612   0.00000  Uiso   1.00
O732   O     0.25520   0.91441   0.56388   0.00000  Uiso   1.00
O733   O     0.18935   0.83821   0.55191   0.00000  Uiso   1.00
O734   O     0.31064   0.82845   0.44809   0.00000  Uiso   1.00
O735   O     0.18090   0.82843   0.44810   0.00000  Uiso   1.00
O736   O     0.31910   0.83824   0.55190   0.00000  Uiso   1.00
N737   N     0.39111   0.93096   0.53196   0.00000  Uiso   1.00
H738   H     0.36907   0.93406   0.49414   0.00000  Uiso   1.00
H739   H     0.37284   0.93063   0.56878   0.00000  Uiso   1.00
N740   N     0.10888   0.73570   0.46804   0.00000  Uiso   1.00
H741   H     0.13093   0.73261   0.50586   0.00000  Uiso   1.00
H742   H     0.12716   0.73604   0.43122   0.00000  Uiso   1.00
N743   N     0.43433   0.69566   0.42743   0.00000  Uiso   1.00
H744   H     0.43913   0.68323   0.38182   0.00000  Uiso   1.00
H745   H     0.44093   0.99933   0.45078   0.00000  Uiso   1.00
N746   N     0.06567   0.97101   0.57257   0.00000  Uiso   1.00
H747   H     0.06087   0.98344   0.61818   0.00000  Uiso   1.00
H748   H     0.05907   0.66734   0.54922   0.00000  Uiso   1.00
N749   N     0.02868   0.69095   0.42881   0.00000  Uiso   1.00
H750   H     0.01726   0.99500   0.45032   0.00000  Uiso   1.00
H751   H     0.01677   0.68069   0.38260   0.00000  Uiso   1.00
N752   N     0.47132   0.97571   0.57120   0.00000  Uiso   1.00
H753   H     0.48323   0.98598   0.61740   0.00000  Uiso   1.00
H754   H     0.48274   0.67167   0.54968   0.00000  Uiso   1.00
N755   N     0.27566   0.99131   0.42568   0.00000  Uiso   1.00
H756   H     0.25166   0.96603   0.39495   0.00000  Uiso   1.00
H757   H     0.30363   0.97296   0.43883   0.00000  Uiso   1.00
N758   N     0.22434   0.67535   0.57432   0.00000  Uiso   1.00
H759   H     0.24834   0.70064   0.60505   0.00000  Uiso   1.00
H760   H     0.19637   0.69370   0.56117   0.00000  Uiso   1.00
O761   O     0.21176   0.78101   0.63885   0.00000  Uiso   1.00
C762   C     0.17091   0.77114   0.66117   0.00000  Uiso   1.00
H763   H     0.15415   0.80738   0.34014   0.00000  Uiso   1.00
H764   H     0.17587   0.75004   0.36535   0.00000  Uiso   1.00
H765   H     0.14784   0.74510   0.62435   0.00000  Uiso   1.00
O766   O     0.28824   0.88566   0.36115   0.00000  Uiso   1.00
C767   C     0.32909   0.89553   0.33883   0.00000  Uiso   1.00
H768   H     0.32413   0.91662   0.63465   0.00000  Uiso   1.00
H769   H     0.34585   0.85928   0.65986   0.00000  Uiso   1.00
H770   H     0.35216   0.92157   0.37565   0.00000  Uiso   1.00
C771   C     0.74922   0.73391   0.48537   0.00000  Uiso   1.00
C772   C     0.75078   0.93276   0.51463   0.00000  Uiso   1.00
C773   C     0.51164   0.73893   0.45457   0.00000  Uiso   1.00
C774   C     0.98836   0.92774   0.54543   0.00000  Uiso   1.00
C775   C     0.75528   0.68002   0.47852   0.00000  Uiso   1.00
C776   C     0.74472   0.98664   0.52148   0.00000  Uiso   1.00
C777   C     0.66461   0.83203   0.49992   0.00000  Uiso   1.00
C778   C     0.83539   0.83463   0.50008   0.00000  Uiso   1.00
C779   C     0.91128   0.88285   0.51857   0.00000  Uiso   1.00
C780   C     0.58872   0.78381   0.48143   0.00000  Uiso   1.00
C781   C     0.88363   0.83590   0.49981   0.00000  Uiso   1.00
C782   C     0.61636   0.83076   0.50019   0.00000  Uiso   1.00
C783   C     0.90136   0.78957   0.47860   0.00000  Uiso   1.00
C784   C     0.59864   0.87709   0.52140   0.00000  Uiso   1.00
C785   C     0.94759   0.78812   0.47720   0.00000  Uiso   1.00
C786   C     0.55241   0.87855   0.52280   0.00000  Uiso   1.00
C787   C     0.97659   0.83427   0.49971   0.00000  Uiso   1.00
C788   C     0.52341   0.83239   0.50029   0.00000  Uiso   1.00
C789   C     0.95861   0.88226   0.52122   0.00000  Uiso   1.00
C790   C     0.54139   0.78441   0.47878   0.00000  Uiso   1.00
C791   C     0.96484   0.74108   0.45361   0.00000  Uiso   1.00
C792   C     0.53516   0.92559   0.54639   0.00000  Uiso   1.00
Cu793  Cu    0.75500   0.83913   0.56146   0.00000  Uiso   1.00
Cu794  Cu    0.74499   0.82754   0.43854   0.00000  Uiso   1.00
H795   H     0.87845   0.75456   0.46321   0.00000  Uiso   1.00
H796   H     0.62155   0.91211   0.53679   0.00000  Uiso   1.00
N797   N     0.73744   0.81881   0.34617   0.00000  Uiso   1.00
N798   N     0.76255   0.84786   0.65383   0.00000  Uiso   1.00
O799   O     0.75325   0.76204   0.53992   0.00000  Uiso   1.00
O800   O     0.74674   0.90462   0.46008   0.00000  Uiso   1.00
O801   O     0.74480   0.75226   0.43612   0.00000  Uiso   1.00
O802   O     0.75520   0.91441   0.56388   0.00000  Uiso   1.00
O803   O     0.68935   0.83821   0.55191   0.00000  Uiso   1.00
O804   O     0.81064   0.82845   0.44809   0.00000  Uiso   1.00
O805   O     0.68090   0.82843   0.44810   0.00000  Uiso   1.00
O806   O     0.81910   0.83824   0.55190   0.00000  Uiso   1.00
N807   N     0.89111   0.93096   0.53196   0.00000  Uiso   1.00
H808   H     0.86907   0.93406   0.49414   0.00000  Uiso   1.00
H809   H     0.87284   0.93063   0.56878   0.00000  Uiso   1.00
N810   N     0.60888   0.73570   0.46804   0.00000  Uiso   1.00
H811   H     0.63093   0.73261   0.50586   0.00000  Uiso   1.00
H812   H     0.62716   0.73604   0.43122   0.00000  Uiso   1.00
N813   N     0.93433   0.69566   0.42743   0.00000  Uiso   1.00
H814   H     0.93913   0.68323   0.38182   0.00000  Uiso   1.00
H815   H     0.94093   0.99933   0.45078   0.00000  Uiso   1.00
N816   N     0.56567   0.97101   0.57257   0.00000  Uiso   1.00
H817   H     0.56087   0.98344   0.61818   0.00000  Uiso   1.00
H818   H     0.55907   0.66734   0.54922   0.00000  Uiso   1.00
N819   N     0.52868   0.69095   0.42881   0.00000  Uiso   1.00
H820   H     0.51726   0.99500   0.45032   0.00000  Uiso   1.00
H821   H     0.51677   0.68069   0.38260   0.00000  Uiso   1.00
N822   N     0.97132   0.97571   0.57120   0.00000  Uiso   1.00
H823   H     0.98323   0.98598   0.61740   0.00000  Uiso   1.00
H824   H     0.98274   0.67167   0.54968   0.00000  Uiso   1.00
N825   N     0.77566   0.99131   0.42568   0.00000  Uiso   1.00
H826   H     0.75166   0.96603   0.39495   0.00000  Uiso   1.00
H827   H     0.80363   0.97296   0.43883   0.00000  Uiso   1.00
N828   N     0.72434   0.67535   0.57432   0.00000  Uiso   1.00
H829   H     0.74834   0.70064   0.60505   0.00000  Uiso   1.00
H830   H     0.69637   0.69370   0.56117   0.00000  Uiso   1.00
O831   O     0.71176   0.78101   0.63885   0.00000  Uiso   1.00
C832   C     0.67091   0.77114   0.66117   0.00000  Uiso   1.00
H833   H     0.65415   0.80738   0.34014   0.00000  Uiso   1.00
H834   H     0.67587   0.75004   0.36535   0.00000  Uiso   1.00
H835   H     0.64784   0.74510   0.62435   0.00000  Uiso   1.00
O836   O     0.78824   0.88566   0.36115   0.00000  Uiso   1.00
C837   C     0.82909   0.89553   0.33883   0.00000  Uiso   1.00
H838   H     0.82413   0.91662   0.63465   0.00000  Uiso   1.00
H839   H     0.84585   0.85928   0.65986   0.00000  Uiso   1.00
H840   H     0.85216   0.92157   0.37565   0.00000  Uiso   1.00
C841   C     0.24922   0.06724   0.81870   0.00000  Uiso   1.00
C842   C     0.25078   0.26609   0.84797   0.00000  Uiso   1.00
C843   C     0.01164   0.07226   0.78791   0.00000  Uiso   1.00
C844   C     0.48836   0.26107   0.87876   0.00000  Uiso   1.00
C845   C     0.25528   0.01336   0.81186   0.00000  Uiso   1.00
C846   C     0.24472   0.31998   0.85481   0.00000  Uiso   1.00
C847   C     0.16461   0.16537   0.83325   0.00000  Uiso   1.00
C848   C     0.33539   0.16797   0.83342   0.00000  Uiso   1.00
C849   C     0.41128   0.21619   0.85190   0.00000  Uiso   1.00
C850   C     0.08872   0.11715   0.81476   0.00000  Uiso   1.00
C851   C     0.38363   0.16924   0.83314   0.00000  Uiso   1.00
C852   C     0.11636   0.16410   0.83353   0.00000  Uiso   1.00
C853   C     0.40136   0.12291   0.81193   0.00000  Uiso   1.00
C854   C     0.09864   0.21043   0.85473   0.00000  Uiso   1.00
C855   C     0.44759   0.12145   0.81053   0.00000  Uiso   1.00
C856   C     0.05241   0.21188   0.85613   0.00000  Uiso   1.00
C857   C     0.47659   0.16761   0.83304   0.00000  Uiso   1.00
C858   C     0.02341   0.16573   0.83362   0.00000  Uiso   1.00
C859   C     0.45861   0.21559   0.85455   0.00000  Uiso   1.00
C860   C     0.04139   0.11774   0.81211   0.00000  Uiso   1.00
C861   C     0.46484   0.07441   0.78695   0.00000  Uiso   1.00
C862   C     0.03516   0.25892   0.87972   0.00000  Uiso   1.00
Cu863  Cu    0.25500   0.17246   0.89479   0.00000  Uiso   1.00
Cu864  Cu    0.24499   0.16087   0.77187   0.00000  Uiso   1.00
H865   H     0.37845   0.08789   0.79654   0.00000  Uiso   1.00
H866   H     0.12155   0.24544   0.87013   0.00000  Uiso   1.00
N867   N     0.23744   0.15214   0.67951   0.00000  Uiso   1.00
N868   N     0.26255   0.18119   0.98716   0.00000  Uiso   1.00
O869   O     0.25325   0.09538   0.87326   0.00000  Uiso   1.00
O870   O     0.24674   0.23796   0.79341   0.00000  Uiso   1.00
O871   O     0.24480   0.08559   0.76945   0.00000  Uiso   1.00
O872   O     0.25520   0.24774   0.89721   0.00000  Uiso   1.00
O873   O     0.18935   0.17155   0.88524   0.00000  Uiso   1.00
O874   O     0.31064   0.16179   0.78143   0.00000  Uiso   1.00
O875   O     0.18090   0.16176   0.78143   0.00000  Uiso   1.00
O876   O     0.31910   0.17157   0.88523   0.00000  Uiso   1.00
N877   N     0.39111   0.26430   0.86530   0.00000  Uiso   1.00
H878   H     0.36907   0.26739   0.82747   0.00000  Uiso   1.00
H879   H     0.37284   0.26396   0.90211   0.00000  Uiso   1.00
N880   N     0.10888   0.06904   0.80137   0.00000  Uiso   1.00
H881   H     0.13093   0.06594   0.83920   0.00000  Uiso   1.00
H882   H     0.12716   0.06937   0.76456   0.00000  Uiso   1.00
N883   N     0.43433   0.02899   0.76077   0.00000  Uiso   1.00
H884   H     0.43913   0.01656   0.71515   0.00000  Uiso   1.00
H885   H     0.44093   0.33266   0.78412   0.00000  Uiso   1.00
N886   N     0.06567   0.30434   0.90590   0.00000  Uiso   1.00
H887   H     0.06087   0.31677   0.95151   0.00000  Uiso   1.00
H888   H     0.05907   0.00067   0.88255   0.00000  Uiso   1.00
N889   N     0.02868   0.02429   0.76214   0.00000  Uiso   1.00
H890   H     0.01726   0.32833   0.78365   0.00000  Uiso   1.00
H891   H     0.01677   0.01402   0.71593   0.00000  Uiso   1.00
N892   N     0.47132   0.30905   0.90453   0.00000  Uiso   1.00
H893   H     0.48323   0.31931   0.95073   0.00000  Uiso   1.00
H894   H     0.48274   0.00500   0.88302   0.00000  Uiso   1.00
N895   N     0.27566   0.32465   0.75901   0.00000  Uiso   1.00
H896   H     0.25166   0.29936   0.72828   0.00000  Uiso   1.00
H897   H     0.30363   0.30630   0.77217   0.00000  Uiso   1.00
N898   N     0.22434   0.00869   0.90766   0.00000  Uiso   1.00
H899   H     0.24834   0.03397   0.93839   0.00000  Uiso   1.00
H900   H     0.19637   0.02704   0.89450   0.00000  Uiso   1.00
O901   O     0.21176   0.11434   0.97219   0.00000  Uiso   1.00
C902   C     0.17091   0.10447   0.99450   0.00000  Uiso   1.00
H903   H     0.15415   0.14072   0.67347   0.00000  Uiso   1.00
H904   H     0.17587   0.08338   0.69869   0.00000  Uiso   1.00
H905   H     0.14784   0.07843   0.95768   0.00000  Uiso   1.00
O906   O     0.28824   0.21899   0.69448   0.00000  Uiso   1.00
C907   C     0.32909   0.22886   0.67216   0.00000  Uiso   1.00
H908   H     0.32413   0.24996   0.96798   0.00000  Uiso   1.00
H909   H     0.34585   0.19262   0.99319   0.00000  Uiso   1.00
H910   H     0.35216   0.25490   0.70898   0.00000  Uiso   1.00
C911   C     0.74922   0.06724   0.81870   0.00000  Uiso   1.00
C912   C     0.75078   0.26609   0.84797   0.00000  Uiso   1.00
C913   C     0.51164   0.07226   0.78791   0.00000  Uiso   1.00
C914   C     0.98836   0.26107   0.87876   0.00000  Uiso   1.00
C915   C     0.75528   0.01336   0.81186   0.00000  Uiso   1.00
C916   C     0.74472   0.31998   0.85481   0.00000  Uiso   1.00
C917   C     0.66461   0.16537   0.83325   0.00000  Uiso   1.00
C918   C     0.83539   0.16797   0.83342   0.00000  Uiso   1.00
C919   C     0.91128   0.21619   0.85190   0.00000  Uiso   1.00
C920   C     0.58872   0.11715   0.81476   0.00000  Uiso   1.00
C921   C     0.88363   0.16924   0.83314   0.00000  Uiso   1.00
C922   C     0.61636   0.16410   0.83353   0.00000  Uiso   1.00
C923   C     0.90136   0.12291   0.81193   0.00000  Uiso   1.00
C924   C     0.59864   0.21043   0.85473   0.00000  Uiso   1.00
C925   C     0.94759   0.12145   0.81053   0.00000  Uiso   1.00
C926   C     0.55241   0.21188   0.85613   0.00000  Uiso   1.00
C927   C     0.97659   0.16761   0.83304   0.00000  Uiso   1.00
C928   C     0.52341   0.16573   0.83362   0.00000  Uiso   1.00
C929   C     0.95861   0.21559   0.85455   0.00000  Uiso   1.00
C930   C     0.54139   0.11774   0.81211   0.00000  Uiso   1.00
C931   C     0.96484   0.07441   0.78695   0.00000  Uiso   1.00
C932   C     0.53516   0.25892   0.87972   0.00000  Uiso   1.00
Cu933  Cu    0.75500   0.17246   0.89479   0.00000  Uiso   1.00
Cu934  Cu    0.74499   0.16087   0.77187   0.00000  Uiso   1.00
H935   H     0.87845   0.08789   0.79654   0.00000  Uiso   1.00
H936   H     0.62155   0.24544   0.87013   0.00000  Uiso   1.00
N937   N     0.73744   0.15214   0.67951   0.00000  Uiso   1.00
N938   N     0.76255   0.18119   0.98716   0.00000  Uiso   1.00
O939   O     0.75325   0.09538   0.87326   0.00000  Uiso   1.00
O940   O     0.74674   0.23796   0.79341   0.00000  Uiso   1.00
O941   O     0.74480   0.08559   0.76945   0.00000  Uiso   1.00
O942   O     0.75520   0.24774   0.89721   0.00000  Uiso   1.00
O943   O     0.68935   0.17155   0.88524   0.00000  Uiso   1.00
O944   O     0.81064   0.16179   0.78143   0.00000  Uiso   1.00
O945   O     0.68090   0.16176   0.78143   0.00000  Uiso   1.00
O946   O     0.81910   0.17157   0.88523   0.00000  Uiso   1.00
N947   N     0.89111   0.26430   0.86530   0.00000  Uiso   1.00
H948   H     0.86907   0.26739   0.82747   0.00000  Uiso   1.00
H949   H     0.87284   0.26396   0.90211   0.00000  Uiso   1.00
N950   N     0.60888   0.06904   0.80137   0.00000  Uiso   1.00
H951   H     0.63093   0.06594   0.83920   0.00000  Uiso   1.00
H952   H     0.62716   0.06937   0.76456   0.00000  Uiso   1.00
N953   N     0.93433   0.02899   0.76077   0.00000  Uiso   1.00
H954   H     0.93913   0.01656   0.71515   0.00000  Uiso   1.00
H955   H     0.94093   0.33266   0.78412   0.00000  Uiso   1.00
N956   N     0.56567   0.30434   0.90590   0.00000  Uiso   1.00
H957   H     0.56087   0.31677   0.95151   0.00000  Uiso   1.00
H958   H     0.55907   0.00067   0.88255   0.00000  Uiso   1.00
N959   N     0.52868   0.02429   0.76214   0.00000  Uiso   1.00
H960   H     0.51726   0.32833   0.78365   0.00000  Uiso   1.00
H961   H     0.51677   0.01402   0.71593   0.00000  Uiso   1.00
N962   N     0.97132   0.30905   0.90453   0.00000  Uiso   1.00
H963   H     0.98323   0.31931   0.95073   0.00000  Uiso   1.00
H964   H     0.98274   0.00500   0.88302   0.00000  Uiso   1.00
N965   N     0.77566   0.32465   0.75901   0.00000  Uiso   1.00
H966   H     0.75166   0.29936   0.72828   0.00000  Uiso   1.00
H967   H     0.80363   0.30630   0.77217   0.00000  Uiso   1.00
N968   N     0.72434   0.00869   0.90766   0.00000  Uiso   1.00
H969   H     0.74834   0.03397   0.93839   0.00000  Uiso   1.00
H970   H     0.69637   0.02704   0.89450   0.00000  Uiso   1.00
O971   O     0.71176   0.11434   0.97219   0.00000  Uiso   1.00
C972   C     0.67091   0.10447   0.99450   0.00000  Uiso   1.00
H973   H     0.65415   0.14072   0.67347   0.00000  Uiso   1.00
H974   H     0.67587   0.08338   0.69869   0.00000  Uiso   1.00
H975   H     0.64784   0.07843   0.95768   0.00000  Uiso   1.00
O976   O     0.78824   0.21899   0.69448   0.00000  Uiso   1.00
C977   C     0.82909   0.22886   0.67216   0.00000  Uiso   1.00
H978   H     0.82413   0.24996   0.96798   0.00000  Uiso   1.00
H979   H     0.84585   0.19262   0.99319   0.00000  Uiso   1.00
H980   H     0.85216   0.25490   0.70898   0.00000  Uiso   1.00
C981   C     0.24922   0.40057   0.81870   0.00000  Uiso   1.00
C982   C     0.25078   0.59943   0.84797   0.00000  Uiso   1.00
C983   C     0.01164   0.40559   0.78791   0.00000  Uiso   1.00
C984   C     0.48836   0.59441   0.87876   0.00000  Uiso   1.00
C985   C     0.25528   0.34669   0.81186   0.00000  Uiso   1.00
C986   C     0.24472   0.65331   0.85481   0.00000  Uiso   1.00
C987   C     0.16461   0.49870   0.83325   0.00000  Uiso   1.00
C988   C     0.33539   0.50130   0.83342   0.00000  Uiso   1.00
C989   C     0.41128   0.54952   0.85190   0.00000  Uiso   1.00
C990   C     0.08872   0.45048   0.81476   0.00000  Uiso   1.00
C991   C     0.38363   0.50257   0.83314   0.00000  Uiso   1.00
C992   C     0.11636   0.49743   0.83353   0.00000  Uiso   1.00
C993   C     0.40136   0.45624   0.81193   0.00000  Uiso   1.00
C994   C     0.09864   0.54376   0.85473   0.00000  Uiso   1.00
C995   C     0.44759   0.45478   0.81053   0.00000  Uiso   1.00
C996   C     0.05241   0.54522   0.85613   0.00000  Uiso   1.00
C997   C     0.47659   0.50094   0.83304   0.00000  Uiso   1.00
C998   C     0.02341   0.49906   0.83362   0.00000  Uiso   1.00
C999   C     0.45861   0.54893   0.85455   0.00000  Uiso   1.00
C1000  C     0.04139   0.45107   0.81211   0.00000  Uiso   1.00
C1001  C     0.46484   0.40774   0.78695   0.00000  Uiso   1.00
C1002  C     0.03516   0.59226   0.87972   0.00000  Uiso   1.00
Cu1003 Cu    0.25500   0.50579   0.89479   0.00000  Uiso   1.00
Cu1004 Cu    0.24499   0.49421   0.77187   0.00000  Uiso   1.00
H1005  H     0.37845   0.42122   0.79654   0.00000  Uiso   1.00
H1006  H     0.12155   0.57878   0.87013   0.00000  Uiso   1.00
N1007  N     0.23744   0.48547   0.67951   0.00000  Uiso   1.00
N1008  N     0.26255   0.51453   0.98716   0.00000  Uiso   1.00
O1009  O     0.25325   0.42871   0.87326   0.00000  Uiso   1.00
O1010  O     0.24674   0.57129   0.79341   0.00000  Uiso   1.00
O1011  O     0.24480   0.41892   0.76945   0.00000  Uiso   1.00
O1012  O     0.25520   0.58108   0.89721   0.00000  Uiso   1.00
O1013  O     0.18935   0.50488   0.88524   0.00000  Uiso   1.00
O1014  O     0.31064   0.49512   0.78143   0.00000  Uiso   1.00
O1015  O     0.18090   0.49510   0.78143   0.00000  Uiso   1.00
O1016  O     0.31910   0.50490   0.88523   0.00000  Uiso   1.00
N1017  N     0.39111   0.59763   0.86530   0.00000  Uiso   1.00
H1018  H     0.36907   0.60072   0.82747   0.00000  Uiso   1.00
H1019  H     0.37284   0.59730   0.90211   0.00000  Uiso   1.00
N1020  N     0.10888   0.40237   0.80137   0.00000  Uiso   1.00
H1021  H     0.13093   0.39928   0.83920   0.00000  Uiso   1.00
H1022  H     0.12716   0.40270   0.76456   0.00000  Uiso   1.00
N1023  N     0.43433   0.36232   0.76077   0.00000  Uiso   1.00
H1024  H     0.43913   0.34989   0.71515   0.00000  Uiso   1.00
H1025  H     0.44093   0.66599   0.78412   0.00000  Uiso   1.00
N1026  N     0.06567   0.63768   0.90590   0.00000  Uiso   1.00
H1027  H     0.06087   0.65011   0.95151   0.00000  Uiso   1.00
H1028  H     0.05907   0.33401   0.88255   0.00000  Uiso   1.00
N1029  N     0.02868   0.35762   0.76214   0.00000  Uiso   1.00
H1030  H     0.01726   0.66166   0.78365   0.00000  Uiso   1.00
H1031  H     0.01677   0.34736   0.71593   0.00000  Uiso   1.00
N1032  N     0.47132   0.64238   0.90453   0.00000  Uiso   1.00
H1033  H     0.48323   0.65264   0.95073   0.00000  Uiso   1.00
H1034  H     0.48274   0.33834   0.88302   0.00000  Uiso   1.00
N1035  N     0.27566   0.65798   0.75901   0.00000  Uiso   1.00
H1036  H     0.25166   0.63269   0.72828   0.00000  Uiso   1.00
H1037  H     0.30363   0.63963   0.77217   0.00000  Uiso   1.00
N1038  N     0.22434   0.34202   0.90766   0.00000  Uiso   1.00
H1039  H     0.24834   0.36731   0.93839   0.00000  Uiso   1.00
H1040  H     0.19637   0.36037   0.89450   0.00000  Uiso   1.00
O1041  O     0.21176   0.44767   0.97219   0.00000  Uiso   1.00
C1042  C     0.17091   0.43780   0.99450   0.00000  Uiso   1.00
H1043  H     0.15415   0.47405   0.67347   0.00000  Uiso   1.00
H1044  H     0.17587   0.41671   0.69869   0.00000  Uiso   1.00
H1045  H     0.14784   0.41177   0.95768   0.00000  Uiso   1.00
O1046  O     0.28824   0.55233   0.69448   0.00000  Uiso   1.00
C1047  C     0.32909   0.56220   0.67216   0.00000  Uiso   1.00
H1048  H     0.32413   0.58329   0.96798   0.00000  Uiso   1.00
H1049  H     0.34585   0.52595   0.99319   0.00000  Uiso   1.00
H1050  H     0.35216   0.58823   0.70898   0.00000  Uiso   1.00
C1051  C     0.74922   0.40057   0.81870   0.00000  Uiso   1.00
C1052  C     0.75078   0.59943   0.84797   0.00000  Uiso   1.00
C1053  C     0.51164   0.40559   0.78791   0.00000  Uiso   1.00
C1054  C     0.98836   0.59441   0.87876   0.00000  Uiso   1.00
C1055  C     0.75528   0.34669   0.81186   0.00000  Uiso   1.00
C1056  C     0.74472   0.65331   0.85481   0.00000  Uiso   1.00
C1057  C     0.66461   0.49870   0.83325   0.00000  Uiso   1.00
C1058  C     0.83539   0.50130   0.83342   0.00000  Uiso   1.00
C1059  C     0.91128   0.54952   0.85190   0.00000  Uiso   1.00
C1060  C     0.58872   0.45048   0.81476   0.00000  Uiso   1.00
C1061  C     0.88363   0.50257   0.83314   0.00000  Uiso   1.00
C1062  C     0.61636   0.49743   0.83353   0.00000  Uiso   1.00
C1063  C     0.90136   0.45624   0.81193   0.00000  Uiso   1.00
C1064  C     0.59864   0.54376   0.85473   0.00000  Uiso   1.00
C1065  C     0.94759   0.45478   0.81053   0.00000  Uiso   1.00
C1066  C     0.55241   0.54522   0.85613   0.00000  Uiso   1.00
C1067  C     0.97659   0.50094   0.83304   0.00000  Uiso   1.00
C1068  C     0.52341   0.49906   0.83362   0.00000  Uiso   1.00
C1069  C     0.95861   0.54893   0.85455   0.00000  Uiso   1.00
C1070  C     0.54139   0.45107   0.81211   0.00000  Uiso   1.00
C1071  C     0.96484   0.40774   0.78695   0.00000  Uiso   1.00
C1072  C     0.53516   0.59226   0.87972   0.00000  Uiso   1.00
Cu1073 Cu    0.75500   0.50579   0.89479   0.00000  Uiso   1.00
Cu1074 Cu    0.74499   0.49421   0.77187   0.00000  Uiso   1.00
H1075  H     0.87845   0.42122   0.79654   0.00000  Uiso   1.00
H1076  H     0.62155   0.57878   0.87013   0.00000  Uiso   1.00
N1077  N     0.73744   0.48547   0.67951   0.00000  Uiso   1.00
N1078  N     0.76255   0.51453   0.98716   0.00000  Uiso   1.00
O1079  O     0.75325   0.42871   0.87326   0.00000  Uiso   1.00
O1080  O     0.74674   0.57129   0.79341   0.00000  Uiso   1.00
O1081  O     0.74480   0.41892   0.76945   0.00000  Uiso   1.00
O1082  O     0.75520   0.58108   0.89721   0.00000  Uiso   1.00
O1083  O     0.68935   0.50488   0.88524   0.00000  Uiso   1.00
O1084  O     0.81064   0.49512   0.78143   0.00000  Uiso   1.00
O1085  O     0.68090   0.49510   0.78143   0.00000  Uiso   1.00
O1086  O     0.81910   0.50490   0.88523   0.00000  Uiso   1.00
N1087  N     0.89111   0.59763   0.86530   0.00000  Uiso   1.00
H1088  H     0.86907   0.60072   0.82747   0.00000  Uiso   1.00
H1089  H     0.87284   0.59730   0.90211   0.00000  Uiso   1.00
N1090  N     0.60888   0.40237   0.80137   0.00000  Uiso   1.00
H1091  H     0.63093   0.39928   0.83920   0.00000  Uiso   1.00
H1092  H     0.62716   0.40270   0.76456   0.00000  Uiso   1.00
N1093  N     0.93433   0.36232   0.76077   0.00000  Uiso   1.00
H1094  H     0.93913   0.34989   0.71515   0.00000  Uiso   1.00
H1095  H     0.94093   0.66599   0.78412   0.00000  Uiso   1.00
N1096  N     0.56567   0.63768   0.90590   0.00000  Uiso   1.00
H1097  H     0.56087   0.65011   0.95151   0.00000  Uiso   1.00
H1098  H     0.55907   0.33401   0.88255   0.00000  Uiso   1.00
N1099  N     0.52868   0.35762   0.76214   0.00000  Uiso   1.00
H1100  H     0.51726   0.66166   0.78365   0.00000  Uiso   1.00
H1101  H     0.51677   0.34736   0.71593   0.00000  Uiso   1.00
N1102  N     0.97132   0.64238   0.90453   0.00000  Uiso   1.00
H1103  H     0.98323   0.65264   0.95073   0.00000  Uiso   1.00
H1104  H     0.98274   0.33834   0.88302   0.00000  Uiso   1.00
N1105  N     0.77566   0.65798   0.75901   0.00000  Uiso   1.00
H1106  H     0.75166   0.63269   0.72828   0.00000  Uiso   1.00
H1107  H     0.80363   0.63963   0.77217   0.00000  Uiso   1.00
N1108  N     0.72434   0.34202   0.90766   0.00000  Uiso   1.00
H1109  H     0.74834   0.36731   0.93839   0.00000  Uiso   1.00
H1110  H     0.69637   0.36037   0.89450   0.00000  Uiso   1.00
O1111  O     0.71176   0.44767   0.97219   0.00000  Uiso   1.00
C1112  C     0.67091   0.43780   0.99450   0.00000  Uiso   1.00
H1113  H     0.65415   0.47405   0.67347   0.00000  Uiso   1.00
H1114  H     0.67587   0.41671   0.69869   0.00000  Uiso   1.00
H1115  H     0.64784   0.41177   0.95768   0.00000  Uiso   1.00
O1116  O     0.78824   0.55233   0.69448   0.00000  Uiso   1.00
C1117  C     0.82909   0.56220   0.67216   0.00000  Uiso   1.00
H1118  H     0.82413   0.58329   0.96798   0.00000  Uiso   1.00
H1119  H     0.84585   0.52595   0.99319   0.00000  Uiso   1.00
H1120  H     0.85216   0.58823   0.70898   0.00000  Uiso   1.00
C1121  C     0.24922   0.73391   0.81870   0.00000  Uiso   1.00
C1122  C     0.25078   0.93276   0.84797   0.00000  Uiso   1.00
C1123  C     0.01164   0.73893   0.78791   0.00000  Uiso   1.00
C1124  C     0.48836   0.92774   0.87876   0.00000  Uiso   1.00
C1125  C     0.25528   0.68002   0.81186   0.00000  Uiso   1.00
C1126  C     0.24472   0.98664   0.85481   0.00000  Uiso   1.00
C1127  C     0.16461   0.83203   0.83325   0.00000  Uiso   1.00
C1128  C     0.33539   0.83463   0.83342   0.00000  Uiso   1.00
C1129  C     0.41128   0.88285   0.85190   0.00000  Uiso   1.00
C1130  C     0.08872   0.78381   0.81476   0.00000  Uiso   1.00
C1131  C     0.38363   0.83590   0.83314   0.00000  Uiso   1.00
C1132  C     0.11636   0.83076   0.83353   0.00000  Uiso   1.00
C1133  C     0.40136   0.78957   0.81193   0.00000  Uiso   1.00
C1134  C     0.09864   0.87709   0.85473   0.00000  Uiso   1.00
C1135  C     0.44759   0.78812   0.81053   0.00000  Uiso   1.00
C1136  C     0.05241   0.87855   0.85613   0.00000  Uiso   1.00
C1137  C     0.47659   0.83427   0.83304   0.00000  Uiso   1.00
C1138  C     0.02341   0.83239   0.83362   0.00000  Uiso   1.00
C1139  C     0.45861   0.88226   0.85455   0.00000  Uiso   1.00
C1140  C     0.04139   0.78441   0.81211   0.00000  Uiso   1.00
C1141  C     0.46484   0.74108   0.78695   0.00000  Uiso   1.00
C1142  C     0.03516   0.92559   0.87972   0.00000  Uiso   1.00
Cu1143 Cu    0.25500   0.83913   0.89479   0.00000  Uiso   1.00
Cu1144 Cu    0.24499   0.82754   0.77187   0.00000  Uiso   1.00
H1145  H     0.37845   0.75456   0.79654   0.00000  Uiso   1.00
H1146  H     0.12155   0.91211   0.87013   0.00000  Uiso   1.00
N1147  N     0.23744   0.81881   0.67951   0.00000  Uiso   1.00
N1148  N     0.26255   0.84786   0.98716   0.00000  Uiso   1.00
O1149  O     0.25325   0.76204   0.87326   0.00000  Uiso   1.00
O1150  O     0.24674   0.90462   0.79341   0.00000  Uiso   1.00
O1151  O     0.24480   0.75226   0.76945   0.00000  Uiso   1.00
O1152  O     0.25520   0.91441   0.89721   0.00000  Uiso   1.00
O1153  O     0.18935   0.83821   0.88524   0.00000  Uiso   1.00
O1154  O     0.31064   0.82845   0.78143   0.00000  Uiso   1.00
O1155  O     0.18090   0.82843   0.78143   0.00000  Uiso   1.00
O1156  O     0.31910   0.83824   0.88523   0.00000  Uiso   1.00
N1157  N     0.39111   0.93096   0.86530   0.00000  Uiso   1.00
H1158  H     0.36907   0.93406   0.82747   0.00000  Uiso   1.00
H1159  H     0.37284   0.93063   0.90211   0.00000  Uiso   1.00
N1160  N     0.10888   0.73570   0.80137   0.00000  Uiso   1.00
H1161  H     0.13093   0.73261   0.83920   0.00000  Uiso   1.00
H1162  H     0.12716   0.73604   0.76456   0.00000  Uiso   1.00
N1163  N     0.43433   0.69566   0.76077   0.00000  Uiso   1.00
H1164  H     0.43913   0.68323   0.71515   0.00000  Uiso   1.00
H1165  H     0.44093   0.99933   0.78412   0.00000  Uiso   1.00
N1166  N     0.06567   0.97101   0.90590   0.00000  Uiso   1.00
H1167  H     0.06087   0.98344   0.95151   0.00000  Uiso   1.00
H1168  H     0.05907   0.66734   0.88255   0.00000  Uiso   1.00
N1169  N     0.02868   0.69095   0.76214   0.00000  Uiso   1.00
H1170  H     0.01726   0.99500   0.78365   0.00000  Uiso   1.00
H1171  H     0.01677   0.68069   0.71593   0.00000  Uiso   1.00
N1172  N     0.47132   0.97571   0.90453   0.00000  Uiso   1.00
H1173  H     0.48323   0.98598   0.95073   0.00000  Uiso   1.00
H1174  H     0.48274   0.67167   0.88302   0.00000  Uiso   1.00
N1175  N     0.27566   0.99131   0.75901   0.00000  Uiso   1.00
H1176  H     0.25166   0.96603   0.72828   0.00000  Uiso   1.00
H1177  H     0.30363   0.97296   0.77217   0.00000  Uiso   1.00
N1178  N     0.22434   0.67535   0.90766   0.00000  Uiso   1.00
H1179  H     0.24834   0.70064   0.93839   0.00000  Uiso   1.00
H1180  H     0.19637   0.69370   0.89450   0.00000  Uiso   1.00
O1181  O     0.21176   0.78101   0.97219   0.00000  Uiso   1.00
C1182  C     0.17091   0.77114   0.99450   0.00000  Uiso   1.00
H1183  H     0.15415   0.80738   0.67347   0.00000  Uiso   1.00
H1184  H     0.17587   0.75004   0.69869   0.00000  Uiso   1.00
H1185  H     0.14784   0.74510   0.95768   0.00000  Uiso   1.00
O1186  O     0.28824   0.88566   0.69448   0.00000  Uiso   1.00
C1187  C     0.32909   0.89553   0.67216   0.00000  Uiso   1.00
H1188  H     0.32413   0.91662   0.96798   0.00000  Uiso   1.00
H1189  H     0.34585   0.85928   0.99319   0.00000  Uiso   1.00
H1190  H     0.35216   0.92157   0.70898   0.00000  Uiso   1.00
C1191  C     0.74922   0.73391   0.81870   0.00000  Uiso   1.00
C1192  C     0.75078   0.93276   0.84797   0.00000  Uiso   1.00
C1193  C     0.51164   0.73893   0.78791   0.00000  Uiso   1.00
C1194  C     0.98836   0.92774   0.87876   0.00000  Uiso   1.00
C1195  C     0.75528   0.68002   0.81186   0.00000  Uiso   1.00
C1196  C     0.74472   0.98664   0.85481   0.00000  Uiso   1.00
C1197  C     0.66461   0.83203   0.83325   0.00000  Uiso   1.00
C1198  C     0.83539   0.83463   0.83342   0.00000  Uiso   1.00
C1199  C     0.91128   0.88285   0.85190   0.00000  Uiso   1.00
C1200  C     0.58872   0.78381   0.81476   0.00000  Uiso   1.00
C1201  C     0.88363   0.83590   0.83314   0.00000  Uiso   1.00
C1202  C     0.61636   0.83076   0.83353   0.00000  Uiso   1.00
C1203  C     0.90136   0.78957   0.81193   0.00000  Uiso   1.00
C1204  C     0.59864   0.87709   0.85473   0.00000  Uiso   1.00
C1205  C     0.94759   0.78812   0.81053   0.00000  Uiso   1.00
C1206  C     0.55241   0.87855   0.85613   0.00000  Uiso   1.00
C1207  C     0.97659   0.83427   0.83304   0.00000  Uiso   1.00
C1208  C     0.52341   0.83239   0.83362   0.00000  Uiso   1.00
C1209  C     0.95861   0.88226   0.85455   0.00000  Uiso   1.00
C1210  C     0.54139   0.78441   0.81211   0.00000  Uiso   1.00
C1211  C     0.96484   0.74108   0.78695   0.00000  Uiso   1.00
C1212  C     0.53516   0.92559   0.87972   0.00000  Uiso   1.00
Cu1213 Cu    0.75500   0.83913   0.89479   0.00000  Uiso   1.00
Cu1214 Cu    0.74499   0.82754   0.77187   0.00000  Uiso   1.00
H1215  H     0.87845   0.75456   0.79654   0.00000  Uiso   1.00
H1216  H     0.62155   0.91211   0.87013   0.00000  Uiso   1.00
N1217  N     0.73744   0.81881   0.67951   0.00000  Uiso   1.00
N1218  N     0.76255   0.84786   0.98716   0.00000  Uiso   1.00
O1219  O     0.75325   0.76204   0.87326   0.00000  Uiso   1.00
O1220  O     0.74674   0.90462   0.79341   0.00000  Uiso   1.00
O1221  O     0.74480   0.75226   0.76945   0.00000  Uiso   1.00
O1222  O     0.75520   0.91441   0.89721   0.00000  Uiso   1.00
O1223  O     0.68935   0.83821   0.88524   0.00000  Uiso   1.00
O1224  O     0.81064   0.82845   0.78143   0.00000  Uiso   1.00
O1225  O     0.68090   0.82843   0.78143   0.00000  Uiso   1.00
O1226  O     0.81910   0.83824   0.88523   0.00000  Uiso   1.00
N1227  N     0.89111   0.93096   0.86530   0.00000  Uiso   1.00
H1228  H     0.86907   0.93406   0.82747   0.00000  Uiso   1.00
H1229  H     0.87284   0.93063   0.90211   0.00000  Uiso   1.00
N1230  N     0.60888   0.73570   0.80137   0.00000  Uiso   1.00
H1231  H     0.63093   0.73261   0.83920   0.00000  Uiso   1.00
H1232  H     0.62716   0.73604   0.76456   0.00000  Uiso   1.00
N1233  N     0.93433   0.69566   0.76077   0.00000  Uiso   1.00
H1234  H     0.93913   0.68323   0.71515   0.00000  Uiso   1.00
H1235  H     0.94093   0.99933   0.78412   0.00000  Uiso   1.00
N1236  N     0.56567   0.97101   0.90590   0.00000  Uiso   1.00
H1237  H     0.56087   0.98344   0.95151   0.00000  Uiso   1.00
H1238  H     0.55907   0.66734   0.88255   0.00000  Uiso   1.00
N1239  N     0.52868   0.69095   0.76214   0.00000  Uiso   1.00
H1240  H     0.51726   0.99500   0.78365   0.00000  Uiso   1.00
H1241  H     0.51677   0.68069   0.71593   0.00000  Uiso   1.00
N1242  N     0.97132   0.97571   0.90453   0.00000  Uiso   1.00
H1243  H     0.98323   0.98598   0.95073   0.00000  Uiso   1.00
H1244  H     0.98274   0.67167   0.88302   0.00000  Uiso   1.00
N1245  N     0.77566   0.99131   0.75901   0.00000  Uiso   1.00
H1246  H     0.75166   0.96603   0.72828   0.00000  Uiso   1.00
H1247  H     0.80363   0.97296   0.77217   0.00000  Uiso   1.00
N1248  N     0.72434   0.67535   0.90766   0.00000  Uiso   1.00
H1249  H     0.74834   0.70064   0.93839   0.00000  Uiso   1.00
H1250  H     0.69637   0.69370   0.89450   0.00000  Uiso   1.00
O1251  O     0.71176   0.78101   0.97219   0.00000  Uiso   1.00
C1252  C     0.67091   0.77114   0.99450   0.00000  Uiso   1.00
H1253  H     0.65415   0.80738   0.67347   0.00000  Uiso   1.00
H1254  H     0.67587   0.75004   0.69869   0.00000  Uiso   1.00
H1255  H     0.64784   0.74510   0.95768   0.00000  Uiso   1.00
O1256  O     0.78824   0.88566   0.69448   0.00000  Uiso   1.00
C1257  C     0.82909   0.89553   0.67216   0.00000  Uiso   1.00
H1258  H     0.82413   0.91662   0.96798   0.00000  Uiso   1.00
H1259  H     0.84585   0.85928   0.99319   0.00000  Uiso   1.00
H1260  H     0.85216   0.92157   0.70898   0.00000  Uiso   1.00
loop_
_geom_bond_atom_site_label_1
_geom_bond_atom_site_label_2
_geom_bond_distance
_geom_bond_site_symmetry_2
_ccdc_geom_bond_type
C1     O31     1.295   .     A
C1     C5      1.424   .     S
C1     O29     1.295   .     A
C2     O30     1.295   .     A
C2     O32     1.295   .     A
C2     C6      1.424   .     S
C3     N49     1.436   .     S
C3     C20     1.421   .     A
C3     C91     1.408   1_455 S
C4     N52     1.436   .     S
C4     C19     1.421   .     A
C4     C92     1.408   .     S
C5     C286    1.354   1_545 S
C5     N335    1.436   1_545 S
C6     C145    1.354   .     S
C6     N198    1.436   .     S
C7     C12     1.446   .     S
C7     O33     1.298   .     A
C7     O35     1.302   .     A
C8     O34     1.298   .     A
C8     C11     1.446   .     S
C8     O36     1.302   .     A
C9     C11     1.403   .     A
C9     N37     1.436   .     S
C9     C19     1.417   .     A
C10    C12     1.403   .     A
C10    N40     1.436   .     S
C10    C20     1.417   .     A
C11    C13     1.385   .     A
C12    C14     1.385   .     A
C13    H25     1.085   .     S
C13    C15     1.394   .     A
C14    H26     1.085   .     S
C14    C16     1.394   .     A
C15    C21     1.406   .     A
C15    C17     1.416   .     A
C16    C18     1.416   .     A
C16    C22     1.406   .     A
C17    C19     1.427   .     A
C17    C88     1.408   .     S
C18    C20     1.427   .     A
C18    C87     1.408   1_455 S
C21    N43     1.439   .     S
C21    C73     1.408   .     S
C22    N46     1.439   .     S
C22    C74     1.408   1_455 S
Cu23   O32     1.973   .     S
Cu23   N28     2.039   .     S
Cu23   O29     1.988   .     S
Cu23   Cu24    2.713   .     S
Cu23   O36     1.958   .     S
Cu23   O33     1.958   .     S
Cu24   N27     2.039   .     S
Cu24   O31     1.973   .     S
Cu24   O30     1.988   .     S
Cu24   O35     1.958   .     S
Cu24   O34     1.958   .     S
N27    N868    1.291   1_554 S
N27    O901    1.346   1_554 S
N28    N447    1.291   .     S
N28    O486    1.346   .     S
N37    H38     1.045   .     S
N37    H39     1.042   .     S
N40    H41     1.045   .     S
N40    H42     1.042   .     S
N43    H44     1.045   .     S
N43    H325    1.044   1_545 S
H45    N183    1.044   .     S
N46    H47     1.045   .     S
N46    H188    1.044   .     S
H48    N326    1.044   1_545 S
N49    H51     1.043   .     S
N49    H330    1.044   1_545 S
H50    N189    1.044   .     S
N52    H53     1.043   .     S
N52    H194    1.044   .     S
H54    N332    1.044   1_545 S
N55    H56     1.044   .     S
N55    H57     1.045   .     S
N55    C145    1.436   .     S
N58    H60     1.045   .     S
N58    H59     1.044   .     S
N58    C286    1.436   1_545 S
O61    C62     1.398   .     S
O61    N447    1.346   .     S
C62    H65     1.109   .     S
C62    H483    1.112   .     S
C62    H484    1.104   .     S
H63    C902    1.112   1_554 S
H64    C902    1.104   1_554 S
O66    C67     1.398   .     S
O66    N868    1.346   1_554 S
C67    H70     1.109   .     S
C67    H908    1.104   1_554 S
C67    H909    1.112   1_554 S
H68    C487    1.104   .     S
H69    C487    1.112   .     S
C71    O101    1.295   .     A
C71    C75     1.424   .     S
C71    O99     1.295   .     A
C72    O100    1.295   .     A
C72    O102    1.295   .     A
C72    C76     1.424   .     S
C73    N119    1.436   .     S
C73    C90     1.421   .     A
C74    N122    1.436   .     S
C74    C89     1.421   .     A
C74    C22     1.408   1_655 S
C75    C356    1.354   1_545 S
C75    N405    1.436   1_545 S
C76    C215    1.354   .     S
C76    N268    1.436   .     S
C77    C82     1.446   .     S
C77    O103    1.298   .     A
C77    O105    1.302   .     A
C78    O104    1.298   .     A
C78    C81     1.446   .     S
C78    O106    1.302   .     A
C79    C81     1.403   .     A
C79    N107    1.436   .     S
C79    C89     1.417   .     A
C80    C82     1.403   .     A
C80    N110    1.436   .     S
C80    C90     1.417   .     A
C81    C83     1.385   .     A
C82    C84     1.385   .     A
C83    H95     1.085   .     S
C83    C85     1.394   .     A
C84    H96     1.085   .     S
C84    C86     1.394   .     A
C85    C91     1.406   .     A
C85    C87     1.416   .     A
C86    C88     1.416   .     A
C86    C92     1.406   .     A
C87    C89     1.427   .     A
C87    C18     1.408   1_655 S
C88    C90     1.427   .     A
C91    N113    1.439   .     S
C91    C3      1.408   1_655 S
C92    N116    1.439   .     S
Cu93   O102    1.973   .     S
Cu93   N98     2.039   .     S
Cu93   O99     1.988   .     S
Cu93   Cu94    2.713   .     S
Cu93   O106    1.958   .     S
Cu93   O103    1.958   .     S
Cu94   N97     2.039   .     S
Cu94   O101    1.973   .     S
Cu94   O100    1.988   .     S
Cu94   O105    1.958   .     S
Cu94   O104    1.958   .     S
N97    N938    1.291   1_554 S
N97    O971    1.346   1_554 S
N98    N517    1.291   .     S
N98    O556    1.346   .     S
N107   H108    1.045   .     S
N107   H109    1.042   .     S
N110   H111    1.045   .     S
N110   H112    1.042   .     S
N113   H114    1.045   .     S
N113   H395    1.044   1_545 S
H115   N253    1.044   .     S
N116   H117    1.045   .     S
N116   H258    1.044   .     S
H118   N396    1.044   1_545 S
N119   H121    1.043   .     S
N119   H400    1.044   1_545 S
H120   N259    1.044   .     S
N122   H123    1.043   .     S
N122   H264    1.044   .     S
H124   N402    1.044   1_545 S
N125   H126    1.044   .     S
N125   H127    1.045   .     S
N125   C215    1.436   .     S
N128   H130    1.045   .     S
N128   H129    1.044   .     S
N128   C356    1.436   1_545 S
O131   C132    1.398   .     S
O131   N517    1.346   .     S
C132   H135    1.109   .     S
C132   H553    1.112   .     S
C132   H554    1.104   .     S
H133   C972    1.112   1_554 S
H134   C972    1.104   1_554 S
O136   C137    1.398   .     S
O136   N938    1.346   1_554 S
C137   H140    1.109   .     S
C137   H978    1.104   1_554 S
C137   H979    1.112   1_554 S
H138   C557    1.104   .     S
H139   C557    1.112   .     S
C141   O171    1.295   .     A
C141   C145    1.424   .     S
C141   O169    1.295   .     A
C142   O170    1.295   .     A
C142   O172    1.295   .     A
C142   C146    1.424   .     S
C143   N189    1.436   .     S
C143   C160    1.421   .     A
C143   C231    1.408   1_455 S
C144   N192    1.436   .     S
C144   C159    1.421   .     A
C144   C232    1.408   .     S
C146   C285    1.354   .     S
C146   N338    1.436   .     S
C147   C152    1.446   .     S
C147   O173    1.298   .     A
C147   O175    1.302   .     A
C148   O174    1.298   .     A
C148   C151    1.446   .     S
C148   O176    1.302   .     A
C149   C151    1.403   .     A
C149   N177    1.436   .     S
C149   C159    1.417   .     A
C150   C152    1.403   .     A
C150   N180    1.436   .     S
C150   C160    1.417   .     A
C151   C153    1.385   .     A
C152   C154    1.385   .     A
C153   H165    1.085   .     S
C153   C155    1.394   .     A
C154   H166    1.085   .     S
C154   C156    1.394   .     A
C155   C161    1.406   .     A
C155   C157    1.416   .     A
C156   C158    1.416   .     A
C156   C162    1.406   .     A
C157   C159    1.427   .     A
C157   C228    1.408   .     S
C158   C160    1.427   .     A
C158   C227    1.408   1_455 S
C161   N183    1.439   .     S
C161   C213    1.408   .     S
C162   N186    1.439   .     S
C162   C214    1.408   1_455 S
Cu163  O172    1.973   .     S
Cu163  N168    2.039   .     S
Cu163  O169    1.988   .     S
Cu163  Cu164   2.713   .     S
Cu163  O176    1.958   .     S
Cu163  O173    1.958   .     S
Cu164  N167    2.039   .     S
Cu164  O171    1.973   .     S
Cu164  O170    1.988   .     S
Cu164  O175    1.958   .     S
Cu164  O174    1.958   .     S
N167   N1008   1.291   1_554 S
N167   O1041   1.346   1_554 S
N168   N587    1.291   .     S
N168   O626    1.346   .     S
N177   H178    1.045   .     S
N177   H179    1.042   .     S
N180   H181    1.045   .     S
N180   H182    1.042   .     S
N183   H184    1.045   .     S
H185   N323    1.044   .     S
N186   H187    1.045   .     S
N186   H328    1.044   .     S
N189   H191    1.043   .     S
H190   N329    1.044   .     S
N192   H193    1.043   .     S
N192   H334    1.044   .     S
N195   H196    1.044   .     S
N195   H197    1.045   .     S
N195   C285    1.436   .     S
N198   H200    1.045   .     S
N198   H199    1.044   .     S
O201   C202    1.398   .     S
O201   N587    1.346   .     S
C202   H205    1.109   .     S
C202   H623    1.112   .     S
C202   H624    1.104   .     S
H203   C1042   1.112   1_554 S
H204   C1042   1.104   1_554 S
O206   C207    1.398   .     S
O206   N1008   1.346   1_554 S
C207   H210    1.109   .     S
C207   H1048   1.104   1_554 S
C207   H1049   1.112   1_554 S
H208   C627    1.104   .     S
H209   C627    1.112   .     S
C211   O241    1.295   .     A
C211   C215    1.424   .     S
C211   O239    1.295   .     A
C212   O240    1.295   .     A
C212   O242    1.295   .     A
C212   C216    1.424   .     S
C213   N259    1.436   .     S
C213   C230    1.421   .     A
C214   N262    1.436   .     S
C214   C229    1.421   .     A
C214   C162    1.408   1_655 S
C216   C355    1.354   .     S
C216   N408    1.436   .     S
C217   C222    1.446   .     S
C217   O243    1.298   .     A
C217   O245    1.302   .     A
C218   O244    1.298   .     A
C218   C221    1.446   .     S
C218   O246    1.302   .     A
C219   C221    1.403   .     A
C219   N247    1.436   .     S
C219   C229    1.417   .     A
C220   C222    1.403   .     A
C220   N250    1.436   .     S
C220   C230    1.417   .     A
C221   C223    1.385   .     A
C222   C224    1.385   .     A
C223   H235    1.085   .     S
C223   C225    1.394   .     A
C224   H236    1.085   .     S
C224   C226    1.394   .     A
C225   C231    1.406   .     A
C225   C227    1.416   .     A
C226   C228    1.416   .     A
C226   C232    1.406   .     A
C227   C229    1.427   .     A
C227   C158    1.408   1_655 S
C228   C230    1.427   .     A
C231   N253    1.439   .     S
C231   C143    1.408   1_655 S
C232   N256    1.439   .     S
Cu233  O242    1.973   .     S
Cu233  N238    2.039   .     S
Cu233  O239    1.988   .     S
Cu233  Cu234   2.713   .     S
Cu233  O246    1.958   .     S
Cu233  O243    1.958   .     S
Cu234  N237    2.039   .     S
Cu234  O241    1.973   .     S
Cu234  O240    1.988   .     S
Cu234  O245    1.958   .     S
Cu234  O244    1.958   .     S
N237   N1078   1.291   1_554 S
N237   O1111   1.346   1_554 S
N238   N657    1.291   .     S
N238   O696    1.346   .     S
N247   H248    1.045   .     S
N247   H249    1.042   .     S
N250   H251    1.045   .     S
N250   H252    1.042   .     S
N253   H254    1.045   .     S
H255   N393    1.044   .     S
N256   H257    1.045   .     S
N256   H398    1.044   .     S
N259   H261    1.043   .     S
H260   N399    1.044   .     S
N262   H263    1.043   .     S
N262   H404    1.044   .     S
N265   H266    1.044   .     S
N265   H267    1.045   .     S
N265   C355    1.436   .     S
N268   H270    1.045   .     S
N268   H269    1.044   .     S
O271   C272    1.398   .     S
O271   N657    1.346   .     S
C272   H275    1.109   .     S
C272   H693    1.112   .     S
C272   H694    1.104   .     S
H273   C1112   1.112   1_554 S
H274   C1112   1.104   1_554 S
O276   C277    1.398   .     S
O276   N1078   1.346   1_554 S
C277   H280    1.109   .     S
C277   H1118   1.104   1_554 S
C277   H1119   1.112   1_554 S
H278   C697    1.104   .     S
H279   C697    1.112   .     S
C281   O311    1.295   .     A
C281   C285    1.424   .     S
C281   O309    1.295   .     A
C282   O310    1.295   .     A
C282   O312    1.295   .     A
C282   C286    1.424   .     S
C283   N329    1.436   .     S
C283   C300    1.421   .     A
C283   C371    1.408   1_455 S
C284   N332    1.436   .     S
C284   C299    1.421   .     A
C284   C372    1.408   .     S
C286   C5      1.354   1_565 S
C286   N58     1.436   1_565 S
C287   C292    1.446   .     S
C287   O313    1.298   .     A
C287   O315    1.302   .     A
C288   O314    1.298   .     A
C288   C291    1.446   .     S
C288   O316    1.302   .     A
C289   C291    1.403   .     A
C289   N317    1.436   .     S
C289   C299    1.417   .     A
C290   C292    1.403   .     A
C290   N320    1.436   .     S
C290   C300    1.417   .     A
C291   C293    1.385   .     A
C292   C294    1.385   .     A
C293   H305    1.085   .     S
C293   C295    1.394   .     A
C294   H306    1.085   .     S
C294   C296    1.394   .     A
C295   C301    1.406   .     A
C295   C297    1.416   .     A
C296   C298    1.416   .     A
C296   C302    1.406   .     A
C297   C299    1.427   .     A
C297   C368    1.408   .     S
C298   C300    1.427   .     A
C298   C367    1.408   1_455 S
C301   N323    1.439   .     S
C301   C353    1.408   .     S
C302   N326    1.439   .     S
C302   C354    1.408   1_455 S
Cu303  O312    1.973   .     S
Cu303  N308    2.039   .     S
Cu303  O309    1.988   .     S
Cu303  Cu304   2.713   .     S
Cu303  O316    1.958   .     S
Cu303  O313    1.958   .     S
Cu304  N307    2.039   .     S
Cu304  O311    1.973   .     S
Cu304  O310    1.988   .     S
Cu304  O315    1.958   .     S
Cu304  O314    1.958   .     S
N307   N1148   1.291   1_554 S
N307   O1181   1.346   1_554 S
N308   N727    1.291   .     S
N308   O766    1.346   .     S
N317   H318    1.045   .     S
N317   H319    1.042   .     S
N320   H321    1.045   .     S
N320   H322    1.042   .     S
N323   H324    1.045   .     S
H325   N43     1.044   1_565 S
N326   H327    1.045   .     S
N326   H48     1.044   1_565 S
N329   H331    1.043   .     S
H330   N49     1.044   1_565 S
N332   H333    1.043   .     S
N332   H54     1.044   1_565 S
N335   H336    1.044   .     S
N335   H337    1.045   .     S
N335   C5      1.436   1_565 S
N338   H340    1.045   .     S
N338   H339    1.044   .     S
O341   C342    1.398   .     S
O341   N727    1.346   .     S
C342   H345    1.109   .     S
C342   H763    1.112   .     S
C342   H764    1.104   .     S
H343   C1182   1.112   1_554 S
H344   C1182   1.104   1_554 S
O346   C347    1.398   .     S
O346   N1148   1.346   1_554 S
C347   H350    1.109   .     S
C347   H1188   1.104   1_554 S
C347   H1189   1.112   1_554 S
H348   C767    1.104   .     S
H349   C767    1.112   .     S
C351   O381    1.295   .     A
C351   C355    1.424   .     S
C351   O379    1.295   .     A
C352   O380    1.295   .     A
C352   O382    1.295   .     A
C352   C356    1.424   .     S
C353   N399    1.436   .     S
C353   C370    1.421   .     A
C354   N402    1.436   .     S
C354   C369    1.421   .     A
C354   C302    1.408   1_655 S
C356   C75     1.354   1_565 S
C356   N128    1.436   1_565 S
C357   C362    1.446   .     S
C357   O383    1.298   .     A
C357   O385    1.302   .     A
C358   O384    1.298   .     A
C358   C361    1.446   .     S
C358   O386    1.302   .     A
C359   C361    1.403   .     A
C359   N387    1.436   .     S
C359   C369    1.417   .     A
C360   C362    1.403   .     A
C360   N390    1.436   .     S
C360   C370    1.417   .     A
C361   C363    1.385   .     A
C362   C364    1.385   .     A
C363   H375    1.085   .     S
C363   C365    1.394   .     A
C364   H376    1.085   .     S
C364   C366    1.394   .     A
C365   C371    1.406   .     A
C365   C367    1.416   .     A
C366   C368    1.416   .     A
C366   C372    1.406   .     A
C367   C369    1.427   .     A
C367   C298    1.408   1_655 S
C368   C370    1.427   .     A
C371   N393    1.439   .     S
C371   C283    1.408   1_655 S
C372   N396    1.439   .     S
Cu373  O382    1.973   .     S
Cu373  N378    2.039   .     S
Cu373  O379    1.988   .     S
Cu373  Cu374   2.713   .     S
Cu373  O386    1.958   .     S
Cu373  O383    1.958   .     S
Cu374  N377    2.039   .     S
Cu374  O381    1.973   .     S
Cu374  O380    1.988   .     S
Cu374  O385    1.958   .     S
Cu374  O384    1.958   .     S
N377   N1218   1.291   1_554 S
N377   O1251   1.346   1_554 S
N378   N797    1.291   .     S
N378   O836    1.346   .     S
N387   H388    1.045   .     S
N387   H389    1.042   .     S
N390   H391    1.045   .     S
N390   H392    1.042   .     S
N393   H394    1.045   .     S
H395   N113    1.044   1_565 S
N396   H397    1.045   .     S
N396   H118    1.044   1_565 S
N399   H401    1.043   .     S
H400   N119    1.044   1_565 S
N402   H403    1.043   .     S
N402   H124    1.044   1_565 S
N405   H406    1.044   .     S
N405   H407    1.045   .     S
N405   C75     1.436   1_565 S
N408   H410    1.045   .     S
N408   H409    1.044   .     S
O411   C412    1.398   .     S
O411   N797    1.346   .     S
C412   H415    1.109   .     S
C412   H833    1.112   .     S
C412   H834    1.104   .     S
H413   C1252   1.112   1_554 S
H414   C1252   1.104   1_554 S
O416   C417    1.398   .     S
O416   N1218   1.346   1_554 S
C417   H420    1.109   .     S
C417   H1258   1.104   1_554 S
C417   H1259   1.112   1_554 S
H418   C837    1.104   .     S
H419   C837    1.112   .     S
C421   O451    1.295   .     A
C421   C425    1.424   .     S
C421   O449    1.295   .     A
C422   O450    1.295   .     A
C422   O452    1.295   .     A
C422   C426    1.424   .     S
C423   N469    1.436   .     S
C423   C440    1.421   .     A
C423   C511    1.408   1_455 S
C424   N472    1.436   .     S
C424   C439    1.421   .     A
C424   C512    1.408   .     S
C425   C706    1.354   1_545 S
C425   N755    1.436   1_545 S
C426   C565    1.354   .     S
C426   N618    1.436   .     S
C427   C432    1.446   .     S
C427   O453    1.298   .     A
C427   O455    1.302   .     A
C428   O454    1.298   .     A
C428   C431    1.446   .     S
C428   O456    1.302   .     A
C429   C431    1.403   .     A
C429   N457    1.436   .     S
C429   C439    1.417   .     A
C430   C432    1.403   .     A
C430   N460    1.436   .     S
C430   C440    1.417   .     A
C431   C433    1.385   .     A
C432   C434    1.385   .     A
C433   H445    1.085   .     S
C433   C435    1.394   .     A
C434   H446    1.085   .     S
C434   C436    1.394   .     A
C435   C441    1.406   .     A
C435   C437    1.416   .     A
C436   C438    1.416   .     A
C436   C442    1.406   .     A
C437   C439    1.427   .     A
C437   C508    1.408   .     S
C438   C440    1.427   .     A
C438   C507    1.408   1_455 S
C441   N463    1.439   .     S
C441   C493    1.408   .     S
C442   N466    1.439   .     S
C442   C494    1.408   1_455 S
Cu443  O452    1.973   .     S
Cu443  N448    2.039   .     S
Cu443  O449    1.988   .     S
Cu443  Cu444   2.713   .     S
Cu443  O456    1.958   .     S
Cu443  O453    1.958   .     S
Cu444  N447    2.039   .     S
Cu444  O451    1.973   .     S
Cu444  O450    1.988   .     S
Cu444  O455    1.958   .     S
Cu444  O454    1.958   .     S
N448   N867    1.291   .     S
N448   O906    1.346   .     S
N457   H458    1.045   .     S
N457   H459    1.042   .     S
N460   H461    1.045   .     S
N460   H462    1.042   .     S
N463   H464    1.045   .     S
N463   H745    1.044   1_545 S
H465   N603    1.044   .     S
N466   H467    1.045   .     S
N466   H608    1.044   .     S
H468   N746    1.044   1_545 S
N469   H471    1.043   .     S
N469   H750    1.044   1_545 S
H470   N609    1.044   .     S
N472   H473    1.043   .     S
N472   H614    1.044   .     S
H474   N752    1.044   1_545 S
N475   H476    1.044   .     S
N475   H477    1.045   .     S
N475   C565    1.436   .     S
N478   H480    1.045   .     S
N478   H479    1.044   .     S
N478   C706    1.436   1_545 S
O481   C482    1.398   .     S
O481   N867    1.346   .     S
C482   H485    1.109   .     S
C482   H903    1.112   .     S
C482   H904    1.104   .     S
O486   C487    1.398   .     S
C487   H490    1.109   .     S
H488   C907    1.104   .     S
H489   C907    1.112   .     S
C491   O521    1.295   .     A
C491   C495    1.424   .     S
C491   O519    1.295   .     A
C492   O520    1.295   .     A
C492   O522    1.295   .     A
C492   C496    1.424   .     S
C493   N539    1.436   .     S
C493   C510    1.421   .     A
C494   N542    1.436   .     S
C494   C509    1.421   .     A
C494   C442    1.408   1_655 S
C495   C776    1.354   1_545 S
C495   N825    1.436   1_545 S
C496   C635    1.354   .     S
C496   N688    1.436   .     S
C497   C502    1.446   .     S
C497   O523    1.298   .     A
C497   O525    1.302   .     A
C498   O524    1.298   .     A
C498   C501    1.446   .     S
C498   O526    1.302   .     A
C499   C501    1.403   .     A
C499   N527    1.436   .     S
C499   C509    1.417   .     A
C500   C502    1.403   .     A
C500   N530    1.436   .     S
C500   C510    1.417   .     A
C501   C503    1.385   .     A
C502   C504    1.385   .     A
C503   H515    1.085   .     S
C503   C505    1.394   .     A
C504   H516    1.085   .     S
C504   C506    1.394   .     A
C505   C511    1.406   .     A
C505   C507    1.416   .     A
C506   C508    1.416   .     A
C506   C512    1.406   .     A
C507   C509    1.427   .     A
C507   C438    1.408   1_655 S
C508   C510    1.427   .     A
C511   N533    1.439   .     S
C511   C423    1.408   1_655 S
C512   N536    1.439   .     S
Cu513  O522    1.973   .     S
Cu513  N518    2.039   .     S
Cu513  O519    1.988   .     S
Cu513  Cu514   2.713   .     S
Cu513  O526    1.958   .     S
Cu513  O523    1.958   .     S
Cu514  N517    2.039   .     S
Cu514  O521    1.973   .     S
Cu514  O520    1.988   .     S
Cu514  O525    1.958   .     S
Cu514  O524    1.958   .     S
N518   N937    1.291   .     S
N518   O976    1.346   .     S
N527   H528    1.045   .     S
N527   H529    1.042   .     S
N530   H531    1.045   .     S
N530   H532    1.042   .     S
N533   H534    1.045   .     S
N533   H815    1.044   1_545 S
H535   N673    1.044   .     S
N536   H537    1.045   .     S
N536   H678    1.044   .     S
H538   N816    1.044   1_545 S
N539   H541    1.043   .     S
N539   H820    1.044   1_545 S
H540   N679    1.044   .     S
N542   H543    1.043   .     S
N542   H684    1.044   .     S
H544   N822    1.044   1_545 S
N545   H546    1.044   .     S
N545   H547    1.045   .     S
N545   C635    1.436   .     S
N548   H550    1.045   .     S
N548   H549    1.044   .     S
N548   C776    1.436   1_545 S
O551   C552    1.398   .     S
O551   N937    1.346   .     S
C552   H555    1.109   .     S
C552   H973    1.112   .     S
C552   H974    1.104   .     S
O556   C557    1.398   .     S
C557   H560    1.109   .     S
H558   C977    1.104   .     S
H559   C977    1.112   .     S
C561   O591    1.295   .     A
C561   C565    1.424   .     S
C561   O589    1.295   .     A
C562   O590    1.295   .     A
C562   O592    1.295   .     A
C562   C566    1.424   .     S
C563   N609    1.436   .     S
C563   C580    1.421   .     A
C563   C651    1.408   1_455 S
C564   N612    1.436   .     S
C564   C579    1.421   .     A
C564   C652    1.408   .     S
C566   C705    1.354   .     S
C566   N758    1.436   .     S
C567   C572    1.446   .     S
C567   O593    1.298   .     A
C567   O595    1.302   .     A
C568   O594    1.298   .     A
C568   C571    1.446   .     S
C568   O596    1.302   .     A
C569   C571    1.403   .     A
C569   N597    1.436   .     S
C569   C579    1.417   .     A
C570   C572    1.403   .     A
C570   N600    1.436   .     S
C570   C580    1.417   .     A
C571   C573    1.385   .     A
C572   C574    1.385   .     A
C573   H585    1.085   .     S
C573   C575    1.394   .     A
C574   H586    1.085   .     S
C574   C576    1.394   .     A
C575   C581    1.406   .     A
C575   C577    1.416   .     A
C576   C578    1.416   .     A
C576   C582    1.406   .     A
C577   C579    1.427   .     A
C577   C648    1.408   .     S
C578   C580    1.427   .     A
C578   C647    1.408   1_455 S
C581   N603    1.439   .     S
C581   C633    1.408   .     S
C582   N606    1.439   .     S
C582   C634    1.408   1_455 S
Cu583  O592    1.973   .     S
Cu583  N588    2.039   .     S
Cu583  O589    1.988   .     S
Cu583  Cu584   2.713   .     S
Cu583  O596    1.958   .     S
Cu583  O593    1.958   .     S
Cu584  N587    2.039   .     S
Cu584  O591    1.973   .     S
Cu584  O590    1.988   .     S
Cu584  O595    1.958   .     S
Cu584  O594    1.958   .     S
N588   N1007   1.291   .     S
N588   O1046   1.346   .     S
N597   H598    1.045   .     S
N597   H599    1.042   .     S
N600   H601    1.045   .     S
N600   H602    1.042   .     S
N603   H604    1.045   .     S
H605   N743    1.044   .     S
N606   H607    1.045   .     S
N606   H748    1.044   .     S
N609   H611    1.043   .     S
H610   N749    1.044   .     S
N612   H613    1.043   .     S
N612   H754    1.044   .     S
N615   H616    1.044   .     S
N615   H617    1.045   .     S
N615   C705    1.436   .     S
N618   H620    1.045   .     S
N618   H619    1.044   .     S
O621   C622    1.398   .     S
O621   N1007   1.346   .     S
C622   H625    1.109   .     S
C622   H1043   1.112   .     S
C622   H1044   1.104   .     S
O626   C627    1.398   .     S
C627   H630    1.109   .     S
H628   C1047   1.104   .     S
H629   C1047   1.112   .     S
C631   O661    1.295   .     A
C631   C635    1.424   .     S
C631   O659    1.295   .     A
C632   O660    1.295   .     A
C632   O662    1.295   .     A
C632   C636    1.424   .     S
C633   N679    1.436   .     S
C633   C650    1.421   .     A
C634   N682    1.436   .     S
C634   C649    1.421   .     A
C634   C582    1.408   1_655 S
C636   C775    1.354   .     S
C636   N828    1.436   .     S
C637   C642    1.446   .     S
C637   O663    1.298   .     A
C637   O665    1.302   .     A
C638   O664    1.298   .     A
C638   C641    1.446   .     S
C638   O666    1.302   .     A
C639   C641    1.403   .     A
C639   N667    1.436   .     S
C639   C649    1.417   .     A
C640   C642    1.403   .     A
C640   N670    1.436   .     S
C640   C650    1.417   .     A
C641   C643    1.385   .     A
C642   C644    1.385   .     A
C643   H655    1.085   .     S
C643   C645    1.394   .     A
C644   H656    1.085   .     S
C644   C646    1.394   .     A
C645   C651    1.406   .     A
C645   C647    1.416   .     A
C646   C648    1.416   .     A
C646   C652    1.406   .     A
C647   C649    1.427   .     A
C647   C578    1.408   1_655 S
C648   C650    1.427   .     A
C651   N673    1.439   .     S
C651   C563    1.408   1_655 S
C652   N676    1.439   .     S
Cu653  O662    1.973   .     S
Cu653  N658    2.039   .     S
Cu653  O659    1.988   .     S
Cu653  Cu654   2.713   .     S
Cu653  O666    1.958   .     S
Cu653  O663    1.958   .     S
Cu654  N657    2.039   .     S
Cu654  O661    1.973   .     S
Cu654  O660    1.988   .     S
Cu654  O665    1.958   .     S
Cu654  O664    1.958   .     S
N658   N1077   1.291   .     S
N658   O1116   1.346   .     S
N667   H668    1.045   .     S
N667   H669    1.042   .     S
N670   H671    1.045   .     S
N670   H672    1.042   .     S
N673   H674    1.045   .     S
H675   N813    1.044   .     S
N676   H677    1.045   .     S
N676   H818    1.044   .     S
N679   H681    1.043   .     S
H680   N819    1.044   .     S
N682   H683    1.043   .     S
N682   H824    1.044   .     S
N685   H686    1.044   .     S
N685   H687    1.045   .     S
N685   C775    1.436   .     S
N688   H690    1.045   .     S
N688   H689    1.044   .     S
O691   C692    1.398   .     S
O691   N1077   1.346   .     S
C692   H695    1.109   .     S
C692   H1113   1.112   .     S
C692   H1114   1.104   .     S
O696   C697    1.398   .     S
C697   H700    1.109   .     S
H698   C1117   1.104   .     S
H699   C1117   1.112   .     S
C701   O731    1.295   .     A
C701   C705    1.424   .     S
C701   O729    1.295   .     A
C702   O730    1.295   .     A
C702   O732    1.295   .     A
C702   C706    1.424   .     S
C703   N749    1.436   .     S
C703   C720    1.421   .     A
C703   C791    1.408   1_455 S
C704   N752    1.436   .     S
C704   C719    1.421   .     A
C704   C792    1.408   .     S
C706   C425    1.354   1_565 S
C706   N478    1.436   1_565 S
C707   C712    1.446   .     S
C707   O733    1.298   .     A
C707   O735    1.302   .     A
C708   O734    1.298   .     A
C708   C711    1.446   .     S
C708   O736    1.302   .     A
C709   C711    1.403   .     A
C709   N737    1.436   .     S
C709   C719    1.417   .     A
C710   C712    1.403   .     A
C710   N740    1.436   .     S
C710   C720    1.417   .     A
C711   C713    1.385   .     A
C712   C714    1.385   .     A
C713   H725    1.085   .     S
C713   C715    1.394   .     A
C714   H726    1.085   .     S
C714   C716    1.394   .     A
C715   C721    1.406   .     A
C715   C717    1.416   .     A
C716   C718    1.416   .     A
C716   C722    1.406   .     A
C717   C719    1.427   .     A
C717   C788    1.408   .     S
C718   C720    1.427   .     A
C718   C787    1.408   1_455 S
C721   N743    1.439   .     S
C721   C773    1.408   .     S
C722   N746    1.439   .     S
C722   C774    1.408   1_455 S
Cu723  O732    1.973   .     S
Cu723  N728    2.039   .     S
Cu723  O729    1.988   .     S
Cu723  Cu724   2.713   .     S
Cu723  O736    1.958   .     S
Cu723  O733    1.958   .     S
Cu724  N727    2.039   .     S
Cu724  O731    1.973   .     S
Cu724  O730    1.988   .     S
Cu724  O735    1.958   .     S
Cu724  O734    1.958   .     S
N728   N1147   1.291   .     S
N728   O1186   1.346   .     S
N737   H738    1.045   .     S
N737   H739    1.042   .     S
N740   H741    1.045   .     S
N740   H742    1.042   .     S
N743   H744    1.045   .     S
H745   N463    1.044   1_565 S
N746   H747    1.045   .     S
N746   H468    1.044   1_565 S
N749   H751    1.043   .     S
H750   N469    1.044   1_565 S
N752   H753    1.043   .     S
N752   H474    1.044   1_565 S
N755   H756    1.044   .     S
N755   H757    1.045   .     S
N755   C425    1.436   1_565 S
N758   H760    1.045   .     S
N758   H759    1.044   .     S
O761   C762    1.398   .     S
O761   N1147   1.346   .     S
C762   H765    1.109   .     S
C762   H1183   1.112   .     S
C762   H1184   1.104   .     S
O766   C767    1.398   .     S
C767   H770    1.109   .     S
H768   C1187   1.104   .     S
H769   C1187   1.112   .     S
C771   O801    1.295   .     A
C771   C775    1.424   .     S
C771   O799    1.295   .     A
C772   O800    1.295   .     A
C772   O802    1.295   .     A
C772   C776    1.424   .     S
C773   N819    1.436   .     S
C773   C790    1.421   .     A
C774   N822    1.436   .     S
C774   C789    1.421   .     A
C774   C722    1.408   1_655 S
C776   C495    1.354   1_565 S
C776   N548    1.436   1_565 S
C777   C782    1.446   .     S
C777   O803    1.298   .     A
C777   O805    1.302   .     A
C778   O804    1.298   .     A
C778   C781    1.446   .     S
C778   O806    1.302   .     A
C779   C781    1.403   .     A
C779   N807    1.436   .     S
C779   C789    1.417   .     A
C780   C782    1.403   .     A
C780   N810    1.436   .     S
C780   C790    1.417   .     A
C781   C783    1.385   .     A
C782   C784    1.385   .     A
C783   H795    1.085   .     S
C783   C785    1.394   .     A
C784   H796    1.085   .     S
C784   C786    1.394   .     A
C785   C791    1.406   .     A
C785   C787    1.416   .     A
C786   C788    1.416   .     A
C786   C792    1.406   .     A
C787   C789    1.427   .     A
C787   C718    1.408   1_655 S
C788   C790    1.427   .     A
C791   N813    1.439   .     S
C791   C703    1.408   1_655 S
C792   N816    1.439   .     S
Cu793  O802    1.973   .     S
Cu793  N798    2.039   .     S
Cu793  O799    1.988   .     S
Cu793  Cu794   2.713   .     S
Cu793  O806    1.958   .     S
Cu793  O803    1.958   .     S
Cu794  N797    2.039   .     S
Cu794  O801    1.973   .     S
Cu794  O800    1.988   .     S
Cu794  O805    1.958   .     S
Cu794  O804    1.958   .     S
N798   N1217   1.291   .     S
N798   O1256   1.346   .     S
N807   H808    1.045   .     S
N807   H809    1.042   .     S
N810   H811    1.045   .     S
N810   H812    1.042   .     S
N813   H814    1.045   .     S
H815   N533    1.044   1_565 S
N816   H817    1.045   .     S
N816   H538    1.044   1_565 S
N819   H821    1.043   .     S
H820   N539    1.044   1_565 S
N822   H823    1.043   .     S
N822   H544    1.044   1_565 S
N825   H826    1.044   .     S
N825   H827    1.045   .     S
N825   C495    1.436   1_565 S
N828   H830    1.045   .     S
N828   H829    1.044   .     S
O831   C832    1.398   .     S
O831   N1217   1.346   .     S
C832   H835    1.109   .     S
C832   H1253   1.112   .     S
C832   H1254   1.104   .     S
O836   C837    1.398   .     S
C837   H840    1.109   .     S
H838   C1257   1.104   .     S
H839   C1257   1.112   .     S
C841   O871    1.295   .     A
C841   C845    1.424   .     S
C841   O869    1.295   .     A
C842   O870    1.295   .     A
C842   O872    1.295   .     A
C842   C846    1.424   .     S
C843   N889    1.436   .     S
C843   C860    1.421   .     A
C843   C931    1.408   1_455 S
C844   N892    1.436   .     S
C844   C859    1.421   .     A
C844   C932    1.408   .     S
C845   C1126   1.354   1_545 S
C845   N1175   1.436   1_545 S
C846   C985    1.354   .     S
C846   N1038   1.436   .     S
C847   C852    1.446   .     S
C847   O873    1.298   .     A
C847   O875    1.302   .     A
C848   O874    1.298   .     A
C848   C851    1.446   .     S
C848   O876    1.302   .     A
C849   C851    1.403   .     A
C849   N877    1.436   .     S
C849   C859    1.417   .     A
C850   C852    1.403   .     A
C850   N880    1.436   .     S
C850   C860    1.417   .     A
C851   C853    1.385   .     A
C852   C854    1.385   .     A
C853   H865    1.085   .     S
C853   C855    1.394   .     A
C854   H866    1.085   .     S
C854   C856    1.394   .     A
C855   C861    1.406   .     A
C855   C857    1.416   .     A
C856   C858    1.416   .     A
C856   C862    1.406   .     A
C857   C859    1.427   .     A
C857   C928    1.408   .     S
C858   C860    1.427   .     A
C858   C927    1.408   1_455 S
C861   N883    1.439   .     S
C861   C913    1.408   .     S
C862   N886    1.439   .     S
C862   C914    1.408   1_455 S
Cu863  O872    1.973   .     S
Cu863  N868    2.039   .     S
Cu863  O869    1.988   .     S
Cu863  Cu864   2.713   .     S
Cu863  O876    1.958   .     S
Cu863  O873    1.958   .     S
Cu864  N867    2.039   .     S
Cu864  O871    1.973   .     S
Cu864  O870    1.988   .     S
Cu864  O875    1.958   .     S
Cu864  O874    1.958   .     S
N868   N27     1.291   1_556 S
N868   O66     1.346   1_556 S
N877   H878    1.045   .     S
N877   H879    1.042   .     S
N880   H881    1.045   .     S
N880   H882    1.042   .     S
N883   H884    1.045   .     S
N883   H1165   1.044   1_545 S
H885   N1023   1.044   .     S
N886   H887    1.045   .     S
N886   H1028   1.044   .     S
H888   N1166   1.044   1_545 S
N889   H891    1.043   .     S
N889   H1170   1.044   1_545 S
H890   N1029   1.044   .     S
N892   H893    1.043   .     S
N892   H1034   1.044   .     S
H894   N1172   1.044   1_545 S
N895   H896    1.044   .     S
N895   H897    1.045   .     S
N895   C985    1.436   .     S
N898   H900    1.045   .     S
N898   H899    1.044   .     S
N898   C1126   1.436   1_545 S
O901   C902    1.398   .     S
O901   N27     1.346   1_556 S
C902   H905    1.109   .     S
C902   H63     1.112   1_556 S
C902   H64     1.104   1_556 S
O906   C907    1.398   .     S
C907   H910    1.109   .     S
H908   C67     1.104   1_556 S
H909   C67     1.112   1_556 S
C911   O941    1.295   .     A
C911   C915    1.424   .     S
C911   O939    1.295   .     A
C912   O940    1.295   .     A
C912   O942    1.295   .     A
C912   C916    1.424   .     S
C913   N959    1.436   .     S
C913   C930    1.421   .     A
C914   N962    1.436   .     S
C914   C929    1.421   .     A
C914   C862    1.408   1_655 S
C915   C1196   1.354   1_545 S
C915   N1245   1.436   1_545 S
C916   C1055   1.354   .     S
C916   N1108   1.436   .     S
C917   C922    1.446   .     S
C917   O943    1.298   .     A
C917   O945    1.302   .     A
C918   O944    1.298   .     A
C918   C921    1.446   .     S
C918   O946    1.302   .     A
C919   C921    1.403   .     A
C919   N947    1.436   .     S
C919   C929    1.417   .     A
C920   C922    1.403   .     A
C920   N950    1.436   .     S
C920   C930    1.417   .     A
C921   C923    1.385   .     A
C922   C924    1.385   .     A
C923   H935    1.085   .     S
C923   C925    1.394   .     A
C924   H936    1.085   .     S
C924   C926    1.394   .     A
C925   C931    1.406   .     A
C925   C927    1.416   .     A
C926   C928    1.416   .     A
C926   C932    1.406   .     A
C927   C929    1.427   .     A
C927   C858    1.408   1_655 S
C928   C930    1.427   .     A
C931   N953    1.439   .     S
C931   C843    1.408   1_655 S
C932   N956    1.439   .     S
Cu933  O942    1.973   .     S
Cu933  N938    2.039   .     S
Cu933  O939    1.988   .     S
Cu933  Cu934   2.713   .     S
Cu933  O946    1.958   .     S
Cu933  O943    1.958   .     S
Cu934  N937    2.039   .     S
Cu934  O941    1.973   .     S
Cu934  O940    1.988   .     S
Cu934  O945    1.958   .     S
Cu934  O944    1.958   .     S
N938   N97     1.291   1_556 S
N938   O136    1.346   1_556 S
N947   H948    1.045   .     S
N947   H949    1.042   .     S
N950   H951    1.045   .     S
N950   H952    1.042   .     S
N953   H954    1.045   .     S
N953   H1235   1.044   1_545 S
H955   N1093   1.044   .     S
N956   H957    1.045   .     S
N956   H1098   1.044   .     S
H958   N1236   1.044   1_545 S
N959   H961    1.043   .     S
N959   H1240   1.044   1_545 S
H960   N1099   1.044   .     S
N962   H963    1.043   .     S
N962   H1104   1.044   .     S
H964   N1242   1.044   1_545 S
N965   H966    1.044   .     S
N965   H967    1.045   .     S
N965   C1055   1.436   .     S
N968   H970    1.045   .     S
N968   H969    1.044   .     S
N968   C1196   1.436   1_545 S
O971   C972    1.398   .     S
O971   N97     1.346   1_556 S
C972   H975    1.109   .     S
C972   H133    1.112   1_556 S
C972   H134    1.104   1_556 S
O976   C977    1.398   .     S
C977   H980    1.109   .     S
H978   C137    1.104   1_556 S
H979   C137    1.112   1_556 S
C981   O1011   1.295   .     A
C981   C985    1.424   .     S
C981   O1009   1.295   .     A
C982   O1010   1.295   .     A
C982   O1012   1.295   .     A
C982   C986    1.424   .     S
C983   N1029   1.436   .     S
C983   C1000   1.421   .     A
C983   C1071   1.408   1_455 S
C984   N1032   1.436   .     S
C984   C999    1.421   .     A
C984   C1072   1.408   .     S
C986   C1125   1.354   .     S
C986   N1178   1.436   .     S
C987   C992    1.446   .     S
C987   O1013   1.298   .     A
C987   O1015   1.302   .     A
C988   O1014   1.298   .     A
C988   C991    1.446   .     S
C988   O1016   1.302   .     A
C989   C991    1.403   .     A
C989   N1017   1.436   .     S
C989   C999    1.417   .     A
C990   C992    1.403   .     A
C990   N1020   1.436   .     S
C990   C1000   1.417   .     A
C991   C993    1.385   .     A
C992   C994    1.385   .     A
C993   H1005   1.085   .     S
C993   C995    1.394   .     A
C994   H1006   1.085   .     S
C994   C996    1.394   .     A
C995   C1001   1.406   .     A
C995   C997    1.416   .     A
C996   C998    1.416   .     A
C996   C1002   1.406   .     A
C997   C999    1.427   .     A
C997   C1068   1.408   .     S
C998   C1000   1.427   .     A
C998   C1067   1.408   1_455 S
C1001  N1023   1.439   .     S
C1001  C1053   1.408   .     S
C1002  N1026   1.439   .     S
C1002  C1054   1.408   1_455 S
Cu1003 O1012   1.973   .     S
Cu1003 N1008   2.039   .     S
Cu1003 O1009   1.988   .     S
Cu1003 Cu1004  2.713   .     S
Cu1003 O1016   1.958   .     S
Cu1003 O1013   1.958   .     S
Cu1004 N1007   2.039   .     S
Cu1004 O1011   1.973   .     S
Cu1004 O1010   1.988   .     S
Cu1004 O1015   1.958   .     S
Cu1004 O1014   1.958   .     S
N1008  N167    1.291   1_556 S
N1008  O206    1.346   1_556 S
N1017  H1018   1.045   .     S
N1017  H1019   1.042   .     S
N1020  H1021   1.045   .     S
N1020  H1022   1.042   .     S
N1023  H1024   1.045   .     S
H1025  N1163   1.044   .     S
N1026  H1027   1.045   .     S
N1026  H1168   1.044   .     S
N1029  H1031   1.043   .     S
H1030  N1169   1.044   .     S
N1032  H1033   1.043   .     S
N1032  H1174   1.044   .     S
N1035  H1036   1.044   .     S
N1035  H1037   1.045   .     S
N1035  C1125   1.436   .     S
N1038  H1040   1.045   .     S
N1038  H1039   1.044   .     S
O1041  C1042   1.398   .     S
O1041  N167    1.346   1_556 S
C1042  H1045   1.109   .     S
C1042  H203    1.112   1_556 S
C1042  H204    1.104   1_556 S
O1046  C1047   1.398   .     S
C1047  H1050   1.109   .     S
H1048  C207    1.104   1_556 S
H1049  C207    1.112   1_556 S
C1051  O1081   1.295   .     A
C1051  C1055   1.424   .     S
C1051  O1079   1.295   .     A
C1052  O1080   1.295   .     A
C1052  O1082   1.295   .     A
C1052  C1056   1.424   .     S
C1053  N1099   1.436   .     S
C1053  C1070   1.421   .     A
C1054  N1102   1.436   .     S
C1054  C1069   1.421   .     A
C1054  C1002   1.408   1_655 S
C1056  C1195   1.354   .     S
C1056  N1248   1.436   .     S
C1057  C1062   1.446   .     S
C1057  O1083   1.298   .     A
C1057  O1085   1.302   .     A
C1058  O1084   1.298   .     A
C1058  C1061   1.446   .     S
C1058  O1086   1.302   .     A
C1059  C1061   1.403   .     A
C1059  N1087   1.436   .     S
C1059  C1069   1.417   .     A
C1060  C1062   1.403   .     A
C1060  N1090   1.436   .     S
C1060  C1070   1.417   .     A
C1061  C1063   1.385   .     A
C1062  C1064   1.385   .     A
C1063  H1075   1.085   .     S
C1063  C1065   1.394   .     A
C1064  H1076   1.085   .     S
C1064  C1066   1.394   .     A
C1065  C1071   1.406   .     A
C1065  C1067   1.416   .     A
C1066  C1068   1.416   .     A
C1066  C1072   1.406   .     A
C1067  C1069   1.427   .     A
C1067  C998    1.408   1_655 S
C1068  C1070   1.427   .     A
C1071  N1093   1.439   .     S
C1071  C983    1.408   1_655 S
C1072  N1096   1.439   .     S
Cu1073 O1082   1.973   .     S
Cu1073 N1078   2.039   .     S
Cu1073 O1079   1.988   .     S
Cu1073 Cu1074  2.713   .     S
Cu1073 O1086   1.958   .     S
Cu1073 O1083   1.958   .     S
Cu1074 N1077   2.039   .     S
Cu1074 O1081   1.973   .     S
Cu1074 O1080   1.988   .     S
Cu1074 O1085   1.958   .     S
Cu1074 O1084   1.958   .     S
N1078  N237    1.291   1_556 S
N1078  O276    1.346   1_556 S
N1087  H1088   1.045   .     S
N1087  H1089   1.042   .     S
N1090  H1091   1.045   .     S
N1090  H1092   1.042   .     S
N1093  H1094   1.045   .     S
H1095  N1233   1.044   .     S
N1096  H1097   1.045   .     S
N1096  H1238   1.044   .     S
N1099  H1101   1.043   .     S
H1100  N1239   1.044   .     S
N1102  H1103   1.043   .     S
N1102  H1244   1.044   .     S
N1105  H1106   1.044   .     S
N1105  H1107   1.045   .     S
N1105  C1195   1.436   .     S
N1108  H1110   1.045   .     S
N1108  H1109   1.044   .     S
O1111  C1112   1.398   .     S
O1111  N237    1.346   1_556 S
C1112  H1115   1.109   .     S
C1112  H273    1.112   1_556 S
C1112  H274    1.104   1_556 S
O1116  C1117   1.398   .     S
C1117  H1120   1.109   .     S
H1118  C277    1.104   1_556 S
H1119  C277    1.112   1_556 S
C1121  O1151   1.295   .     A
C1121  C1125   1.424   .     S
C1121  O1149   1.295   .     A
C1122  O1150   1.295   .     A
C1122  O1152   1.295   .     A
C1122  C1126   1.424   .     S
C1123  N1169   1.436   .     S
C1123  C1140   1.421   .     A
C1123  C1211   1.408   1_455 S
C1124  N1172   1.436   .     S
C1124  C1139   1.421   .     A
C1124  C1212   1.408   .     S
C1126  C845    1.354   1_565 S
C1126  N898    1.436   1_565 S
C1127  C1132   1.446   .     S
C1127  O1153   1.298   .     A
C1127  O1155   1.302   .     A
C1128  O1154   1.298   .     A
C1128  C1131   1.446   .     S
C1128  O1156   1.302   .     A
C1129  C1131   1.403   .     A
C1129  N1157   1.436   .     S
C1129  C1139   1.417   .     A
C1130  C1132   1.403   .     A
C1130  N1160   1.436   .     S
C1130  C1140   1.417   .     A
C1131  C1133   1.385   .     A
C1132  C1134   1.385   .     A
C1133  H1145   1.085   .     S
C1133  C1135   1.394   .     A
C1134  H1146   1.085   .     S
C1134  C1136   1.394   .     A
C1135  C1141   1.406   .     A
C1135  C1137   1.416   .     A
C1136  C1138   1.416   .     A
C1136  C1142   1.406   .     A
C1137  C1139   1.427   .     A
C1137  C1208   1.408   .     S
C1138  C1140   1.427   .     A
C1138  C1207   1.408   1_455 S
C1141  N1163   1.439   .     S
C1141  C1193   1.408   .     S
C1142  N1166   1.439   .     S
C1142  C1194   1.408   1_455 S
Cu1143 O1152   1.973   .     S
Cu1143 N1148   2.039   .     S
Cu1143 O1149   1.988   .     S
Cu1143 Cu1144  2.713   .     S
Cu1143 O1156   1.958   .     S
Cu1143 O1153   1.958   .     S
Cu1144 N1147   2.039   .     S
Cu1144 O1151   1.973   .     S
Cu1144 O1150   1.988   .     S
Cu1144 O1155   1.958   .     S
Cu1144 O1154   1.958   .     S
N1148  N307    1.291   1_556 S
N1148  O346    1.346   1_556 S
N1157  H1158   1.045   .     S
N1157  H1159   1.042   .     S
N1160  H1161   1.045   .     S
N1160  H1162   1.042   .     S
N1163  H1164   1.045   .     S
H1165  N883    1.044   1_565 S
N1166  H1167   1.045   .     S
N1166  H888    1.044   1_565 S
N1169  H1171   1.043   .     S
H1170  N889    1.044   1_565 S
N1172  H1173   1.043   .     S
N1172  H894    1.044   1_565 S
N1175  H1176   1.044   .     S
N1175  H1177   1.045   .     S
N1175  C845    1.436   1_565 S
N1178  H1180   1.045   .     S
N1178  H1179   1.044   .     S
O1181  C1182   1.398   .     S
O1181  N307    1.346   1_556 S
C1182  H1185   1.109   .     S
C1182  H343    1.112   1_556 S
C1182  H344    1.104   1_556 S
O1186  C1187   1.398   .     S
C1187  H1190   1.109   .     S
H1188  C347    1.104   1_556 S
H1189  C347    1.112   1_556 S
C1191  O1221   1.295   .     A
C1191  C1195   1.424   .     S
C1191  O1219   1.295   .     A
C1192  O1220   1.295   .     A
C1192  O1222   1.295   .     A
C1192  C1196   1.424   .     S
C1193  N1239   1.436   .     S
C1193  C1210   1.421   .     A
C1194  N1242   1.436   .     S
C1194  C1209   1.421   .     A
C1194  C1142   1.408   1_655 S
C1196  C915    1.354   1_565 S
C1196  N968    1.436   1_565 S
C1197  C1202   1.446   .     S
C1197  O1223   1.298   .     A
C1197  O1225   1.302   .     A
C1198  O1224   1.298   .     A
C1198  C1201   1.446   .     S
C1198  O1226   1.302   .     A
C1199  C1201   1.403   .     A
C1199  N1227   1.436   .     S
C1199  C1209   1.417   .     A
C1200  C1202   1.403   .     A
C1200  N1230   1.436   .     S
C1200  C1210   1.417   .     A
C1201  C1203   1.385   .     A
C1202  C1204   1.385   .     A
C1203  H1215   1.085   .     S
C1203  C1205   1.394   .     A
C1204  H1216   1.085   .     S
C1204  C1206   1.394   .     A
C1205  C1211   1.406   .     A
C1205  C1207   1.416   .     A
C1206  C1208   1.416   .     A
C1206  C1212   1.406   .     A
C1207  C1209   1.427   .     A
C1207  C1138   1.408   1_655 S
C1208  C1210   1.427   .     A
C1211  N1233   1.439   .     S
C1211  C1123   1.408   1_655 S
C1212  N1236   1.439   .     S
Cu1213 O1222   1.973   .     S
Cu1213 N1218   2.039   .     S
Cu1213 O1219   1.988   .     S
Cu1213 Cu1214  2.713   .     S
Cu1213 O1226   1.958   .     S
Cu1213 O1223   1.958   .     S
Cu1214 N1217   2.039   .     S
Cu1214 O1221   1.973   .     S
Cu1214 O1220   1.988   .     S
Cu1214 O1225   1.958   .     S
Cu1214 O1224   1.958   .     S
N1218  N377    1.291   1_556 S
N1218  O416    1.346   1_556 S
N1227  H1228   1.045   .     S
N1227  H1229   1.042   .     S
N1230  H1231   1.045   .     S
N1230  H1232   1.042   .     S
N1233  H1234   1.045   .     S
H1235  N953    1.044   1_565 S
N1236  H1237   1.045   .     S
N1236  H958    1.044   1_565 S
N1239  H1241   1.043   .     S
H1240  N959    1.044   1_565 S
N1242  H1243   1.043   .     S
N1242  H964    1.044   1_565 S
N1245  H1246   1.044   .     S
N1245  H1247   1.045   .     S
N1245  C915    1.436   1_565 S
N1248  H1250   1.045   .     S
N1248  H1249   1.044   .     S
O1251  C1252   1.398   .     S
O1251  N377    1.346   1_556 S
C1252  H1255   1.109   .     S
C1252  H413    1.112   1_556 S
C1252  H414    1.104   1_556 S
O1256  C1257   1.398   .     S
C1257  H1260   1.109   .     S
H1258  C417    1.104   1_556 S
H1259  C417    1.112   1_556 S
