data_str_m2_o1_o10_pcu_sym.101
_audit_creation_date              2020-01-03
_audit_creation_method            'Materials Studio'
_symmetry_space_group_name_H-M    'P1'
_symmetry_Int_Tables_number       1
_symmetry_cell_setting            triclinic
loop_
_symmetry_equiv_pos_as_xyz
  x,y,z
_cell_length_a                    26.0699
_cell_length_b                    32.7252
_cell_length_c                    29.0571
_cell_angle_alpha                 92.6648
_cell_angle_beta                  96.8392
_cell_angle_gamma                 93.5861
loop_
_atom_site_label
_atom_site_type_symbol
_atom_site_fract_x
_atom_site_fract_y
_atom_site_fract_z
_atom_site_U_iso_or_equiv
_atom_site_adp_type
_atom_site_occupancy
C1     C     0.16826   0.08742   0.16599   0.00000  Uiso   1.00
C2     C     0.16422   0.24559   0.16756   0.00000  Uiso   1.00
C3     C     0.06811   0.16438   0.15531   0.00000  Uiso   1.00
C4     C     0.26505   0.17038   0.17781   0.00000  Uiso   1.00
C5     C     0.01297   0.15611   0.15266   0.00000  Uiso   1.00
C6     C     0.31985   0.18006   0.17889   0.00000  Uiso   1.00
C7     C     0.14855   0.01721   0.12614   0.00000  Uiso   1.00
C8     C     0.18169   0.31459   0.20954   0.00000  Uiso   1.00
C9     C     0.13829   0.30845   0.13031   0.00000  Uiso   1.00
C10    C     0.18716   0.02397   0.20738   0.00000  Uiso   1.00
C11    C     0.16075   0.29013   0.16965   0.00000  Uiso   1.00
C12    C     0.17011   0.04233   0.16554   0.00000  Uiso   1.00
C13    C     0.12937   0.14414   0.01896   0.00000  Uiso   1.00
C14    C     0.20508   0.18830   0.31471   0.00000  Uiso   1.00
C15    C     0.12855   0.14509   0.30303   0.00000  Uiso   1.00
C16    C     0.20515   0.18805   0.03068   0.00000  Uiso   1.00
Cu17   Cu    0.16667   0.16667   0.21355   0.00000  Uiso   1.00
Cu18   Cu    0.16667   0.16666   0.11978   0.00000  Uiso   1.00
N19    N     0.16668   0.16668   0.28403   0.00000  Uiso   1.00
N20    N     0.16665   0.16666   0.04931   0.00000  Uiso   1.00
O21    O     0.16666   0.10655   0.20625   0.00000  Uiso   1.00
O22    O     0.16667   0.22678   0.12709   0.00000  Uiso   1.00
O23    O     0.16666   0.10654   0.12706   0.00000  Uiso   1.00
O24    O     0.16667   0.22679   0.20628   0.00000  Uiso   1.00
O25    O     0.09161   0.16667   0.19712   0.00000  Uiso   1.00
O26    O     0.24172   0.16666   0.13621   0.00000  Uiso   1.00
O27    O     0.09161   0.16666   0.11793   0.00000  Uiso   1.00
O28    O     0.24172   0.16667   0.21540   0.00000  Uiso   1.00
I29    I     0.31750   0.09508   0.12972   0.00000  Uiso   1.00
I30    I     0.01407   0.24223   0.19731   0.00000  Uiso   1.00
N31    N     0.13865   0.03369   0.08194   0.00000  Uiso   1.00
H32    H     0.10605   0.02068   0.06179   0.00000  Uiso   1.00
C33    C     0.18308   0.03604   0.05643   0.00000  Uiso   1.00
H34    H     0.17308   0.05146   0.02367   0.00000  Uiso   1.00
H35    H     0.19492   0.00486   0.04784   0.00000  Uiso   1.00
H36    H     0.21606   0.05414   0.07698   0.00000  Uiso   1.00
N37    N     0.19534   0.29635   0.25237   0.00000  Uiso   1.00
H38    H     0.22881   0.30899   0.27159   0.00000  Uiso   1.00
C39    C     0.15292   0.29039   0.27987   0.00000  Uiso   1.00
H40    H     0.14127   0.32025   0.29345   0.00000  Uiso   1.00
H41    H     0.16525   0.27167   0.30943   0.00000  Uiso   1.00
H42    H     0.11888   0.27379   0.25901   0.00000  Uiso   1.00
N43    N     0.09683   0.28644   0.10085   0.00000  Uiso   1.00
H44    H     0.06180   0.29959   0.09997   0.00000  Uiso   1.00
C45    C     0.10707   0.26984   0.05613   0.00000  Uiso   1.00
H46    H     0.08709   0.28682   0.02782   0.00000  Uiso   1.00
H47    H     0.09216   0.23722   0.05159   0.00000  Uiso   1.00
H48    H     0.14889   0.27161   0.05335   0.00000  Uiso   1.00
N49    N     0.20975   0.04857   0.24745   0.00000  Uiso   1.00
H50    H     0.19946   0.03968   0.27878   0.00000  Uiso   1.00
C51    C     0.26446   0.05948   0.24880   0.00000  Uiso   1.00
H52    H     0.28667   0.03158   0.24970   0.00000  Uiso   1.00
H53    H     0.27799   0.07950   0.28035   0.00000  Uiso   1.00
H54    H     0.27170   0.07659   0.21797   0.00000  Uiso   1.00
I55    I     0.07355   0.10316   0.04285   0.00000  Uiso   1.00
I56    I     0.26745   0.22467   0.29292   0.00000  Uiso   1.00
N57    N     0.08843   0.12273   0.27302   0.00000  Uiso   1.00
H58    H     0.08660   0.09154   0.27689   0.00000  Uiso   1.00
C59    C     0.03830   0.14001   0.27020   0.00000  Uiso   1.00
H60    H     0.01879   0.13522   0.30135   0.00000  Uiso   1.00
H61    H     0.01282   0.12461   0.24052   0.00000  Uiso   1.00
H62    H     0.04227   0.17351   0.26588   0.00000  Uiso   1.00
N63    N     0.24935   0.20458   0.06100   0.00000  Uiso   1.00
H64    H     0.28287   0.19054   0.05639   0.00000  Uiso   1.00
C65    C     0.25695   0.24868   0.06978   0.00000  Uiso   1.00
H66    H     0.25174   0.25690   0.10627   0.00000  Uiso   1.00
H67    H     0.23031   0.26526   0.04597   0.00000  Uiso   1.00
H68    H     0.29715   0.25928   0.06476   0.00000  Uiso   1.00
C69    C     0.50160   0.08742   0.16599   0.00000  Uiso   1.00
C70    C     0.49755   0.24559   0.16756   0.00000  Uiso   1.00
C71    C     0.40145   0.16438   0.15531   0.00000  Uiso   1.00
C72    C     0.59838   0.17038   0.17781   0.00000  Uiso   1.00
C73    C     0.34631   0.15611   0.15266   0.00000  Uiso   1.00
C74    C     0.65319   0.18006   0.17889   0.00000  Uiso   1.00
C75    C     0.48189   0.01721   0.12614   0.00000  Uiso   1.00
C76    C     0.51502   0.31459   0.20954   0.00000  Uiso   1.00
C77    C     0.47163   0.30845   0.13031   0.00000  Uiso   1.00
C78    C     0.52049   0.02397   0.20738   0.00000  Uiso   1.00
C79    C     0.49408   0.29013   0.16965   0.00000  Uiso   1.00
C80    C     0.50344   0.04233   0.16554   0.00000  Uiso   1.00
C81    C     0.46270   0.14414   0.01896   0.00000  Uiso   1.00
C82    C     0.53841   0.18830   0.31471   0.00000  Uiso   1.00
C83    C     0.46189   0.14509   0.30303   0.00000  Uiso   1.00
C84    C     0.53848   0.18805   0.03068   0.00000  Uiso   1.00
Cu85   Cu    0.50000   0.16667   0.21355   0.00000  Uiso   1.00
Cu86   Cu    0.50000   0.16666   0.11978   0.00000  Uiso   1.00
N87    N     0.50001   0.16668   0.28403   0.00000  Uiso   1.00
N88    N     0.49999   0.16666   0.04931   0.00000  Uiso   1.00
O89    O     0.50000   0.10655   0.20625   0.00000  Uiso   1.00
O90    O     0.50000   0.22678   0.12709   0.00000  Uiso   1.00
O91    O     0.50000   0.10654   0.12706   0.00000  Uiso   1.00
O92    O     0.50000   0.22679   0.20628   0.00000  Uiso   1.00
O93    O     0.42495   0.16667   0.19712   0.00000  Uiso   1.00
O94    O     0.57505   0.16666   0.13621   0.00000  Uiso   1.00
O95    O     0.42494   0.16666   0.11793   0.00000  Uiso   1.00
O96    O     0.57506   0.16667   0.21540   0.00000  Uiso   1.00
I97    I     0.65084   0.09508   0.12972   0.00000  Uiso   1.00
I98    I     0.34741   0.24223   0.19731   0.00000  Uiso   1.00
N99    N     0.47198   0.03369   0.08194   0.00000  Uiso   1.00
H100   H     0.43938   0.02068   0.06179   0.00000  Uiso   1.00
C101   C     0.51641   0.03604   0.05643   0.00000  Uiso   1.00
H102   H     0.50641   0.05146   0.02367   0.00000  Uiso   1.00
H103   H     0.52825   0.00486   0.04784   0.00000  Uiso   1.00
H104   H     0.54939   0.05414   0.07698   0.00000  Uiso   1.00
N105   N     0.52867   0.29635   0.25237   0.00000  Uiso   1.00
H106   H     0.56215   0.30899   0.27159   0.00000  Uiso   1.00
C107   C     0.48625   0.29039   0.27987   0.00000  Uiso   1.00
H108   H     0.47460   0.32025   0.29345   0.00000  Uiso   1.00
H109   H     0.49859   0.27167   0.30943   0.00000  Uiso   1.00
H110   H     0.45221   0.27379   0.25901   0.00000  Uiso   1.00
N111   N     0.43016   0.28644   0.10085   0.00000  Uiso   1.00
H112   H     0.39513   0.29959   0.09997   0.00000  Uiso   1.00
C113   C     0.44041   0.26984   0.05613   0.00000  Uiso   1.00
H114   H     0.42042   0.28682   0.02782   0.00000  Uiso   1.00
H115   H     0.42550   0.23722   0.05159   0.00000  Uiso   1.00
H116   H     0.48223   0.27161   0.05335   0.00000  Uiso   1.00
N117   N     0.54309   0.04857   0.24745   0.00000  Uiso   1.00
H118   H     0.53280   0.03968   0.27878   0.00000  Uiso   1.00
C119   C     0.59779   0.05948   0.24880   0.00000  Uiso   1.00
H120   H     0.62000   0.03158   0.24970   0.00000  Uiso   1.00
H121   H     0.61132   0.07950   0.28035   0.00000  Uiso   1.00
H122   H     0.60504   0.07659   0.21797   0.00000  Uiso   1.00
I123   I     0.40688   0.10316   0.04285   0.00000  Uiso   1.00
I124   I     0.60079   0.22467   0.29292   0.00000  Uiso   1.00
N125   N     0.42177   0.12273   0.27302   0.00000  Uiso   1.00
H126   H     0.41993   0.09154   0.27689   0.00000  Uiso   1.00
C127   C     0.37164   0.14001   0.27020   0.00000  Uiso   1.00
H128   H     0.35212   0.13522   0.30135   0.00000  Uiso   1.00
H129   H     0.34616   0.12461   0.24052   0.00000  Uiso   1.00
H130   H     0.37560   0.17351   0.26588   0.00000  Uiso   1.00
N131   N     0.58269   0.20458   0.06100   0.00000  Uiso   1.00
H132   H     0.61620   0.19054   0.05639   0.00000  Uiso   1.00
C133   C     0.59029   0.24868   0.06978   0.00000  Uiso   1.00
H134   H     0.58507   0.25690   0.10627   0.00000  Uiso   1.00
H135   H     0.56364   0.26526   0.04597   0.00000  Uiso   1.00
H136   H     0.63049   0.25928   0.06476   0.00000  Uiso   1.00
C137   C     0.83493   0.08742   0.16599   0.00000  Uiso   1.00
C138   C     0.83088   0.24559   0.16756   0.00000  Uiso   1.00
C139   C     0.73478   0.16438   0.15531   0.00000  Uiso   1.00
C140   C     0.93172   0.17038   0.17781   0.00000  Uiso   1.00
C141   C     0.67964   0.15611   0.15266   0.00000  Uiso   1.00
C142   C     0.98652   0.18006   0.17889   0.00000  Uiso   1.00
C143   C     0.81522   0.01721   0.12614   0.00000  Uiso   1.00
C144   C     0.84836   0.31459   0.20954   0.00000  Uiso   1.00
C145   C     0.80496   0.30845   0.13031   0.00000  Uiso   1.00
C146   C     0.85382   0.02397   0.20738   0.00000  Uiso   1.00
C147   C     0.82742   0.29013   0.16965   0.00000  Uiso   1.00
C148   C     0.83678   0.04233   0.16554   0.00000  Uiso   1.00
C149   C     0.79603   0.14414   0.01896   0.00000  Uiso   1.00
C150   C     0.87174   0.18830   0.31471   0.00000  Uiso   1.00
C151   C     0.79522   0.14509   0.30303   0.00000  Uiso   1.00
C152   C     0.87182   0.18805   0.03068   0.00000  Uiso   1.00
Cu153  Cu    0.83333   0.16667   0.21355   0.00000  Uiso   1.00
Cu154  Cu    0.83333   0.16666   0.11978   0.00000  Uiso   1.00
N155   N     0.83335   0.16668   0.28403   0.00000  Uiso   1.00
N156   N     0.83332   0.16666   0.04931   0.00000  Uiso   1.00
O157   O     0.83333   0.10655   0.20625   0.00000  Uiso   1.00
O158   O     0.83334   0.22678   0.12709   0.00000  Uiso   1.00
O159   O     0.83333   0.10654   0.12706   0.00000  Uiso   1.00
O160   O     0.83334   0.22679   0.20628   0.00000  Uiso   1.00
O161   O     0.75828   0.16667   0.19712   0.00000  Uiso   1.00
O162   O     0.90839   0.16666   0.13621   0.00000  Uiso   1.00
O163   O     0.75828   0.16666   0.11793   0.00000  Uiso   1.00
O164   O     0.90839   0.16667   0.21540   0.00000  Uiso   1.00
I165   I     0.98417   0.09508   0.12972   0.00000  Uiso   1.00
I166   I     0.68074   0.24223   0.19731   0.00000  Uiso   1.00
N167   N     0.80532   0.03369   0.08194   0.00000  Uiso   1.00
H168   H     0.77272   0.02068   0.06179   0.00000  Uiso   1.00
C169   C     0.84974   0.03604   0.05643   0.00000  Uiso   1.00
H170   H     0.83974   0.05146   0.02367   0.00000  Uiso   1.00
H171   H     0.86158   0.00486   0.04784   0.00000  Uiso   1.00
H172   H     0.88272   0.05414   0.07698   0.00000  Uiso   1.00
N173   N     0.86201   0.29635   0.25237   0.00000  Uiso   1.00
H174   H     0.89548   0.30899   0.27159   0.00000  Uiso   1.00
C175   C     0.81959   0.29039   0.27987   0.00000  Uiso   1.00
H176   H     0.80794   0.32025   0.29345   0.00000  Uiso   1.00
H177   H     0.83192   0.27167   0.30943   0.00000  Uiso   1.00
H178   H     0.78555   0.27379   0.25901   0.00000  Uiso   1.00
N179   N     0.76350   0.28644   0.10085   0.00000  Uiso   1.00
H180   H     0.72847   0.29959   0.09997   0.00000  Uiso   1.00
C181   C     0.77374   0.26984   0.05613   0.00000  Uiso   1.00
H182   H     0.75376   0.28682   0.02782   0.00000  Uiso   1.00
H183   H     0.75883   0.23722   0.05159   0.00000  Uiso   1.00
H184   H     0.81556   0.27161   0.05335   0.00000  Uiso   1.00
N185   N     0.87642   0.04857   0.24745   0.00000  Uiso   1.00
H186   H     0.86613   0.03968   0.27878   0.00000  Uiso   1.00
C187   C     0.93112   0.05948   0.24880   0.00000  Uiso   1.00
H188   H     0.95333   0.03158   0.24970   0.00000  Uiso   1.00
H189   H     0.94466   0.07950   0.28035   0.00000  Uiso   1.00
H190   H     0.93837   0.07659   0.21797   0.00000  Uiso   1.00
I191   I     0.74021   0.10316   0.04285   0.00000  Uiso   1.00
I192   I     0.93412   0.22467   0.29292   0.00000  Uiso   1.00
N193   N     0.75510   0.12273   0.27302   0.00000  Uiso   1.00
H194   H     0.75326   0.09154   0.27689   0.00000  Uiso   1.00
C195   C     0.70497   0.14001   0.27020   0.00000  Uiso   1.00
H196   H     0.68545   0.13522   0.30135   0.00000  Uiso   1.00
H197   H     0.67949   0.12461   0.24052   0.00000  Uiso   1.00
H198   H     0.70893   0.17351   0.26588   0.00000  Uiso   1.00
N199   N     0.91602   0.20458   0.06100   0.00000  Uiso   1.00
H200   H     0.94954   0.19054   0.05639   0.00000  Uiso   1.00
C201   C     0.92362   0.24868   0.06978   0.00000  Uiso   1.00
H202   H     0.91841   0.25690   0.10627   0.00000  Uiso   1.00
H203   H     0.89697   0.26526   0.04597   0.00000  Uiso   1.00
H204   H     0.96382   0.25928   0.06476   0.00000  Uiso   1.00
C205   C     0.16826   0.42076   0.16599   0.00000  Uiso   1.00
C206   C     0.16422   0.57893   0.16756   0.00000  Uiso   1.00
C207   C     0.06811   0.49771   0.15531   0.00000  Uiso   1.00
C208   C     0.26505   0.50372   0.17781   0.00000  Uiso   1.00
C209   C     0.01297   0.48945   0.15266   0.00000  Uiso   1.00
C210   C     0.31985   0.51339   0.17889   0.00000  Uiso   1.00
C211   C     0.14855   0.35054   0.12614   0.00000  Uiso   1.00
C212   C     0.18169   0.64792   0.20954   0.00000  Uiso   1.00
C213   C     0.13829   0.64178   0.13031   0.00000  Uiso   1.00
C214   C     0.18716   0.35731   0.20738   0.00000  Uiso   1.00
C215   C     0.16075   0.62346   0.16965   0.00000  Uiso   1.00
C216   C     0.17011   0.37567   0.16554   0.00000  Uiso   1.00
C217   C     0.12937   0.47748   0.01896   0.00000  Uiso   1.00
C218   C     0.20508   0.52164   0.31471   0.00000  Uiso   1.00
C219   C     0.12855   0.47843   0.30303   0.00000  Uiso   1.00
C220   C     0.20515   0.52139   0.03068   0.00000  Uiso   1.00
Cu221  Cu    0.16667   0.50001   0.21355   0.00000  Uiso   1.00
Cu222  Cu    0.16667   0.49999   0.11978   0.00000  Uiso   1.00
N223   N     0.16668   0.50001   0.28403   0.00000  Uiso   1.00
N224   N     0.16665   0.49999   0.04931   0.00000  Uiso   1.00
O225   O     0.16666   0.43989   0.20625   0.00000  Uiso   1.00
O226   O     0.16667   0.56011   0.12709   0.00000  Uiso   1.00
O227   O     0.16666   0.43988   0.12706   0.00000  Uiso   1.00
O228   O     0.16667   0.56012   0.20628   0.00000  Uiso   1.00
O229   O     0.09161   0.50000   0.19712   0.00000  Uiso   1.00
O230   O     0.24172   0.50000   0.13621   0.00000  Uiso   1.00
O231   O     0.09161   0.49999   0.11793   0.00000  Uiso   1.00
O232   O     0.24172   0.50001   0.21540   0.00000  Uiso   1.00
I233   I     0.31750   0.42842   0.12972   0.00000  Uiso   1.00
I234   I     0.01407   0.57556   0.19731   0.00000  Uiso   1.00
N235   N     0.13865   0.36702   0.08194   0.00000  Uiso   1.00
H236   H     0.10605   0.35401   0.06179   0.00000  Uiso   1.00
C237   C     0.18308   0.36937   0.05643   0.00000  Uiso   1.00
H238   H     0.17308   0.38480   0.02367   0.00000  Uiso   1.00
H239   H     0.19492   0.33819   0.04784   0.00000  Uiso   1.00
H240   H     0.21606   0.38747   0.07698   0.00000  Uiso   1.00
N241   N     0.19534   0.62968   0.25237   0.00000  Uiso   1.00
H242   H     0.22881   0.64232   0.27159   0.00000  Uiso   1.00
C243   C     0.15292   0.62372   0.27987   0.00000  Uiso   1.00
H244   H     0.14127   0.65358   0.29345   0.00000  Uiso   1.00
H245   H     0.16525   0.60501   0.30943   0.00000  Uiso   1.00
H246   H     0.11888   0.60712   0.25901   0.00000  Uiso   1.00
N247   N     0.09683   0.61977   0.10085   0.00000  Uiso   1.00
H248   H     0.06180   0.63292   0.09997   0.00000  Uiso   1.00
C249   C     0.10707   0.60318   0.05613   0.00000  Uiso   1.00
H250   H     0.08709   0.62015   0.02782   0.00000  Uiso   1.00
H251   H     0.09216   0.57055   0.05159   0.00000  Uiso   1.00
H252   H     0.14889   0.60494   0.05335   0.00000  Uiso   1.00
N253   N     0.20975   0.38191   0.24745   0.00000  Uiso   1.00
H254   H     0.19946   0.37302   0.27878   0.00000  Uiso   1.00
C255   C     0.26446   0.39281   0.24880   0.00000  Uiso   1.00
H256   H     0.28667   0.36491   0.24970   0.00000  Uiso   1.00
H257   H     0.27799   0.41283   0.28035   0.00000  Uiso   1.00
H258   H     0.27170   0.40992   0.21797   0.00000  Uiso   1.00
I259   I     0.07355   0.43649   0.04285   0.00000  Uiso   1.00
I260   I     0.26745   0.55800   0.29292   0.00000  Uiso   1.00
N261   N     0.08843   0.45606   0.27302   0.00000  Uiso   1.00
H262   H     0.08660   0.42487   0.27689   0.00000  Uiso   1.00
C263   C     0.03830   0.47334   0.27020   0.00000  Uiso   1.00
H264   H     0.01879   0.46856   0.30135   0.00000  Uiso   1.00
H265   H     0.01282   0.45794   0.24052   0.00000  Uiso   1.00
H266   H     0.04227   0.50684   0.26588   0.00000  Uiso   1.00
N267   N     0.24935   0.53791   0.06100   0.00000  Uiso   1.00
H268   H     0.28287   0.52387   0.05639   0.00000  Uiso   1.00
C269   C     0.25695   0.58202   0.06978   0.00000  Uiso   1.00
H270   H     0.25174   0.59023   0.10627   0.00000  Uiso   1.00
H271   H     0.23031   0.59859   0.04597   0.00000  Uiso   1.00
H272   H     0.29715   0.59261   0.06476   0.00000  Uiso   1.00
C273   C     0.50160   0.42076   0.16599   0.00000  Uiso   1.00
C274   C     0.49755   0.57893   0.16756   0.00000  Uiso   1.00
C275   C     0.40145   0.49771   0.15531   0.00000  Uiso   1.00
C276   C     0.59838   0.50372   0.17781   0.00000  Uiso   1.00
C277   C     0.34631   0.48945   0.15266   0.00000  Uiso   1.00
C278   C     0.65319   0.51339   0.17889   0.00000  Uiso   1.00
C279   C     0.48189   0.35054   0.12614   0.00000  Uiso   1.00
C280   C     0.51502   0.64792   0.20954   0.00000  Uiso   1.00
C281   C     0.47163   0.64178   0.13031   0.00000  Uiso   1.00
C282   C     0.52049   0.35731   0.20738   0.00000  Uiso   1.00
C283   C     0.49408   0.62346   0.16965   0.00000  Uiso   1.00
C284   C     0.50344   0.37567   0.16554   0.00000  Uiso   1.00
C285   C     0.46270   0.47748   0.01896   0.00000  Uiso   1.00
C286   C     0.53841   0.52164   0.31471   0.00000  Uiso   1.00
C287   C     0.46189   0.47843   0.30303   0.00000  Uiso   1.00
C288   C     0.53848   0.52139   0.03068   0.00000  Uiso   1.00
Cu289  Cu    0.50000   0.50001   0.21355   0.00000  Uiso   1.00
Cu290  Cu    0.50000   0.49999   0.11978   0.00000  Uiso   1.00
N291   N     0.50001   0.50001   0.28403   0.00000  Uiso   1.00
N292   N     0.49999   0.49999   0.04931   0.00000  Uiso   1.00
O293   O     0.50000   0.43989   0.20625   0.00000  Uiso   1.00
O294   O     0.50000   0.56011   0.12709   0.00000  Uiso   1.00
O295   O     0.50000   0.43988   0.12706   0.00000  Uiso   1.00
O296   O     0.50000   0.56012   0.20628   0.00000  Uiso   1.00
O297   O     0.42495   0.50000   0.19712   0.00000  Uiso   1.00
O298   O     0.57505   0.50000   0.13621   0.00000  Uiso   1.00
O299   O     0.42494   0.49999   0.11793   0.00000  Uiso   1.00
O300   O     0.57506   0.50001   0.21540   0.00000  Uiso   1.00
I301   I     0.65084   0.42842   0.12972   0.00000  Uiso   1.00
I302   I     0.34741   0.57556   0.19731   0.00000  Uiso   1.00
N303   N     0.47198   0.36702   0.08194   0.00000  Uiso   1.00
H304   H     0.43938   0.35401   0.06179   0.00000  Uiso   1.00
C305   C     0.51641   0.36937   0.05643   0.00000  Uiso   1.00
H306   H     0.50641   0.38480   0.02367   0.00000  Uiso   1.00
H307   H     0.52825   0.33819   0.04784   0.00000  Uiso   1.00
H308   H     0.54939   0.38747   0.07698   0.00000  Uiso   1.00
N309   N     0.52867   0.62968   0.25237   0.00000  Uiso   1.00
H310   H     0.56215   0.64232   0.27159   0.00000  Uiso   1.00
C311   C     0.48625   0.62372   0.27987   0.00000  Uiso   1.00
H312   H     0.47460   0.65358   0.29345   0.00000  Uiso   1.00
H313   H     0.49859   0.60501   0.30943   0.00000  Uiso   1.00
H314   H     0.45221   0.60712   0.25901   0.00000  Uiso   1.00
N315   N     0.43016   0.61977   0.10085   0.00000  Uiso   1.00
H316   H     0.39513   0.63292   0.09997   0.00000  Uiso   1.00
C317   C     0.44041   0.60318   0.05613   0.00000  Uiso   1.00
H318   H     0.42042   0.62015   0.02782   0.00000  Uiso   1.00
H319   H     0.42550   0.57055   0.05159   0.00000  Uiso   1.00
H320   H     0.48223   0.60494   0.05335   0.00000  Uiso   1.00
N321   N     0.54309   0.38191   0.24745   0.00000  Uiso   1.00
H322   H     0.53280   0.37302   0.27878   0.00000  Uiso   1.00
C323   C     0.59779   0.39281   0.24880   0.00000  Uiso   1.00
H324   H     0.62000   0.36491   0.24970   0.00000  Uiso   1.00
H325   H     0.61132   0.41283   0.28035   0.00000  Uiso   1.00
H326   H     0.60504   0.40992   0.21797   0.00000  Uiso   1.00
I327   I     0.40688   0.43649   0.04285   0.00000  Uiso   1.00
I328   I     0.60079   0.55800   0.29292   0.00000  Uiso   1.00
N329   N     0.42177   0.45606   0.27302   0.00000  Uiso   1.00
H330   H     0.41993   0.42487   0.27689   0.00000  Uiso   1.00
C331   C     0.37164   0.47334   0.27020   0.00000  Uiso   1.00
H332   H     0.35212   0.46856   0.30135   0.00000  Uiso   1.00
H333   H     0.34616   0.45794   0.24052   0.00000  Uiso   1.00
H334   H     0.37560   0.50684   0.26588   0.00000  Uiso   1.00
N335   N     0.58269   0.53791   0.06100   0.00000  Uiso   1.00
H336   H     0.61620   0.52387   0.05639   0.00000  Uiso   1.00
C337   C     0.59029   0.58202   0.06978   0.00000  Uiso   1.00
H338   H     0.58507   0.59023   0.10627   0.00000  Uiso   1.00
H339   H     0.56364   0.59859   0.04597   0.00000  Uiso   1.00
H340   H     0.63049   0.59261   0.06476   0.00000  Uiso   1.00
C341   C     0.83493   0.42076   0.16599   0.00000  Uiso   1.00
C342   C     0.83088   0.57893   0.16756   0.00000  Uiso   1.00
C343   C     0.73478   0.49771   0.15531   0.00000  Uiso   1.00
C344   C     0.93172   0.50372   0.17781   0.00000  Uiso   1.00
C345   C     0.67964   0.48945   0.15266   0.00000  Uiso   1.00
C346   C     0.98652   0.51339   0.17889   0.00000  Uiso   1.00
C347   C     0.81522   0.35054   0.12614   0.00000  Uiso   1.00
C348   C     0.84836   0.64792   0.20954   0.00000  Uiso   1.00
C349   C     0.80496   0.64178   0.13031   0.00000  Uiso   1.00
C350   C     0.85382   0.35731   0.20738   0.00000  Uiso   1.00
C351   C     0.82742   0.62346   0.16965   0.00000  Uiso   1.00
C352   C     0.83678   0.37567   0.16554   0.00000  Uiso   1.00
C353   C     0.79603   0.47748   0.01896   0.00000  Uiso   1.00
C354   C     0.87174   0.52164   0.31471   0.00000  Uiso   1.00
C355   C     0.79522   0.47843   0.30303   0.00000  Uiso   1.00
C356   C     0.87182   0.52139   0.03068   0.00000  Uiso   1.00
Cu357  Cu    0.83333   0.50001   0.21355   0.00000  Uiso   1.00
Cu358  Cu    0.83333   0.49999   0.11978   0.00000  Uiso   1.00
N359   N     0.83335   0.50001   0.28403   0.00000  Uiso   1.00
N360   N     0.83332   0.49999   0.04931   0.00000  Uiso   1.00
O361   O     0.83333   0.43989   0.20625   0.00000  Uiso   1.00
O362   O     0.83334   0.56011   0.12709   0.00000  Uiso   1.00
O363   O     0.83333   0.43988   0.12706   0.00000  Uiso   1.00
O364   O     0.83334   0.56012   0.20628   0.00000  Uiso   1.00
O365   O     0.75828   0.50000   0.19712   0.00000  Uiso   1.00
O366   O     0.90839   0.50000   0.13621   0.00000  Uiso   1.00
O367   O     0.75828   0.49999   0.11793   0.00000  Uiso   1.00
O368   O     0.90839   0.50001   0.21540   0.00000  Uiso   1.00
I369   I     0.98417   0.42842   0.12972   0.00000  Uiso   1.00
I370   I     0.68074   0.57556   0.19731   0.00000  Uiso   1.00
N371   N     0.80532   0.36702   0.08194   0.00000  Uiso   1.00
H372   H     0.77272   0.35401   0.06179   0.00000  Uiso   1.00
C373   C     0.84974   0.36937   0.05643   0.00000  Uiso   1.00
H374   H     0.83974   0.38480   0.02367   0.00000  Uiso   1.00
H375   H     0.86158   0.33819   0.04784   0.00000  Uiso   1.00
H376   H     0.88272   0.38747   0.07698   0.00000  Uiso   1.00
N377   N     0.86201   0.62968   0.25237   0.00000  Uiso   1.00
H378   H     0.89548   0.64232   0.27159   0.00000  Uiso   1.00
C379   C     0.81959   0.62372   0.27987   0.00000  Uiso   1.00
H380   H     0.80794   0.65358   0.29345   0.00000  Uiso   1.00
H381   H     0.83192   0.60501   0.30943   0.00000  Uiso   1.00
H382   H     0.78555   0.60712   0.25901   0.00000  Uiso   1.00
N383   N     0.76350   0.61977   0.10085   0.00000  Uiso   1.00
H384   H     0.72847   0.63292   0.09997   0.00000  Uiso   1.00
C385   C     0.77374   0.60318   0.05613   0.00000  Uiso   1.00
H386   H     0.75376   0.62015   0.02782   0.00000  Uiso   1.00
H387   H     0.75883   0.57055   0.05159   0.00000  Uiso   1.00
H388   H     0.81556   0.60494   0.05335   0.00000  Uiso   1.00
N389   N     0.87642   0.38191   0.24745   0.00000  Uiso   1.00
H390   H     0.86613   0.37302   0.27878   0.00000  Uiso   1.00
C391   C     0.93112   0.39281   0.24880   0.00000  Uiso   1.00
H392   H     0.95333   0.36491   0.24970   0.00000  Uiso   1.00
H393   H     0.94466   0.41283   0.28035   0.00000  Uiso   1.00
H394   H     0.93837   0.40992   0.21797   0.00000  Uiso   1.00
I395   I     0.74021   0.43649   0.04285   0.00000  Uiso   1.00
I396   I     0.93412   0.55800   0.29292   0.00000  Uiso   1.00
N397   N     0.75510   0.45606   0.27302   0.00000  Uiso   1.00
H398   H     0.75326   0.42487   0.27689   0.00000  Uiso   1.00
C399   C     0.70497   0.47334   0.27020   0.00000  Uiso   1.00
H400   H     0.68545   0.46856   0.30135   0.00000  Uiso   1.00
H401   H     0.67949   0.45794   0.24052   0.00000  Uiso   1.00
H402   H     0.70893   0.50684   0.26588   0.00000  Uiso   1.00
N403   N     0.91602   0.53791   0.06100   0.00000  Uiso   1.00
H404   H     0.94954   0.52387   0.05639   0.00000  Uiso   1.00
C405   C     0.92362   0.58202   0.06978   0.00000  Uiso   1.00
H406   H     0.91841   0.59023   0.10627   0.00000  Uiso   1.00
H407   H     0.89697   0.59859   0.04597   0.00000  Uiso   1.00
H408   H     0.96382   0.59261   0.06476   0.00000  Uiso   1.00
C409   C     0.16826   0.75409   0.16599   0.00000  Uiso   1.00
C410   C     0.16422   0.91226   0.16756   0.00000  Uiso   1.00
C411   C     0.06811   0.83104   0.15531   0.00000  Uiso   1.00
C412   C     0.26505   0.83705   0.17781   0.00000  Uiso   1.00
C413   C     0.01297   0.82278   0.15266   0.00000  Uiso   1.00
C414   C     0.31985   0.84672   0.17889   0.00000  Uiso   1.00
C415   C     0.14855   0.68388   0.12614   0.00000  Uiso   1.00
C416   C     0.18169   0.98125   0.20954   0.00000  Uiso   1.00
C417   C     0.13829   0.97511   0.13031   0.00000  Uiso   1.00
C418   C     0.18716   0.69064   0.20738   0.00000  Uiso   1.00
C419   C     0.16075   0.95679   0.16965   0.00000  Uiso   1.00
C420   C     0.17011   0.70900   0.16554   0.00000  Uiso   1.00
C421   C     0.12937   0.81081   0.01896   0.00000  Uiso   1.00
C422   C     0.20508   0.85497   0.31471   0.00000  Uiso   1.00
C423   C     0.12855   0.81176   0.30303   0.00000  Uiso   1.00
C424   C     0.20515   0.85472   0.03068   0.00000  Uiso   1.00
Cu425  Cu    0.16667   0.83334   0.21355   0.00000  Uiso   1.00
Cu426  Cu    0.16667   0.83333   0.11978   0.00000  Uiso   1.00
N427   N     0.16668   0.83334   0.28403   0.00000  Uiso   1.00
N428   N     0.16665   0.83332   0.04931   0.00000  Uiso   1.00
O429   O     0.16666   0.77322   0.20625   0.00000  Uiso   1.00
O430   O     0.16667   0.89345   0.12709   0.00000  Uiso   1.00
O431   O     0.16666   0.77321   0.12706   0.00000  Uiso   1.00
O432   O     0.16667   0.89346   0.20628   0.00000  Uiso   1.00
O433   O     0.09161   0.83334   0.19712   0.00000  Uiso   1.00
O434   O     0.24172   0.83333   0.13621   0.00000  Uiso   1.00
O435   O     0.09161   0.83333   0.11793   0.00000  Uiso   1.00
O436   O     0.24172   0.83334   0.21540   0.00000  Uiso   1.00
I437   I     0.31750   0.76175   0.12972   0.00000  Uiso   1.00
I438   I     0.01407   0.90890   0.19731   0.00000  Uiso   1.00
N439   N     0.13865   0.70035   0.08194   0.00000  Uiso   1.00
H440   H     0.10605   0.68735   0.06179   0.00000  Uiso   1.00
C441   C     0.18308   0.70270   0.05643   0.00000  Uiso   1.00
H442   H     0.17308   0.71813   0.02367   0.00000  Uiso   1.00
H443   H     0.19492   0.67152   0.04784   0.00000  Uiso   1.00
H444   H     0.21606   0.72081   0.07698   0.00000  Uiso   1.00
N445   N     0.19534   0.96302   0.25237   0.00000  Uiso   1.00
H446   H     0.22881   0.97565   0.27159   0.00000  Uiso   1.00
C447   C     0.15292   0.95706   0.27987   0.00000  Uiso   1.00
H448   H     0.14127   0.98692   0.29345   0.00000  Uiso   1.00
H449   H     0.16525   0.93834   0.30943   0.00000  Uiso   1.00
H450   H     0.11888   0.94046   0.25901   0.00000  Uiso   1.00
N451   N     0.09683   0.95311   0.10085   0.00000  Uiso   1.00
H452   H     0.06180   0.96626   0.09997   0.00000  Uiso   1.00
C453   C     0.10707   0.93651   0.05613   0.00000  Uiso   1.00
H454   H     0.08709   0.95348   0.02782   0.00000  Uiso   1.00
H455   H     0.09216   0.90388   0.05159   0.00000  Uiso   1.00
H456   H     0.14889   0.93828   0.05335   0.00000  Uiso   1.00
N457   N     0.20975   0.71524   0.24745   0.00000  Uiso   1.00
H458   H     0.19946   0.70635   0.27878   0.00000  Uiso   1.00
C459   C     0.26446   0.72615   0.24880   0.00000  Uiso   1.00
H460   H     0.28667   0.69825   0.24970   0.00000  Uiso   1.00
H461   H     0.27799   0.74617   0.28035   0.00000  Uiso   1.00
H462   H     0.27170   0.74326   0.21797   0.00000  Uiso   1.00
I463   I     0.07355   0.76982   0.04285   0.00000  Uiso   1.00
I464   I     0.26745   0.89134   0.29292   0.00000  Uiso   1.00
N465   N     0.08843   0.78940   0.27302   0.00000  Uiso   1.00
H466   H     0.08660   0.75820   0.27689   0.00000  Uiso   1.00
C467   C     0.03830   0.80667   0.27020   0.00000  Uiso   1.00
H468   H     0.01879   0.80189   0.30135   0.00000  Uiso   1.00
H469   H     0.01282   0.79128   0.24052   0.00000  Uiso   1.00
H470   H     0.04227   0.84018   0.26588   0.00000  Uiso   1.00
N471   N     0.24935   0.87125   0.06100   0.00000  Uiso   1.00
H472   H     0.28287   0.85721   0.05639   0.00000  Uiso   1.00
C473   C     0.25695   0.91535   0.06978   0.00000  Uiso   1.00
H474   H     0.25174   0.92356   0.10627   0.00000  Uiso   1.00
H475   H     0.23031   0.93192   0.04597   0.00000  Uiso   1.00
H476   H     0.29715   0.92595   0.06476   0.00000  Uiso   1.00
C477   C     0.50160   0.75409   0.16599   0.00000  Uiso   1.00
C478   C     0.49755   0.91226   0.16756   0.00000  Uiso   1.00
C479   C     0.40145   0.83104   0.15531   0.00000  Uiso   1.00
C480   C     0.59838   0.83705   0.17781   0.00000  Uiso   1.00
C481   C     0.34631   0.82278   0.15266   0.00000  Uiso   1.00
C482   C     0.65319   0.84672   0.17889   0.00000  Uiso   1.00
C483   C     0.48189   0.68388   0.12614   0.00000  Uiso   1.00
C484   C     0.51502   0.98125   0.20954   0.00000  Uiso   1.00
C485   C     0.47163   0.97511   0.13031   0.00000  Uiso   1.00
C486   C     0.52049   0.69064   0.20738   0.00000  Uiso   1.00
C487   C     0.49408   0.95679   0.16965   0.00000  Uiso   1.00
C488   C     0.50344   0.70900   0.16554   0.00000  Uiso   1.00
C489   C     0.46270   0.81081   0.01896   0.00000  Uiso   1.00
C490   C     0.53841   0.85497   0.31471   0.00000  Uiso   1.00
C491   C     0.46189   0.81176   0.30303   0.00000  Uiso   1.00
C492   C     0.53848   0.85472   0.03068   0.00000  Uiso   1.00
Cu493  Cu    0.50000   0.83334   0.21355   0.00000  Uiso   1.00
Cu494  Cu    0.50000   0.83333   0.11978   0.00000  Uiso   1.00
N495   N     0.50001   0.83334   0.28403   0.00000  Uiso   1.00
N496   N     0.49999   0.83332   0.04931   0.00000  Uiso   1.00
O497   O     0.50000   0.77322   0.20625   0.00000  Uiso   1.00
O498   O     0.50000   0.89345   0.12709   0.00000  Uiso   1.00
O499   O     0.50000   0.77321   0.12706   0.00000  Uiso   1.00
O500   O     0.50000   0.89346   0.20628   0.00000  Uiso   1.00
O501   O     0.42495   0.83334   0.19712   0.00000  Uiso   1.00
O502   O     0.57505   0.83333   0.13621   0.00000  Uiso   1.00
O503   O     0.42494   0.83333   0.11793   0.00000  Uiso   1.00
O504   O     0.57506   0.83334   0.21540   0.00000  Uiso   1.00
I505   I     0.65084   0.76175   0.12972   0.00000  Uiso   1.00
I506   I     0.34741   0.90890   0.19731   0.00000  Uiso   1.00
N507   N     0.47198   0.70035   0.08194   0.00000  Uiso   1.00
H508   H     0.43938   0.68735   0.06179   0.00000  Uiso   1.00
C509   C     0.51641   0.70270   0.05643   0.00000  Uiso   1.00
H510   H     0.50641   0.71813   0.02367   0.00000  Uiso   1.00
H511   H     0.52825   0.67152   0.04784   0.00000  Uiso   1.00
H512   H     0.54939   0.72081   0.07698   0.00000  Uiso   1.00
N513   N     0.52867   0.96302   0.25237   0.00000  Uiso   1.00
H514   H     0.56215   0.97565   0.27159   0.00000  Uiso   1.00
C515   C     0.48625   0.95706   0.27987   0.00000  Uiso   1.00
H516   H     0.47460   0.98692   0.29345   0.00000  Uiso   1.00
H517   H     0.49859   0.93834   0.30943   0.00000  Uiso   1.00
H518   H     0.45221   0.94046   0.25901   0.00000  Uiso   1.00
N519   N     0.43016   0.95311   0.10085   0.00000  Uiso   1.00
H520   H     0.39513   0.96626   0.09997   0.00000  Uiso   1.00
C521   C     0.44041   0.93651   0.05613   0.00000  Uiso   1.00
H522   H     0.42042   0.95348   0.02782   0.00000  Uiso   1.00
H523   H     0.42550   0.90388   0.05159   0.00000  Uiso   1.00
H524   H     0.48223   0.93828   0.05335   0.00000  Uiso   1.00
N525   N     0.54309   0.71524   0.24745   0.00000  Uiso   1.00
H526   H     0.53280   0.70635   0.27878   0.00000  Uiso   1.00
C527   C     0.59779   0.72615   0.24880   0.00000  Uiso   1.00
H528   H     0.62000   0.69825   0.24970   0.00000  Uiso   1.00
H529   H     0.61132   0.74617   0.28035   0.00000  Uiso   1.00
H530   H     0.60504   0.74326   0.21797   0.00000  Uiso   1.00
I531   I     0.40688   0.76982   0.04285   0.00000  Uiso   1.00
I532   I     0.60079   0.89134   0.29292   0.00000  Uiso   1.00
N533   N     0.42177   0.78940   0.27302   0.00000  Uiso   1.00
H534   H     0.41993   0.75820   0.27689   0.00000  Uiso   1.00
C535   C     0.37164   0.80667   0.27020   0.00000  Uiso   1.00
H536   H     0.35212   0.80189   0.30135   0.00000  Uiso   1.00
H537   H     0.34616   0.79128   0.24052   0.00000  Uiso   1.00
H538   H     0.37560   0.84018   0.26588   0.00000  Uiso   1.00
N539   N     0.58269   0.87125   0.06100   0.00000  Uiso   1.00
H540   H     0.61620   0.85721   0.05639   0.00000  Uiso   1.00
C541   C     0.59029   0.91535   0.06978   0.00000  Uiso   1.00
H542   H     0.58507   0.92356   0.10627   0.00000  Uiso   1.00
H543   H     0.56364   0.93192   0.04597   0.00000  Uiso   1.00
H544   H     0.63049   0.92595   0.06476   0.00000  Uiso   1.00
C545   C     0.83493   0.75409   0.16599   0.00000  Uiso   1.00
C546   C     0.83088   0.91226   0.16756   0.00000  Uiso   1.00
C547   C     0.73478   0.83104   0.15531   0.00000  Uiso   1.00
C548   C     0.93172   0.83705   0.17781   0.00000  Uiso   1.00
C549   C     0.67964   0.82278   0.15266   0.00000  Uiso   1.00
C550   C     0.98652   0.84672   0.17889   0.00000  Uiso   1.00
C551   C     0.81522   0.68388   0.12614   0.00000  Uiso   1.00
C552   C     0.84836   0.98125   0.20954   0.00000  Uiso   1.00
C553   C     0.80496   0.97511   0.13031   0.00000  Uiso   1.00
C554   C     0.85382   0.69064   0.20738   0.00000  Uiso   1.00
C555   C     0.82742   0.95679   0.16965   0.00000  Uiso   1.00
C556   C     0.83678   0.70900   0.16554   0.00000  Uiso   1.00
C557   C     0.79603   0.81081   0.01896   0.00000  Uiso   1.00
C558   C     0.87174   0.85497   0.31471   0.00000  Uiso   1.00
C559   C     0.79522   0.81176   0.30303   0.00000  Uiso   1.00
C560   C     0.87182   0.85472   0.03068   0.00000  Uiso   1.00
Cu561  Cu    0.83333   0.83334   0.21355   0.00000  Uiso   1.00
Cu562  Cu    0.83333   0.83333   0.11978   0.00000  Uiso   1.00
N563   N     0.83335   0.83334   0.28403   0.00000  Uiso   1.00
N564   N     0.83332   0.83332   0.04931   0.00000  Uiso   1.00
O565   O     0.83333   0.77322   0.20625   0.00000  Uiso   1.00
O566   O     0.83334   0.89345   0.12709   0.00000  Uiso   1.00
O567   O     0.83333   0.77321   0.12706   0.00000  Uiso   1.00
O568   O     0.83334   0.89346   0.20628   0.00000  Uiso   1.00
O569   O     0.75828   0.83334   0.19712   0.00000  Uiso   1.00
O570   O     0.90839   0.83333   0.13621   0.00000  Uiso   1.00
O571   O     0.75828   0.83333   0.11793   0.00000  Uiso   1.00
O572   O     0.90839   0.83334   0.21540   0.00000  Uiso   1.00
I573   I     0.98417   0.76175   0.12972   0.00000  Uiso   1.00
I574   I     0.68074   0.90890   0.19731   0.00000  Uiso   1.00
N575   N     0.80532   0.70035   0.08194   0.00000  Uiso   1.00
H576   H     0.77272   0.68735   0.06179   0.00000  Uiso   1.00
C577   C     0.84974   0.70270   0.05643   0.00000  Uiso   1.00
H578   H     0.83974   0.71813   0.02367   0.00000  Uiso   1.00
H579   H     0.86158   0.67152   0.04784   0.00000  Uiso   1.00
H580   H     0.88272   0.72081   0.07698   0.00000  Uiso   1.00
N581   N     0.86201   0.96302   0.25237   0.00000  Uiso   1.00
H582   H     0.89548   0.97565   0.27159   0.00000  Uiso   1.00
C583   C     0.81959   0.95706   0.27987   0.00000  Uiso   1.00
H584   H     0.80794   0.98692   0.29345   0.00000  Uiso   1.00
H585   H     0.83192   0.93834   0.30943   0.00000  Uiso   1.00
H586   H     0.78555   0.94046   0.25901   0.00000  Uiso   1.00
N587   N     0.76350   0.95311   0.10085   0.00000  Uiso   1.00
H588   H     0.72847   0.96626   0.09997   0.00000  Uiso   1.00
C589   C     0.77374   0.93651   0.05613   0.00000  Uiso   1.00
H590   H     0.75376   0.95348   0.02782   0.00000  Uiso   1.00
H591   H     0.75883   0.90388   0.05159   0.00000  Uiso   1.00
H592   H     0.81556   0.93828   0.05335   0.00000  Uiso   1.00
N593   N     0.87642   0.71524   0.24745   0.00000  Uiso   1.00
H594   H     0.86613   0.70635   0.27878   0.00000  Uiso   1.00
C595   C     0.93112   0.72615   0.24880   0.00000  Uiso   1.00
H596   H     0.95333   0.69825   0.24970   0.00000  Uiso   1.00
H597   H     0.94466   0.74617   0.28035   0.00000  Uiso   1.00
H598   H     0.93837   0.74326   0.21797   0.00000  Uiso   1.00
I599   I     0.74021   0.76982   0.04285   0.00000  Uiso   1.00
I600   I     0.93412   0.89134   0.29292   0.00000  Uiso   1.00
N601   N     0.75510   0.78940   0.27302   0.00000  Uiso   1.00
H602   H     0.75326   0.75820   0.27689   0.00000  Uiso   1.00
C603   C     0.70497   0.80667   0.27020   0.00000  Uiso   1.00
H604   H     0.68545   0.80189   0.30135   0.00000  Uiso   1.00
H605   H     0.67949   0.79128   0.24052   0.00000  Uiso   1.00
H606   H     0.70893   0.84018   0.26588   0.00000  Uiso   1.00
N607   N     0.91602   0.87125   0.06100   0.00000  Uiso   1.00
H608   H     0.94954   0.85721   0.05639   0.00000  Uiso   1.00
C609   C     0.92362   0.91535   0.06978   0.00000  Uiso   1.00
H610   H     0.91841   0.92356   0.10627   0.00000  Uiso   1.00
H611   H     0.89697   0.93192   0.04597   0.00000  Uiso   1.00
H612   H     0.96382   0.92595   0.06476   0.00000  Uiso   1.00
C613   C     0.16826   0.08742   0.49932   0.00000  Uiso   1.00
C614   C     0.16422   0.24559   0.50089   0.00000  Uiso   1.00
C615   C     0.06811   0.16438   0.48864   0.00000  Uiso   1.00
C616   C     0.26505   0.17038   0.51114   0.00000  Uiso   1.00
C617   C     0.01297   0.15611   0.48599   0.00000  Uiso   1.00
C618   C     0.31985   0.18006   0.51223   0.00000  Uiso   1.00
C619   C     0.14855   0.01721   0.45948   0.00000  Uiso   1.00
C620   C     0.18169   0.31459   0.54287   0.00000  Uiso   1.00
C621   C     0.13829   0.30845   0.46364   0.00000  Uiso   1.00
C622   C     0.18716   0.02397   0.54072   0.00000  Uiso   1.00
C623   C     0.16075   0.29013   0.50299   0.00000  Uiso   1.00
C624   C     0.17011   0.04233   0.49887   0.00000  Uiso   1.00
C625   C     0.12937   0.14414   0.35229   0.00000  Uiso   1.00
C626   C     0.20508   0.18830   0.64804   0.00000  Uiso   1.00
C627   C     0.12855   0.14509   0.63637   0.00000  Uiso   1.00
C628   C     0.20515   0.18805   0.36402   0.00000  Uiso   1.00
Cu629  Cu    0.16667   0.16667   0.54689   0.00000  Uiso   1.00
Cu630  Cu    0.16667   0.16666   0.45311   0.00000  Uiso   1.00
N631   N     0.16668   0.16668   0.61736   0.00000  Uiso   1.00
N632   N     0.16665   0.16666   0.38264   0.00000  Uiso   1.00
O633   O     0.16666   0.10655   0.53958   0.00000  Uiso   1.00
O634   O     0.16667   0.22678   0.46042   0.00000  Uiso   1.00
O635   O     0.16666   0.10654   0.46039   0.00000  Uiso   1.00
O636   O     0.16667   0.22679   0.53961   0.00000  Uiso   1.00
O637   O     0.09161   0.16667   0.53046   0.00000  Uiso   1.00
O638   O     0.24172   0.16666   0.46954   0.00000  Uiso   1.00
O639   O     0.09161   0.16666   0.45127   0.00000  Uiso   1.00
O640   O     0.24172   0.16667   0.54873   0.00000  Uiso   1.00
I641   I     0.31750   0.09508   0.46305   0.00000  Uiso   1.00
I642   I     0.01407   0.24223   0.53064   0.00000  Uiso   1.00
N643   N     0.13865   0.03369   0.41528   0.00000  Uiso   1.00
H644   H     0.10605   0.02068   0.39512   0.00000  Uiso   1.00
C645   C     0.18308   0.03604   0.38976   0.00000  Uiso   1.00
H646   H     0.17308   0.05146   0.35700   0.00000  Uiso   1.00
H647   H     0.19492   0.00486   0.38117   0.00000  Uiso   1.00
H648   H     0.21606   0.05414   0.41031   0.00000  Uiso   1.00
N649   N     0.19534   0.29635   0.58570   0.00000  Uiso   1.00
H650   H     0.22881   0.30899   0.60492   0.00000  Uiso   1.00
C651   C     0.15292   0.29039   0.61321   0.00000  Uiso   1.00
H652   H     0.14127   0.32025   0.62679   0.00000  Uiso   1.00
H653   H     0.16525   0.27167   0.64276   0.00000  Uiso   1.00
H654   H     0.11888   0.27379   0.59234   0.00000  Uiso   1.00
N655   N     0.09683   0.28644   0.43418   0.00000  Uiso   1.00
H656   H     0.06180   0.29959   0.43331   0.00000  Uiso   1.00
C657   C     0.10707   0.26984   0.38946   0.00000  Uiso   1.00
H658   H     0.08709   0.28682   0.36115   0.00000  Uiso   1.00
H659   H     0.09216   0.23722   0.38493   0.00000  Uiso   1.00
H660   H     0.14889   0.27161   0.38669   0.00000  Uiso   1.00
N661   N     0.20975   0.04857   0.58078   0.00000  Uiso   1.00
H662   H     0.19946   0.03968   0.61211   0.00000  Uiso   1.00
C663   C     0.26446   0.05948   0.58213   0.00000  Uiso   1.00
H664   H     0.28667   0.03158   0.58303   0.00000  Uiso   1.00
H665   H     0.27799   0.07950   0.61368   0.00000  Uiso   1.00
H666   H     0.27170   0.07659   0.55130   0.00000  Uiso   1.00
I667   I     0.07355   0.10316   0.37618   0.00000  Uiso   1.00
I668   I     0.26745   0.22467   0.62625   0.00000  Uiso   1.00
N669   N     0.08843   0.12273   0.60636   0.00000  Uiso   1.00
H670   H     0.08660   0.09154   0.61023   0.00000  Uiso   1.00
C671   C     0.03830   0.14001   0.60353   0.00000  Uiso   1.00
H672   H     0.01879   0.13522   0.63468   0.00000  Uiso   1.00
H673   H     0.01282   0.12461   0.57385   0.00000  Uiso   1.00
H674   H     0.04227   0.17351   0.59921   0.00000  Uiso   1.00
N675   N     0.24935   0.20458   0.39434   0.00000  Uiso   1.00
H676   H     0.28287   0.19054   0.38972   0.00000  Uiso   1.00
C677   C     0.25695   0.24868   0.40311   0.00000  Uiso   1.00
H678   H     0.25174   0.25690   0.43960   0.00000  Uiso   1.00
H679   H     0.23031   0.26526   0.37930   0.00000  Uiso   1.00
H680   H     0.29715   0.25928   0.39809   0.00000  Uiso   1.00
C681   C     0.50160   0.08742   0.49932   0.00000  Uiso   1.00
C682   C     0.49755   0.24559   0.50089   0.00000  Uiso   1.00
C683   C     0.40145   0.16438   0.48864   0.00000  Uiso   1.00
C684   C     0.59838   0.17038   0.51114   0.00000  Uiso   1.00
C685   C     0.34631   0.15611   0.48599   0.00000  Uiso   1.00
C686   C     0.65319   0.18006   0.51223   0.00000  Uiso   1.00
C687   C     0.48189   0.01721   0.45948   0.00000  Uiso   1.00
C688   C     0.51502   0.31459   0.54287   0.00000  Uiso   1.00
C689   C     0.47163   0.30845   0.46364   0.00000  Uiso   1.00
C690   C     0.52049   0.02397   0.54072   0.00000  Uiso   1.00
C691   C     0.49408   0.29013   0.50299   0.00000  Uiso   1.00
C692   C     0.50344   0.04233   0.49887   0.00000  Uiso   1.00
C693   C     0.46270   0.14414   0.35229   0.00000  Uiso   1.00
C694   C     0.53841   0.18830   0.64804   0.00000  Uiso   1.00
C695   C     0.46189   0.14509   0.63637   0.00000  Uiso   1.00
C696   C     0.53848   0.18805   0.36402   0.00000  Uiso   1.00
Cu697  Cu    0.50000   0.16667   0.54689   0.00000  Uiso   1.00
Cu698  Cu    0.50000   0.16666   0.45311   0.00000  Uiso   1.00
N699   N     0.50001   0.16668   0.61736   0.00000  Uiso   1.00
N700   N     0.49999   0.16666   0.38264   0.00000  Uiso   1.00
O701   O     0.50000   0.10655   0.53958   0.00000  Uiso   1.00
O702   O     0.50000   0.22678   0.46042   0.00000  Uiso   1.00
O703   O     0.50000   0.10654   0.46039   0.00000  Uiso   1.00
O704   O     0.50000   0.22679   0.53961   0.00000  Uiso   1.00
O705   O     0.42495   0.16667   0.53046   0.00000  Uiso   1.00
O706   O     0.57505   0.16666   0.46954   0.00000  Uiso   1.00
O707   O     0.42494   0.16666   0.45127   0.00000  Uiso   1.00
O708   O     0.57506   0.16667   0.54873   0.00000  Uiso   1.00
I709   I     0.65084   0.09508   0.46305   0.00000  Uiso   1.00
I710   I     0.34741   0.24223   0.53064   0.00000  Uiso   1.00
N711   N     0.47198   0.03369   0.41528   0.00000  Uiso   1.00
H712   H     0.43938   0.02068   0.39512   0.00000  Uiso   1.00
C713   C     0.51641   0.03604   0.38976   0.00000  Uiso   1.00
H714   H     0.50641   0.05146   0.35700   0.00000  Uiso   1.00
H715   H     0.52825   0.00486   0.38117   0.00000  Uiso   1.00
H716   H     0.54939   0.05414   0.41031   0.00000  Uiso   1.00
N717   N     0.52867   0.29635   0.58570   0.00000  Uiso   1.00
H718   H     0.56215   0.30899   0.60492   0.00000  Uiso   1.00
C719   C     0.48625   0.29039   0.61321   0.00000  Uiso   1.00
H720   H     0.47460   0.32025   0.62679   0.00000  Uiso   1.00
H721   H     0.49859   0.27167   0.64276   0.00000  Uiso   1.00
H722   H     0.45221   0.27379   0.59234   0.00000  Uiso   1.00
N723   N     0.43016   0.28644   0.43418   0.00000  Uiso   1.00
H724   H     0.39513   0.29959   0.43331   0.00000  Uiso   1.00
C725   C     0.44041   0.26984   0.38946   0.00000  Uiso   1.00
H726   H     0.42042   0.28682   0.36115   0.00000  Uiso   1.00
H727   H     0.42550   0.23722   0.38493   0.00000  Uiso   1.00
H728   H     0.48223   0.27161   0.38669   0.00000  Uiso   1.00
N729   N     0.54309   0.04857   0.58078   0.00000  Uiso   1.00
H730   H     0.53280   0.03968   0.61211   0.00000  Uiso   1.00
C731   C     0.59779   0.05948   0.58213   0.00000  Uiso   1.00
H732   H     0.62000   0.03158   0.58303   0.00000  Uiso   1.00
H733   H     0.61132   0.07950   0.61368   0.00000  Uiso   1.00
H734   H     0.60504   0.07659   0.55130   0.00000  Uiso   1.00
I735   I     0.40688   0.10316   0.37618   0.00000  Uiso   1.00
I736   I     0.60079   0.22467   0.62625   0.00000  Uiso   1.00
N737   N     0.42177   0.12273   0.60636   0.00000  Uiso   1.00
H738   H     0.41993   0.09154   0.61023   0.00000  Uiso   1.00
C739   C     0.37164   0.14001   0.60353   0.00000  Uiso   1.00
H740   H     0.35212   0.13522   0.63468   0.00000  Uiso   1.00
H741   H     0.34616   0.12461   0.57385   0.00000  Uiso   1.00
H742   H     0.37560   0.17351   0.59921   0.00000  Uiso   1.00
N743   N     0.58269   0.20458   0.39434   0.00000  Uiso   1.00
H744   H     0.61620   0.19054   0.38972   0.00000  Uiso   1.00
C745   C     0.59029   0.24868   0.40311   0.00000  Uiso   1.00
H746   H     0.58507   0.25690   0.43960   0.00000  Uiso   1.00
H747   H     0.56364   0.26526   0.37930   0.00000  Uiso   1.00
H748   H     0.63049   0.25928   0.39809   0.00000  Uiso   1.00
C749   C     0.83493   0.08742   0.49932   0.00000  Uiso   1.00
C750   C     0.83088   0.24559   0.50089   0.00000  Uiso   1.00
C751   C     0.73478   0.16438   0.48864   0.00000  Uiso   1.00
C752   C     0.93172   0.17038   0.51114   0.00000  Uiso   1.00
C753   C     0.67964   0.15611   0.48599   0.00000  Uiso   1.00
C754   C     0.98652   0.18006   0.51223   0.00000  Uiso   1.00
C755   C     0.81522   0.01721   0.45948   0.00000  Uiso   1.00
C756   C     0.84836   0.31459   0.54287   0.00000  Uiso   1.00
C757   C     0.80496   0.30845   0.46364   0.00000  Uiso   1.00
C758   C     0.85382   0.02397   0.54072   0.00000  Uiso   1.00
C759   C     0.82742   0.29013   0.50299   0.00000  Uiso   1.00
C760   C     0.83678   0.04233   0.49887   0.00000  Uiso   1.00
C761   C     0.79603   0.14414   0.35229   0.00000  Uiso   1.00
C762   C     0.87174   0.18830   0.64804   0.00000  Uiso   1.00
C763   C     0.79522   0.14509   0.63637   0.00000  Uiso   1.00
C764   C     0.87182   0.18805   0.36402   0.00000  Uiso   1.00
Cu765  Cu    0.83333   0.16667   0.54689   0.00000  Uiso   1.00
Cu766  Cu    0.83333   0.16666   0.45311   0.00000  Uiso   1.00
N767   N     0.83335   0.16668   0.61736   0.00000  Uiso   1.00
N768   N     0.83332   0.16666   0.38264   0.00000  Uiso   1.00
O769   O     0.83333   0.10655   0.53958   0.00000  Uiso   1.00
O770   O     0.83334   0.22678   0.46042   0.00000  Uiso   1.00
O771   O     0.83333   0.10654   0.46039   0.00000  Uiso   1.00
O772   O     0.83334   0.22679   0.53961   0.00000  Uiso   1.00
O773   O     0.75828   0.16667   0.53046   0.00000  Uiso   1.00
O774   O     0.90839   0.16666   0.46954   0.00000  Uiso   1.00
O775   O     0.75828   0.16666   0.45127   0.00000  Uiso   1.00
O776   O     0.90839   0.16667   0.54873   0.00000  Uiso   1.00
I777   I     0.98417   0.09508   0.46305   0.00000  Uiso   1.00
I778   I     0.68074   0.24223   0.53064   0.00000  Uiso   1.00
N779   N     0.80532   0.03369   0.41528   0.00000  Uiso   1.00
H780   H     0.77272   0.02068   0.39512   0.00000  Uiso   1.00
C781   C     0.84974   0.03604   0.38976   0.00000  Uiso   1.00
H782   H     0.83974   0.05146   0.35700   0.00000  Uiso   1.00
H783   H     0.86158   0.00486   0.38117   0.00000  Uiso   1.00
H784   H     0.88272   0.05414   0.41031   0.00000  Uiso   1.00
N785   N     0.86201   0.29635   0.58570   0.00000  Uiso   1.00
H786   H     0.89548   0.30899   0.60492   0.00000  Uiso   1.00
C787   C     0.81959   0.29039   0.61321   0.00000  Uiso   1.00
H788   H     0.80794   0.32025   0.62679   0.00000  Uiso   1.00
H789   H     0.83192   0.27167   0.64276   0.00000  Uiso   1.00
H790   H     0.78555   0.27379   0.59234   0.00000  Uiso   1.00
N791   N     0.76350   0.28644   0.43418   0.00000  Uiso   1.00
H792   H     0.72847   0.29959   0.43331   0.00000  Uiso   1.00
C793   C     0.77374   0.26984   0.38946   0.00000  Uiso   1.00
H794   H     0.75376   0.28682   0.36115   0.00000  Uiso   1.00
H795   H     0.75883   0.23722   0.38493   0.00000  Uiso   1.00
H796   H     0.81556   0.27161   0.38669   0.00000  Uiso   1.00
N797   N     0.87642   0.04857   0.58078   0.00000  Uiso   1.00
H798   H     0.86613   0.03968   0.61211   0.00000  Uiso   1.00
C799   C     0.93112   0.05948   0.58213   0.00000  Uiso   1.00
H800   H     0.95333   0.03158   0.58303   0.00000  Uiso   1.00
H801   H     0.94466   0.07950   0.61368   0.00000  Uiso   1.00
H802   H     0.93837   0.07659   0.55130   0.00000  Uiso   1.00
I803   I     0.74021   0.10316   0.37618   0.00000  Uiso   1.00
I804   I     0.93412   0.22467   0.62625   0.00000  Uiso   1.00
N805   N     0.75510   0.12273   0.60636   0.00000  Uiso   1.00
H806   H     0.75326   0.09154   0.61023   0.00000  Uiso   1.00
C807   C     0.70497   0.14001   0.60353   0.00000  Uiso   1.00
H808   H     0.68545   0.13522   0.63468   0.00000  Uiso   1.00
H809   H     0.67949   0.12461   0.57385   0.00000  Uiso   1.00
H810   H     0.70893   0.17351   0.59921   0.00000  Uiso   1.00
N811   N     0.91602   0.20458   0.39434   0.00000  Uiso   1.00
H812   H     0.94954   0.19054   0.38972   0.00000  Uiso   1.00
C813   C     0.92362   0.24868   0.40311   0.00000  Uiso   1.00
H814   H     0.91841   0.25690   0.43960   0.00000  Uiso   1.00
H815   H     0.89697   0.26526   0.37930   0.00000  Uiso   1.00
H816   H     0.96382   0.25928   0.39809   0.00000  Uiso   1.00
C817   C     0.16826   0.42076   0.49932   0.00000  Uiso   1.00
C818   C     0.16422   0.57893   0.50089   0.00000  Uiso   1.00
C819   C     0.06811   0.49771   0.48864   0.00000  Uiso   1.00
C820   C     0.26505   0.50372   0.51114   0.00000  Uiso   1.00
C821   C     0.01297   0.48945   0.48599   0.00000  Uiso   1.00
C822   C     0.31985   0.51339   0.51223   0.00000  Uiso   1.00
C823   C     0.14855   0.35054   0.45948   0.00000  Uiso   1.00
C824   C     0.18169   0.64792   0.54287   0.00000  Uiso   1.00
C825   C     0.13829   0.64178   0.46364   0.00000  Uiso   1.00
C826   C     0.18716   0.35731   0.54072   0.00000  Uiso   1.00
C827   C     0.16075   0.62346   0.50299   0.00000  Uiso   1.00
C828   C     0.17011   0.37567   0.49887   0.00000  Uiso   1.00
C829   C     0.12937   0.47748   0.35229   0.00000  Uiso   1.00
C830   C     0.20508   0.52164   0.64804   0.00000  Uiso   1.00
C831   C     0.12855   0.47843   0.63637   0.00000  Uiso   1.00
C832   C     0.20515   0.52139   0.36402   0.00000  Uiso   1.00
Cu833  Cu    0.16667   0.50001   0.54689   0.00000  Uiso   1.00
Cu834  Cu    0.16667   0.49999   0.45311   0.00000  Uiso   1.00
N835   N     0.16668   0.50001   0.61736   0.00000  Uiso   1.00
N836   N     0.16665   0.49999   0.38264   0.00000  Uiso   1.00
O837   O     0.16666   0.43989   0.53958   0.00000  Uiso   1.00
O838   O     0.16667   0.56011   0.46042   0.00000  Uiso   1.00
O839   O     0.16666   0.43988   0.46039   0.00000  Uiso   1.00
O840   O     0.16667   0.56012   0.53961   0.00000  Uiso   1.00
O841   O     0.09161   0.50000   0.53046   0.00000  Uiso   1.00
O842   O     0.24172   0.50000   0.46954   0.00000  Uiso   1.00
O843   O     0.09161   0.49999   0.45127   0.00000  Uiso   1.00
O844   O     0.24172   0.50001   0.54873   0.00000  Uiso   1.00
I845   I     0.31750   0.42842   0.46305   0.00000  Uiso   1.00
I846   I     0.01407   0.57556   0.53064   0.00000  Uiso   1.00
N847   N     0.13865   0.36702   0.41528   0.00000  Uiso   1.00
H848   H     0.10605   0.35401   0.39512   0.00000  Uiso   1.00
C849   C     0.18308   0.36937   0.38976   0.00000  Uiso   1.00
H850   H     0.17308   0.38480   0.35700   0.00000  Uiso   1.00
H851   H     0.19492   0.33819   0.38117   0.00000  Uiso   1.00
H852   H     0.21606   0.38747   0.41031   0.00000  Uiso   1.00
N853   N     0.19534   0.62968   0.58570   0.00000  Uiso   1.00
H854   H     0.22881   0.64232   0.60492   0.00000  Uiso   1.00
C855   C     0.15292   0.62372   0.61321   0.00000  Uiso   1.00
H856   H     0.14127   0.65358   0.62679   0.00000  Uiso   1.00
H857   H     0.16525   0.60501   0.64276   0.00000  Uiso   1.00
H858   H     0.11888   0.60712   0.59234   0.00000  Uiso   1.00
N859   N     0.09683   0.61977   0.43418   0.00000  Uiso   1.00
H860   H     0.06180   0.63292   0.43331   0.00000  Uiso   1.00
C861   C     0.10707   0.60318   0.38946   0.00000  Uiso   1.00
H862   H     0.08709   0.62015   0.36115   0.00000  Uiso   1.00
H863   H     0.09216   0.57055   0.38493   0.00000  Uiso   1.00
H864   H     0.14889   0.60494   0.38669   0.00000  Uiso   1.00
N865   N     0.20975   0.38191   0.58078   0.00000  Uiso   1.00
H866   H     0.19946   0.37302   0.61211   0.00000  Uiso   1.00
C867   C     0.26446   0.39281   0.58213   0.00000  Uiso   1.00
H868   H     0.28667   0.36491   0.58303   0.00000  Uiso   1.00
H869   H     0.27799   0.41283   0.61368   0.00000  Uiso   1.00
H870   H     0.27170   0.40992   0.55130   0.00000  Uiso   1.00
I871   I     0.07355   0.43649   0.37618   0.00000  Uiso   1.00
I872   I     0.26745   0.55800   0.62625   0.00000  Uiso   1.00
N873   N     0.08843   0.45606   0.60636   0.00000  Uiso   1.00
H874   H     0.08660   0.42487   0.61023   0.00000  Uiso   1.00
C875   C     0.03830   0.47334   0.60353   0.00000  Uiso   1.00
H876   H     0.01879   0.46856   0.63468   0.00000  Uiso   1.00
H877   H     0.01282   0.45794   0.57385   0.00000  Uiso   1.00
H878   H     0.04227   0.50684   0.59921   0.00000  Uiso   1.00
N879   N     0.24935   0.53791   0.39434   0.00000  Uiso   1.00
H880   H     0.28287   0.52387   0.38972   0.00000  Uiso   1.00
C881   C     0.25695   0.58202   0.40311   0.00000  Uiso   1.00
H882   H     0.25174   0.59023   0.43960   0.00000  Uiso   1.00
H883   H     0.23031   0.59859   0.37930   0.00000  Uiso   1.00
H884   H     0.29715   0.59261   0.39809   0.00000  Uiso   1.00
C885   C     0.50160   0.42076   0.49932   0.00000  Uiso   1.00
C886   C     0.49755   0.57893   0.50089   0.00000  Uiso   1.00
C887   C     0.40145   0.49771   0.48864   0.00000  Uiso   1.00
C888   C     0.59838   0.50372   0.51114   0.00000  Uiso   1.00
C889   C     0.34631   0.48945   0.48599   0.00000  Uiso   1.00
C890   C     0.65319   0.51339   0.51223   0.00000  Uiso   1.00
C891   C     0.48189   0.35054   0.45948   0.00000  Uiso   1.00
C892   C     0.51502   0.64792   0.54287   0.00000  Uiso   1.00
C893   C     0.47163   0.64178   0.46364   0.00000  Uiso   1.00
C894   C     0.52049   0.35731   0.54072   0.00000  Uiso   1.00
C895   C     0.49408   0.62346   0.50299   0.00000  Uiso   1.00
C896   C     0.50344   0.37567   0.49887   0.00000  Uiso   1.00
C897   C     0.46270   0.47748   0.35229   0.00000  Uiso   1.00
C898   C     0.53841   0.52164   0.64804   0.00000  Uiso   1.00
C899   C     0.46189   0.47843   0.63637   0.00000  Uiso   1.00
C900   C     0.53848   0.52139   0.36402   0.00000  Uiso   1.00
Cu901  Cu    0.50000   0.50001   0.54689   0.00000  Uiso   1.00
Cu902  Cu    0.50000   0.49999   0.45311   0.00000  Uiso   1.00
N903   N     0.50001   0.50001   0.61736   0.00000  Uiso   1.00
N904   N     0.49999   0.49999   0.38264   0.00000  Uiso   1.00
O905   O     0.50000   0.43989   0.53958   0.00000  Uiso   1.00
O906   O     0.50000   0.56011   0.46042   0.00000  Uiso   1.00
O907   O     0.50000   0.43988   0.46039   0.00000  Uiso   1.00
O908   O     0.50000   0.56012   0.53961   0.00000  Uiso   1.00
O909   O     0.42495   0.50000   0.53046   0.00000  Uiso   1.00
O910   O     0.57505   0.50000   0.46954   0.00000  Uiso   1.00
O911   O     0.42494   0.49999   0.45127   0.00000  Uiso   1.00
O912   O     0.57506   0.50001   0.54873   0.00000  Uiso   1.00
I913   I     0.65084   0.42842   0.46305   0.00000  Uiso   1.00
I914   I     0.34741   0.57556   0.53064   0.00000  Uiso   1.00
N915   N     0.47198   0.36702   0.41528   0.00000  Uiso   1.00
H916   H     0.43938   0.35401   0.39512   0.00000  Uiso   1.00
C917   C     0.51641   0.36937   0.38976   0.00000  Uiso   1.00
H918   H     0.50641   0.38480   0.35700   0.00000  Uiso   1.00
H919   H     0.52825   0.33819   0.38117   0.00000  Uiso   1.00
H920   H     0.54939   0.38747   0.41031   0.00000  Uiso   1.00
N921   N     0.52867   0.62968   0.58570   0.00000  Uiso   1.00
H922   H     0.56215   0.64232   0.60492   0.00000  Uiso   1.00
C923   C     0.48625   0.62372   0.61321   0.00000  Uiso   1.00
H924   H     0.47460   0.65358   0.62679   0.00000  Uiso   1.00
H925   H     0.49859   0.60501   0.64276   0.00000  Uiso   1.00
H926   H     0.45221   0.60712   0.59234   0.00000  Uiso   1.00
N927   N     0.43016   0.61977   0.43418   0.00000  Uiso   1.00
H928   H     0.39513   0.63292   0.43331   0.00000  Uiso   1.00
C929   C     0.44041   0.60318   0.38946   0.00000  Uiso   1.00
H930   H     0.42042   0.62015   0.36115   0.00000  Uiso   1.00
H931   H     0.42550   0.57055   0.38493   0.00000  Uiso   1.00
H932   H     0.48223   0.60494   0.38669   0.00000  Uiso   1.00
N933   N     0.54309   0.38191   0.58078   0.00000  Uiso   1.00
H934   H     0.53280   0.37302   0.61211   0.00000  Uiso   1.00
C935   C     0.59779   0.39281   0.58213   0.00000  Uiso   1.00
H936   H     0.62000   0.36491   0.58303   0.00000  Uiso   1.00
H937   H     0.61132   0.41283   0.61368   0.00000  Uiso   1.00
H938   H     0.60504   0.40992   0.55130   0.00000  Uiso   1.00
I939   I     0.40688   0.43649   0.37618   0.00000  Uiso   1.00
I940   I     0.60079   0.55800   0.62625   0.00000  Uiso   1.00
N941   N     0.42177   0.45606   0.60636   0.00000  Uiso   1.00
H942   H     0.41993   0.42487   0.61023   0.00000  Uiso   1.00
C943   C     0.37164   0.47334   0.60353   0.00000  Uiso   1.00
H944   H     0.35212   0.46856   0.63468   0.00000  Uiso   1.00
H945   H     0.34616   0.45794   0.57385   0.00000  Uiso   1.00
H946   H     0.37560   0.50684   0.59921   0.00000  Uiso   1.00
N947   N     0.58269   0.53791   0.39434   0.00000  Uiso   1.00
H948   H     0.61620   0.52387   0.38972   0.00000  Uiso   1.00
C949   C     0.59029   0.58202   0.40311   0.00000  Uiso   1.00
H950   H     0.58507   0.59023   0.43960   0.00000  Uiso   1.00
H951   H     0.56364   0.59859   0.37930   0.00000  Uiso   1.00
H952   H     0.63049   0.59261   0.39809   0.00000  Uiso   1.00
C953   C     0.83493   0.42076   0.49932   0.00000  Uiso   1.00
C954   C     0.83088   0.57893   0.50089   0.00000  Uiso   1.00
C955   C     0.73478   0.49771   0.48864   0.00000  Uiso   1.00
C956   C     0.93172   0.50372   0.51114   0.00000  Uiso   1.00
C957   C     0.67964   0.48945   0.48599   0.00000  Uiso   1.00
C958   C     0.98652   0.51339   0.51223   0.00000  Uiso   1.00
C959   C     0.81522   0.35054   0.45948   0.00000  Uiso   1.00
C960   C     0.84836   0.64792   0.54287   0.00000  Uiso   1.00
C961   C     0.80496   0.64178   0.46364   0.00000  Uiso   1.00
C962   C     0.85382   0.35731   0.54072   0.00000  Uiso   1.00
C963   C     0.82742   0.62346   0.50299   0.00000  Uiso   1.00
C964   C     0.83678   0.37567   0.49887   0.00000  Uiso   1.00
C965   C     0.79603   0.47748   0.35229   0.00000  Uiso   1.00
C966   C     0.87174   0.52164   0.64804   0.00000  Uiso   1.00
C967   C     0.79522   0.47843   0.63637   0.00000  Uiso   1.00
C968   C     0.87182   0.52139   0.36402   0.00000  Uiso   1.00
Cu969  Cu    0.83333   0.50001   0.54689   0.00000  Uiso   1.00
Cu970  Cu    0.83333   0.49999   0.45311   0.00000  Uiso   1.00
N971   N     0.83335   0.50001   0.61736   0.00000  Uiso   1.00
N972   N     0.83332   0.49999   0.38264   0.00000  Uiso   1.00
O973   O     0.83333   0.43989   0.53958   0.00000  Uiso   1.00
O974   O     0.83334   0.56011   0.46042   0.00000  Uiso   1.00
O975   O     0.83333   0.43988   0.46039   0.00000  Uiso   1.00
O976   O     0.83334   0.56012   0.53961   0.00000  Uiso   1.00
O977   O     0.75828   0.50000   0.53046   0.00000  Uiso   1.00
O978   O     0.90839   0.50000   0.46954   0.00000  Uiso   1.00
O979   O     0.75828   0.49999   0.45127   0.00000  Uiso   1.00
O980   O     0.90839   0.50001   0.54873   0.00000  Uiso   1.00
I981   I     0.98417   0.42842   0.46305   0.00000  Uiso   1.00
I982   I     0.68074   0.57556   0.53064   0.00000  Uiso   1.00
N983   N     0.80532   0.36702   0.41528   0.00000  Uiso   1.00
H984   H     0.77272   0.35401   0.39512   0.00000  Uiso   1.00
C985   C     0.84974   0.36937   0.38976   0.00000  Uiso   1.00
H986   H     0.83974   0.38480   0.35700   0.00000  Uiso   1.00
H987   H     0.86158   0.33819   0.38117   0.00000  Uiso   1.00
H988   H     0.88272   0.38747   0.41031   0.00000  Uiso   1.00
N989   N     0.86201   0.62968   0.58570   0.00000  Uiso   1.00
H990   H     0.89548   0.64232   0.60492   0.00000  Uiso   1.00
C991   C     0.81959   0.62372   0.61321   0.00000  Uiso   1.00
H992   H     0.80794   0.65358   0.62679   0.00000  Uiso   1.00
H993   H     0.83192   0.60501   0.64276   0.00000  Uiso   1.00
H994   H     0.78555   0.60712   0.59234   0.00000  Uiso   1.00
N995   N     0.76350   0.61977   0.43418   0.00000  Uiso   1.00
H996   H     0.72847   0.63292   0.43331   0.00000  Uiso   1.00
C997   C     0.77374   0.60318   0.38946   0.00000  Uiso   1.00
H998   H     0.75376   0.62015   0.36115   0.00000  Uiso   1.00
H999   H     0.75883   0.57055   0.38493   0.00000  Uiso   1.00
H1000  H     0.81556   0.60494   0.38669   0.00000  Uiso   1.00
N1001  N     0.87642   0.38191   0.58078   0.00000  Uiso   1.00
H1002  H     0.86613   0.37302   0.61211   0.00000  Uiso   1.00
C1003  C     0.93112   0.39281   0.58213   0.00000  Uiso   1.00
H1004  H     0.95333   0.36491   0.58303   0.00000  Uiso   1.00
H1005  H     0.94466   0.41283   0.61368   0.00000  Uiso   1.00
H1006  H     0.93837   0.40992   0.55130   0.00000  Uiso   1.00
I1007  I     0.74021   0.43649   0.37618   0.00000  Uiso   1.00
I1008  I     0.93412   0.55800   0.62625   0.00000  Uiso   1.00
N1009  N     0.75510   0.45606   0.60636   0.00000  Uiso   1.00
H1010  H     0.75326   0.42487   0.61023   0.00000  Uiso   1.00
C1011  C     0.70497   0.47334   0.60353   0.00000  Uiso   1.00
H1012  H     0.68545   0.46856   0.63468   0.00000  Uiso   1.00
H1013  H     0.67949   0.45794   0.57385   0.00000  Uiso   1.00
H1014  H     0.70893   0.50684   0.59921   0.00000  Uiso   1.00
N1015  N     0.91602   0.53791   0.39434   0.00000  Uiso   1.00
H1016  H     0.94954   0.52387   0.38972   0.00000  Uiso   1.00
C1017  C     0.92362   0.58202   0.40311   0.00000  Uiso   1.00
H1018  H     0.91841   0.59023   0.43960   0.00000  Uiso   1.00
H1019  H     0.89697   0.59859   0.37930   0.00000  Uiso   1.00
H1020  H     0.96382   0.59261   0.39809   0.00000  Uiso   1.00
C1021  C     0.16826   0.75409   0.49932   0.00000  Uiso   1.00
C1022  C     0.16422   0.91226   0.50089   0.00000  Uiso   1.00
C1023  C     0.06811   0.83104   0.48864   0.00000  Uiso   1.00
C1024  C     0.26505   0.83705   0.51114   0.00000  Uiso   1.00
C1025  C     0.01297   0.82278   0.48599   0.00000  Uiso   1.00
C1026  C     0.31985   0.84672   0.51223   0.00000  Uiso   1.00
C1027  C     0.14855   0.68388   0.45948   0.00000  Uiso   1.00
C1028  C     0.18169   0.98125   0.54287   0.00000  Uiso   1.00
C1029  C     0.13829   0.97511   0.46364   0.00000  Uiso   1.00
C1030  C     0.18716   0.69064   0.54072   0.00000  Uiso   1.00
C1031  C     0.16075   0.95679   0.50299   0.00000  Uiso   1.00
C1032  C     0.17011   0.70900   0.49887   0.00000  Uiso   1.00
C1033  C     0.12937   0.81081   0.35229   0.00000  Uiso   1.00
C1034  C     0.20508   0.85497   0.64804   0.00000  Uiso   1.00
C1035  C     0.12855   0.81176   0.63637   0.00000  Uiso   1.00
C1036  C     0.20515   0.85472   0.36402   0.00000  Uiso   1.00
Cu1037 Cu    0.16667   0.83334   0.54689   0.00000  Uiso   1.00
Cu1038 Cu    0.16667   0.83333   0.45311   0.00000  Uiso   1.00
N1039  N     0.16668   0.83334   0.61736   0.00000  Uiso   1.00
N1040  N     0.16665   0.83332   0.38264   0.00000  Uiso   1.00
O1041  O     0.16666   0.77322   0.53958   0.00000  Uiso   1.00
O1042  O     0.16667   0.89345   0.46042   0.00000  Uiso   1.00
O1043  O     0.16666   0.77321   0.46039   0.00000  Uiso   1.00
O1044  O     0.16667   0.89346   0.53961   0.00000  Uiso   1.00
O1045  O     0.09161   0.83334   0.53046   0.00000  Uiso   1.00
O1046  O     0.24172   0.83333   0.46954   0.00000  Uiso   1.00
O1047  O     0.09161   0.83333   0.45127   0.00000  Uiso   1.00
O1048  O     0.24172   0.83334   0.54873   0.00000  Uiso   1.00
I1049  I     0.31750   0.76175   0.46305   0.00000  Uiso   1.00
I1050  I     0.01407   0.90890   0.53064   0.00000  Uiso   1.00
N1051  N     0.13865   0.70035   0.41528   0.00000  Uiso   1.00
H1052  H     0.10605   0.68735   0.39512   0.00000  Uiso   1.00
C1053  C     0.18308   0.70270   0.38976   0.00000  Uiso   1.00
H1054  H     0.17308   0.71813   0.35700   0.00000  Uiso   1.00
H1055  H     0.19492   0.67152   0.38117   0.00000  Uiso   1.00
H1056  H     0.21606   0.72081   0.41031   0.00000  Uiso   1.00
N1057  N     0.19534   0.96302   0.58570   0.00000  Uiso   1.00
H1058  H     0.22881   0.97565   0.60492   0.00000  Uiso   1.00
C1059  C     0.15292   0.95706   0.61321   0.00000  Uiso   1.00
H1060  H     0.14127   0.98692   0.62679   0.00000  Uiso   1.00
H1061  H     0.16525   0.93834   0.64276   0.00000  Uiso   1.00
H1062  H     0.11888   0.94046   0.59234   0.00000  Uiso   1.00
N1063  N     0.09683   0.95311   0.43418   0.00000  Uiso   1.00
H1064  H     0.06180   0.96626   0.43331   0.00000  Uiso   1.00
C1065  C     0.10707   0.93651   0.38946   0.00000  Uiso   1.00
H1066  H     0.08709   0.95348   0.36115   0.00000  Uiso   1.00
H1067  H     0.09216   0.90388   0.38493   0.00000  Uiso   1.00
H1068  H     0.14889   0.93828   0.38669   0.00000  Uiso   1.00
N1069  N     0.20975   0.71524   0.58078   0.00000  Uiso   1.00
H1070  H     0.19946   0.70635   0.61211   0.00000  Uiso   1.00
C1071  C     0.26446   0.72615   0.58213   0.00000  Uiso   1.00
H1072  H     0.28667   0.69825   0.58303   0.00000  Uiso   1.00
H1073  H     0.27799   0.74617   0.61368   0.00000  Uiso   1.00
H1074  H     0.27170   0.74326   0.55130   0.00000  Uiso   1.00
I1075  I     0.07355   0.76982   0.37618   0.00000  Uiso   1.00
I1076  I     0.26745   0.89134   0.62625   0.00000  Uiso   1.00
N1077  N     0.08843   0.78940   0.60636   0.00000  Uiso   1.00
H1078  H     0.08660   0.75820   0.61023   0.00000  Uiso   1.00
C1079  C     0.03830   0.80667   0.60353   0.00000  Uiso   1.00
H1080  H     0.01879   0.80189   0.63468   0.00000  Uiso   1.00
H1081  H     0.01282   0.79128   0.57385   0.00000  Uiso   1.00
H1082  H     0.04227   0.84018   0.59921   0.00000  Uiso   1.00
N1083  N     0.24935   0.87125   0.39434   0.00000  Uiso   1.00
H1084  H     0.28287   0.85721   0.38972   0.00000  Uiso   1.00
C1085  C     0.25695   0.91535   0.40311   0.00000  Uiso   1.00
H1086  H     0.25174   0.92356   0.43960   0.00000  Uiso   1.00
H1087  H     0.23031   0.93192   0.37930   0.00000  Uiso   1.00
H1088  H     0.29715   0.92595   0.39809   0.00000  Uiso   1.00
C1089  C     0.50160   0.75409   0.49932   0.00000  Uiso   1.00
C1090  C     0.49755   0.91226   0.50089   0.00000  Uiso   1.00
C1091  C     0.40145   0.83104   0.48864   0.00000  Uiso   1.00
C1092  C     0.59838   0.83705   0.51114   0.00000  Uiso   1.00
C1093  C     0.34631   0.82278   0.48599   0.00000  Uiso   1.00
C1094  C     0.65319   0.84672   0.51223   0.00000  Uiso   1.00
C1095  C     0.48189   0.68388   0.45948   0.00000  Uiso   1.00
C1096  C     0.51502   0.98125   0.54287   0.00000  Uiso   1.00
C1097  C     0.47163   0.97511   0.46364   0.00000  Uiso   1.00
C1098  C     0.52049   0.69064   0.54072   0.00000  Uiso   1.00
C1099  C     0.49408   0.95679   0.50299   0.00000  Uiso   1.00
C1100  C     0.50344   0.70900   0.49887   0.00000  Uiso   1.00
C1101  C     0.46270   0.81081   0.35229   0.00000  Uiso   1.00
C1102  C     0.53841   0.85497   0.64804   0.00000  Uiso   1.00
C1103  C     0.46189   0.81176   0.63637   0.00000  Uiso   1.00
C1104  C     0.53848   0.85472   0.36402   0.00000  Uiso   1.00
Cu1105 Cu    0.50000   0.83334   0.54689   0.00000  Uiso   1.00
Cu1106 Cu    0.50000   0.83333   0.45311   0.00000  Uiso   1.00
N1107  N     0.50001   0.83334   0.61736   0.00000  Uiso   1.00
N1108  N     0.49999   0.83332   0.38264   0.00000  Uiso   1.00
O1109  O     0.50000   0.77322   0.53958   0.00000  Uiso   1.00
O1110  O     0.50000   0.89345   0.46042   0.00000  Uiso   1.00
O1111  O     0.50000   0.77321   0.46039   0.00000  Uiso   1.00
O1112  O     0.50000   0.89346   0.53961   0.00000  Uiso   1.00
O1113  O     0.42495   0.83334   0.53046   0.00000  Uiso   1.00
O1114  O     0.57505   0.83333   0.46954   0.00000  Uiso   1.00
O1115  O     0.42494   0.83333   0.45127   0.00000  Uiso   1.00
O1116  O     0.57506   0.83334   0.54873   0.00000  Uiso   1.00
I1117  I     0.65084   0.76175   0.46305   0.00000  Uiso   1.00
I1118  I     0.34741   0.90890   0.53064   0.00000  Uiso   1.00
N1119  N     0.47198   0.70035   0.41528   0.00000  Uiso   1.00
H1120  H     0.43938   0.68735   0.39512   0.00000  Uiso   1.00
C1121  C     0.51641   0.70270   0.38976   0.00000  Uiso   1.00
H1122  H     0.50641   0.71813   0.35700   0.00000  Uiso   1.00
H1123  H     0.52825   0.67152   0.38117   0.00000  Uiso   1.00
H1124  H     0.54939   0.72081   0.41031   0.00000  Uiso   1.00
N1125  N     0.52867   0.96302   0.58570   0.00000  Uiso   1.00
H1126  H     0.56215   0.97565   0.60492   0.00000  Uiso   1.00
C1127  C     0.48625   0.95706   0.61321   0.00000  Uiso   1.00
H1128  H     0.47460   0.98692   0.62679   0.00000  Uiso   1.00
H1129  H     0.49859   0.93834   0.64276   0.00000  Uiso   1.00
H1130  H     0.45221   0.94046   0.59234   0.00000  Uiso   1.00
N1131  N     0.43016   0.95311   0.43418   0.00000  Uiso   1.00
H1132  H     0.39513   0.96626   0.43331   0.00000  Uiso   1.00
C1133  C     0.44041   0.93651   0.38946   0.00000  Uiso   1.00
H1134  H     0.42042   0.95348   0.36115   0.00000  Uiso   1.00
H1135  H     0.42550   0.90388   0.38493   0.00000  Uiso   1.00
H1136  H     0.48223   0.93828   0.38669   0.00000  Uiso   1.00
N1137  N     0.54309   0.71524   0.58078   0.00000  Uiso   1.00
H1138  H     0.53280   0.70635   0.61211   0.00000  Uiso   1.00
C1139  C     0.59779   0.72615   0.58213   0.00000  Uiso   1.00
H1140  H     0.62000   0.69825   0.58303   0.00000  Uiso   1.00
H1141  H     0.61132   0.74617   0.61368   0.00000  Uiso   1.00
H1142  H     0.60504   0.74326   0.55130   0.00000  Uiso   1.00
I1143  I     0.40688   0.76982   0.37618   0.00000  Uiso   1.00
I1144  I     0.60079   0.89134   0.62625   0.00000  Uiso   1.00
N1145  N     0.42177   0.78940   0.60636   0.00000  Uiso   1.00
H1146  H     0.41993   0.75820   0.61023   0.00000  Uiso   1.00
C1147  C     0.37164   0.80667   0.60353   0.00000  Uiso   1.00
H1148  H     0.35212   0.80189   0.63468   0.00000  Uiso   1.00
H1149  H     0.34616   0.79128   0.57385   0.00000  Uiso   1.00
H1150  H     0.37560   0.84018   0.59921   0.00000  Uiso   1.00
N1151  N     0.58269   0.87125   0.39434   0.00000  Uiso   1.00
H1152  H     0.61620   0.85721   0.38972   0.00000  Uiso   1.00
C1153  C     0.59029   0.91535   0.40311   0.00000  Uiso   1.00
H1154  H     0.58507   0.92356   0.43960   0.00000  Uiso   1.00
H1155  H     0.56364   0.93192   0.37930   0.00000  Uiso   1.00
H1156  H     0.63049   0.92595   0.39809   0.00000  Uiso   1.00
C1157  C     0.83493   0.75409   0.49932   0.00000  Uiso   1.00
C1158  C     0.83088   0.91226   0.50089   0.00000  Uiso   1.00
C1159  C     0.73478   0.83104   0.48864   0.00000  Uiso   1.00
C1160  C     0.93172   0.83705   0.51114   0.00000  Uiso   1.00
C1161  C     0.67964   0.82278   0.48599   0.00000  Uiso   1.00
C1162  C     0.98652   0.84672   0.51223   0.00000  Uiso   1.00
C1163  C     0.81522   0.68388   0.45948   0.00000  Uiso   1.00
C1164  C     0.84836   0.98125   0.54287   0.00000  Uiso   1.00
C1165  C     0.80496   0.97511   0.46364   0.00000  Uiso   1.00
C1166  C     0.85382   0.69064   0.54072   0.00000  Uiso   1.00
C1167  C     0.82742   0.95679   0.50299   0.00000  Uiso   1.00
C1168  C     0.83678   0.70900   0.49887   0.00000  Uiso   1.00
C1169  C     0.79603   0.81081   0.35229   0.00000  Uiso   1.00
C1170  C     0.87174   0.85497   0.64804   0.00000  Uiso   1.00
C1171  C     0.79522   0.81176   0.63637   0.00000  Uiso   1.00
C1172  C     0.87182   0.85472   0.36402   0.00000  Uiso   1.00
Cu1173 Cu    0.83333   0.83334   0.54689   0.00000  Uiso   1.00
Cu1174 Cu    0.83333   0.83333   0.45311   0.00000  Uiso   1.00
N1175  N     0.83335   0.83334   0.61736   0.00000  Uiso   1.00
N1176  N     0.83332   0.83332   0.38264   0.00000  Uiso   1.00
O1177  O     0.83333   0.77322   0.53958   0.00000  Uiso   1.00
O1178  O     0.83334   0.89345   0.46042   0.00000  Uiso   1.00
O1179  O     0.83333   0.77321   0.46039   0.00000  Uiso   1.00
O1180  O     0.83334   0.89346   0.53961   0.00000  Uiso   1.00
O1181  O     0.75828   0.83334   0.53046   0.00000  Uiso   1.00
O1182  O     0.90839   0.83333   0.46954   0.00000  Uiso   1.00
O1183  O     0.75828   0.83333   0.45127   0.00000  Uiso   1.00
O1184  O     0.90839   0.83334   0.54873   0.00000  Uiso   1.00
I1185  I     0.98417   0.76175   0.46305   0.00000  Uiso   1.00
I1186  I     0.68074   0.90890   0.53064   0.00000  Uiso   1.00
N1187  N     0.80532   0.70035   0.41528   0.00000  Uiso   1.00
H1188  H     0.77272   0.68735   0.39512   0.00000  Uiso   1.00
C1189  C     0.84974   0.70270   0.38976   0.00000  Uiso   1.00
H1190  H     0.83974   0.71813   0.35700   0.00000  Uiso   1.00
H1191  H     0.86158   0.67152   0.38117   0.00000  Uiso   1.00
H1192  H     0.88272   0.72081   0.41031   0.00000  Uiso   1.00
N1193  N     0.86201   0.96302   0.58570   0.00000  Uiso   1.00
H1194  H     0.89548   0.97565   0.60492   0.00000  Uiso   1.00
C1195  C     0.81959   0.95706   0.61321   0.00000  Uiso   1.00
H1196  H     0.80794   0.98692   0.62679   0.00000  Uiso   1.00
H1197  H     0.83192   0.93834   0.64276   0.00000  Uiso   1.00
H1198  H     0.78555   0.94046   0.59234   0.00000  Uiso   1.00
N1199  N     0.76350   0.95311   0.43418   0.00000  Uiso   1.00
H1200  H     0.72847   0.96626   0.43331   0.00000  Uiso   1.00
C1201  C     0.77374   0.93651   0.38946   0.00000  Uiso   1.00
H1202  H     0.75376   0.95348   0.36115   0.00000  Uiso   1.00
H1203  H     0.75883   0.90388   0.38493   0.00000  Uiso   1.00
H1204  H     0.81556   0.93828   0.38669   0.00000  Uiso   1.00
N1205  N     0.87642   0.71524   0.58078   0.00000  Uiso   1.00
H1206  H     0.86613   0.70635   0.61211   0.00000  Uiso   1.00
C1207  C     0.93112   0.72615   0.58213   0.00000  Uiso   1.00
H1208  H     0.95333   0.69825   0.58303   0.00000  Uiso   1.00
H1209  H     0.94466   0.74617   0.61368   0.00000  Uiso   1.00
H1210  H     0.93837   0.74326   0.55130   0.00000  Uiso   1.00
I1211  I     0.74021   0.76982   0.37618   0.00000  Uiso   1.00
I1212  I     0.93412   0.89134   0.62625   0.00000  Uiso   1.00
N1213  N     0.75510   0.78940   0.60636   0.00000  Uiso   1.00
H1214  H     0.75326   0.75820   0.61023   0.00000  Uiso   1.00
C1215  C     0.70497   0.80667   0.60353   0.00000  Uiso   1.00
H1216  H     0.68545   0.80189   0.63468   0.00000  Uiso   1.00
H1217  H     0.67949   0.79128   0.57385   0.00000  Uiso   1.00
H1218  H     0.70893   0.84018   0.59921   0.00000  Uiso   1.00
N1219  N     0.91602   0.87125   0.39434   0.00000  Uiso   1.00
H1220  H     0.94954   0.85721   0.38972   0.00000  Uiso   1.00
C1221  C     0.92362   0.91535   0.40311   0.00000  Uiso   1.00
H1222  H     0.91841   0.92356   0.43960   0.00000  Uiso   1.00
H1223  H     0.89697   0.93192   0.37930   0.00000  Uiso   1.00
H1224  H     0.96382   0.92595   0.39809   0.00000  Uiso   1.00
C1225  C     0.16826   0.08742   0.83265   0.00000  Uiso   1.00
C1226  C     0.16422   0.24559   0.83422   0.00000  Uiso   1.00
C1227  C     0.06811   0.16438   0.82197   0.00000  Uiso   1.00
C1228  C     0.26505   0.17038   0.84447   0.00000  Uiso   1.00
C1229  C     0.01297   0.15611   0.81932   0.00000  Uiso   1.00
C1230  C     0.31985   0.18006   0.84556   0.00000  Uiso   1.00
C1231  C     0.14855   0.01721   0.79281   0.00000  Uiso   1.00
C1232  C     0.18169   0.31459   0.87621   0.00000  Uiso   1.00
C1233  C     0.13829   0.30845   0.79697   0.00000  Uiso   1.00
C1234  C     0.18716   0.02397   0.87405   0.00000  Uiso   1.00
C1235  C     0.16075   0.29013   0.83632   0.00000  Uiso   1.00
C1236  C     0.17011   0.04233   0.83221   0.00000  Uiso   1.00
C1237  C     0.12937   0.14414   0.68563   0.00000  Uiso   1.00
C1238  C     0.20508   0.18830   0.98137   0.00000  Uiso   1.00
C1239  C     0.12855   0.14509   0.96970   0.00000  Uiso   1.00
C1240  C     0.20515   0.18805   0.69735   0.00000  Uiso   1.00
Cu1241 Cu    0.16667   0.16667   0.88022   0.00000  Uiso   1.00
Cu1242 Cu    0.16667   0.16666   0.78645   0.00000  Uiso   1.00
N1243  N     0.16668   0.16668   0.95069   0.00000  Uiso   1.00
N1244  N     0.16665   0.16666   0.71597   0.00000  Uiso   1.00
O1245  O     0.16666   0.10655   0.87291   0.00000  Uiso   1.00
O1246  O     0.16667   0.22678   0.79375   0.00000  Uiso   1.00
O1247  O     0.16666   0.10654   0.79372   0.00000  Uiso   1.00
O1248  O     0.16667   0.22679   0.87294   0.00000  Uiso   1.00
O1249  O     0.09161   0.16667   0.86379   0.00000  Uiso   1.00
O1250  O     0.24172   0.16666   0.80288   0.00000  Uiso   1.00
O1251  O     0.09161   0.16666   0.78460   0.00000  Uiso   1.00
O1252  O     0.24172   0.16667   0.88207   0.00000  Uiso   1.00
I1253  I     0.31750   0.09508   0.79638   0.00000  Uiso   1.00
I1254  I     0.01407   0.24223   0.86397   0.00000  Uiso   1.00
N1255  N     0.13865   0.03369   0.74861   0.00000  Uiso   1.00
H1256  H     0.10605   0.02068   0.72846   0.00000  Uiso   1.00
C1257  C     0.18308   0.03604   0.72309   0.00000  Uiso   1.00
H1258  H     0.17308   0.05146   0.69034   0.00000  Uiso   1.00
H1259  H     0.19492   0.00486   0.71450   0.00000  Uiso   1.00
H1260  H     0.21606   0.05414   0.74365   0.00000  Uiso   1.00
N1261  N     0.19534   0.29635   0.91904   0.00000  Uiso   1.00
H1262  H     0.22881   0.30899   0.93825   0.00000  Uiso   1.00
C1263  C     0.15292   0.29039   0.94654   0.00000  Uiso   1.00
H1264  H     0.14127   0.32025   0.96012   0.00000  Uiso   1.00
H1265  H     0.16525   0.27167   0.97609   0.00000  Uiso   1.00
H1266  H     0.11888   0.27379   0.92567   0.00000  Uiso   1.00
N1267  N     0.09683   0.28644   0.76751   0.00000  Uiso   1.00
H1268  H     0.06180   0.29959   0.76664   0.00000  Uiso   1.00
C1269  C     0.10707   0.26984   0.72279   0.00000  Uiso   1.00
H1270  H     0.08709   0.28682   0.69449   0.00000  Uiso   1.00
H1271  H     0.09216   0.23722   0.71826   0.00000  Uiso   1.00
H1272  H     0.14889   0.27161   0.72002   0.00000  Uiso   1.00
N1273  N     0.20975   0.04857   0.91412   0.00000  Uiso   1.00
H1274  H     0.19946   0.03968   0.94545   0.00000  Uiso   1.00
C1275  C     0.26446   0.05948   0.91547   0.00000  Uiso   1.00
H1276  H     0.28667   0.03158   0.91637   0.00000  Uiso   1.00
H1277  H     0.27799   0.07950   0.94701   0.00000  Uiso   1.00
H1278  H     0.27170   0.07659   0.88464   0.00000  Uiso   1.00
I1279  I     0.07355   0.10316   0.70951   0.00000  Uiso   1.00
I1280  I     0.26745   0.22467   0.95959   0.00000  Uiso   1.00
N1281  N     0.08843   0.12273   0.93969   0.00000  Uiso   1.00
H1282  H     0.08660   0.09154   0.94356   0.00000  Uiso   1.00
C1283  C     0.03830   0.14001   0.93687   0.00000  Uiso   1.00
H1284  H     0.01879   0.13522   0.96801   0.00000  Uiso   1.00
H1285  H     0.01282   0.12461   0.90719   0.00000  Uiso   1.00
H1286  H     0.04227   0.17351   0.93254   0.00000  Uiso   1.00
N1287  N     0.24935   0.20458   0.72767   0.00000  Uiso   1.00
H1288  H     0.28287   0.19054   0.72305   0.00000  Uiso   1.00
C1289  C     0.25695   0.24868   0.73645   0.00000  Uiso   1.00
H1290  H     0.25174   0.25690   0.77293   0.00000  Uiso   1.00
H1291  H     0.23031   0.26526   0.71263   0.00000  Uiso   1.00
H1292  H     0.29715   0.25928   0.73143   0.00000  Uiso   1.00
C1293  C     0.50160   0.08742   0.83265   0.00000  Uiso   1.00
C1294  C     0.49755   0.24559   0.83422   0.00000  Uiso   1.00
C1295  C     0.40145   0.16438   0.82197   0.00000  Uiso   1.00
C1296  C     0.59838   0.17038   0.84447   0.00000  Uiso   1.00
C1297  C     0.34631   0.15611   0.81932   0.00000  Uiso   1.00
C1298  C     0.65319   0.18006   0.84556   0.00000  Uiso   1.00
C1299  C     0.48189   0.01721   0.79281   0.00000  Uiso   1.00
C1300  C     0.51502   0.31459   0.87621   0.00000  Uiso   1.00
C1301  C     0.47163   0.30845   0.79697   0.00000  Uiso   1.00
C1302  C     0.52049   0.02397   0.87405   0.00000  Uiso   1.00
C1303  C     0.49408   0.29013   0.83632   0.00000  Uiso   1.00
C1304  C     0.50344   0.04233   0.83221   0.00000  Uiso   1.00
C1305  C     0.46270   0.14414   0.68563   0.00000  Uiso   1.00
C1306  C     0.53841   0.18830   0.98137   0.00000  Uiso   1.00
C1307  C     0.46189   0.14509   0.96970   0.00000  Uiso   1.00
C1308  C     0.53848   0.18805   0.69735   0.00000  Uiso   1.00
Cu1309 Cu    0.50000   0.16667   0.88022   0.00000  Uiso   1.00
Cu1310 Cu    0.50000   0.16666   0.78645   0.00000  Uiso   1.00
N1311  N     0.50001   0.16668   0.95069   0.00000  Uiso   1.00
N1312  N     0.49999   0.16666   0.71597   0.00000  Uiso   1.00
O1313  O     0.50000   0.10655   0.87291   0.00000  Uiso   1.00
O1314  O     0.50000   0.22678   0.79375   0.00000  Uiso   1.00
O1315  O     0.50000   0.10654   0.79372   0.00000  Uiso   1.00
O1316  O     0.50000   0.22679   0.87294   0.00000  Uiso   1.00
O1317  O     0.42495   0.16667   0.86379   0.00000  Uiso   1.00
O1318  O     0.57505   0.16666   0.80288   0.00000  Uiso   1.00
O1319  O     0.42494   0.16666   0.78460   0.00000  Uiso   1.00
O1320  O     0.57506   0.16667   0.88207   0.00000  Uiso   1.00
I1321  I     0.65084   0.09508   0.79638   0.00000  Uiso   1.00
I1322  I     0.34741   0.24223   0.86397   0.00000  Uiso   1.00
N1323  N     0.47198   0.03369   0.74861   0.00000  Uiso   1.00
H1324  H     0.43938   0.02068   0.72846   0.00000  Uiso   1.00
C1325  C     0.51641   0.03604   0.72309   0.00000  Uiso   1.00
H1326  H     0.50641   0.05146   0.69034   0.00000  Uiso   1.00
H1327  H     0.52825   0.00486   0.71450   0.00000  Uiso   1.00
H1328  H     0.54939   0.05414   0.74365   0.00000  Uiso   1.00
N1329  N     0.52867   0.29635   0.91904   0.00000  Uiso   1.00
H1330  H     0.56215   0.30899   0.93825   0.00000  Uiso   1.00
C1331  C     0.48625   0.29039   0.94654   0.00000  Uiso   1.00
H1332  H     0.47460   0.32025   0.96012   0.00000  Uiso   1.00
H1333  H     0.49859   0.27167   0.97609   0.00000  Uiso   1.00
H1334  H     0.45221   0.27379   0.92567   0.00000  Uiso   1.00
N1335  N     0.43016   0.28644   0.76751   0.00000  Uiso   1.00
H1336  H     0.39513   0.29959   0.76664   0.00000  Uiso   1.00
C1337  C     0.44041   0.26984   0.72279   0.00000  Uiso   1.00
H1338  H     0.42042   0.28682   0.69449   0.00000  Uiso   1.00
H1339  H     0.42550   0.23722   0.71826   0.00000  Uiso   1.00
H1340  H     0.48223   0.27161   0.72002   0.00000  Uiso   1.00
N1341  N     0.54309   0.04857   0.91412   0.00000  Uiso   1.00
H1342  H     0.53280   0.03968   0.94545   0.00000  Uiso   1.00
C1343  C     0.59779   0.05948   0.91547   0.00000  Uiso   1.00
H1344  H     0.62000   0.03158   0.91637   0.00000  Uiso   1.00
H1345  H     0.61132   0.07950   0.94701   0.00000  Uiso   1.00
H1346  H     0.60504   0.07659   0.88464   0.00000  Uiso   1.00
I1347  I     0.40688   0.10316   0.70951   0.00000  Uiso   1.00
I1348  I     0.60079   0.22467   0.95959   0.00000  Uiso   1.00
N1349  N     0.42177   0.12273   0.93969   0.00000  Uiso   1.00
H1350  H     0.41993   0.09154   0.94356   0.00000  Uiso   1.00
C1351  C     0.37164   0.14001   0.93687   0.00000  Uiso   1.00
H1352  H     0.35212   0.13522   0.96801   0.00000  Uiso   1.00
H1353  H     0.34616   0.12461   0.90719   0.00000  Uiso   1.00
H1354  H     0.37560   0.17351   0.93254   0.00000  Uiso   1.00
N1355  N     0.58269   0.20458   0.72767   0.00000  Uiso   1.00
H1356  H     0.61620   0.19054   0.72305   0.00000  Uiso   1.00
C1357  C     0.59029   0.24868   0.73645   0.00000  Uiso   1.00
H1358  H     0.58507   0.25690   0.77293   0.00000  Uiso   1.00
H1359  H     0.56364   0.26526   0.71263   0.00000  Uiso   1.00
H1360  H     0.63049   0.25928   0.73143   0.00000  Uiso   1.00
C1361  C     0.83493   0.08742   0.83265   0.00000  Uiso   1.00
C1362  C     0.83088   0.24559   0.83422   0.00000  Uiso   1.00
C1363  C     0.73478   0.16438   0.82197   0.00000  Uiso   1.00
C1364  C     0.93172   0.17038   0.84447   0.00000  Uiso   1.00
C1365  C     0.67964   0.15611   0.81932   0.00000  Uiso   1.00
C1366  C     0.98652   0.18006   0.84556   0.00000  Uiso   1.00
C1367  C     0.81522   0.01721   0.79281   0.00000  Uiso   1.00
C1368  C     0.84836   0.31459   0.87621   0.00000  Uiso   1.00
C1369  C     0.80496   0.30845   0.79697   0.00000  Uiso   1.00
C1370  C     0.85382   0.02397   0.87405   0.00000  Uiso   1.00
C1371  C     0.82742   0.29013   0.83632   0.00000  Uiso   1.00
C1372  C     0.83678   0.04233   0.83221   0.00000  Uiso   1.00
C1373  C     0.79603   0.14414   0.68563   0.00000  Uiso   1.00
C1374  C     0.87174   0.18830   0.98137   0.00000  Uiso   1.00
C1375  C     0.79522   0.14509   0.96970   0.00000  Uiso   1.00
C1376  C     0.87182   0.18805   0.69735   0.00000  Uiso   1.00
Cu1377 Cu    0.83333   0.16667   0.88022   0.00000  Uiso   1.00
Cu1378 Cu    0.83333   0.16666   0.78645   0.00000  Uiso   1.00
N1379  N     0.83335   0.16668   0.95069   0.00000  Uiso   1.00
N1380  N     0.83332   0.16666   0.71597   0.00000  Uiso   1.00
O1381  O     0.83333   0.10655   0.87291   0.00000  Uiso   1.00
O1382  O     0.83334   0.22678   0.79375   0.00000  Uiso   1.00
O1383  O     0.83333   0.10654   0.79372   0.00000  Uiso   1.00
O1384  O     0.83334   0.22679   0.87294   0.00000  Uiso   1.00
O1385  O     0.75828   0.16667   0.86379   0.00000  Uiso   1.00
O1386  O     0.90839   0.16666   0.80288   0.00000  Uiso   1.00
O1387  O     0.75828   0.16666   0.78460   0.00000  Uiso   1.00
O1388  O     0.90839   0.16667   0.88207   0.00000  Uiso   1.00
I1389  I     0.98417   0.09508   0.79638   0.00000  Uiso   1.00
I1390  I     0.68074   0.24223   0.86397   0.00000  Uiso   1.00
N1391  N     0.80532   0.03369   0.74861   0.00000  Uiso   1.00
H1392  H     0.77272   0.02068   0.72846   0.00000  Uiso   1.00
C1393  C     0.84974   0.03604   0.72309   0.00000  Uiso   1.00
H1394  H     0.83974   0.05146   0.69034   0.00000  Uiso   1.00
H1395  H     0.86158   0.00486   0.71450   0.00000  Uiso   1.00
H1396  H     0.88272   0.05414   0.74365   0.00000  Uiso   1.00
N1397  N     0.86201   0.29635   0.91904   0.00000  Uiso   1.00
H1398  H     0.89548   0.30899   0.93825   0.00000  Uiso   1.00
C1399  C     0.81959   0.29039   0.94654   0.00000  Uiso   1.00
H1400  H     0.80794   0.32025   0.96012   0.00000  Uiso   1.00
H1401  H     0.83192   0.27167   0.97609   0.00000  Uiso   1.00
H1402  H     0.78555   0.27379   0.92567   0.00000  Uiso   1.00
N1403  N     0.76350   0.28644   0.76751   0.00000  Uiso   1.00
H1404  H     0.72847   0.29959   0.76664   0.00000  Uiso   1.00
C1405  C     0.77374   0.26984   0.72279   0.00000  Uiso   1.00
H1406  H     0.75376   0.28682   0.69449   0.00000  Uiso   1.00
H1407  H     0.75883   0.23722   0.71826   0.00000  Uiso   1.00
H1408  H     0.81556   0.27161   0.72002   0.00000  Uiso   1.00
N1409  N     0.87642   0.04857   0.91412   0.00000  Uiso   1.00
H1410  H     0.86613   0.03968   0.94545   0.00000  Uiso   1.00
C1411  C     0.93112   0.05948   0.91547   0.00000  Uiso   1.00
H1412  H     0.95333   0.03158   0.91637   0.00000  Uiso   1.00
H1413  H     0.94466   0.07950   0.94701   0.00000  Uiso   1.00
H1414  H     0.93837   0.07659   0.88464   0.00000  Uiso   1.00
I1415  I     0.74021   0.10316   0.70951   0.00000  Uiso   1.00
I1416  I     0.93412   0.22467   0.95959   0.00000  Uiso   1.00
N1417  N     0.75510   0.12273   0.93969   0.00000  Uiso   1.00
H1418  H     0.75326   0.09154   0.94356   0.00000  Uiso   1.00
C1419  C     0.70497   0.14001   0.93687   0.00000  Uiso   1.00
H1420  H     0.68545   0.13522   0.96801   0.00000  Uiso   1.00
H1421  H     0.67949   0.12461   0.90719   0.00000  Uiso   1.00
H1422  H     0.70893   0.17351   0.93254   0.00000  Uiso   1.00
N1423  N     0.91602   0.20458   0.72767   0.00000  Uiso   1.00
H1424  H     0.94954   0.19054   0.72305   0.00000  Uiso   1.00
C1425  C     0.92362   0.24868   0.73645   0.00000  Uiso   1.00
H1426  H     0.91841   0.25690   0.77293   0.00000  Uiso   1.00
H1427  H     0.89697   0.26526   0.71263   0.00000  Uiso   1.00
H1428  H     0.96382   0.25928   0.73143   0.00000  Uiso   1.00
C1429  C     0.16826   0.42076   0.83265   0.00000  Uiso   1.00
C1430  C     0.16422   0.57893   0.83422   0.00000  Uiso   1.00
C1431  C     0.06811   0.49771   0.82197   0.00000  Uiso   1.00
C1432  C     0.26505   0.50372   0.84447   0.00000  Uiso   1.00
C1433  C     0.01297   0.48945   0.81932   0.00000  Uiso   1.00
C1434  C     0.31985   0.51339   0.84556   0.00000  Uiso   1.00
C1435  C     0.14855   0.35054   0.79281   0.00000  Uiso   1.00
C1436  C     0.18169   0.64792   0.87621   0.00000  Uiso   1.00
C1437  C     0.13829   0.64178   0.79697   0.00000  Uiso   1.00
C1438  C     0.18716   0.35731   0.87405   0.00000  Uiso   1.00
C1439  C     0.16075   0.62346   0.83632   0.00000  Uiso   1.00
C1440  C     0.17011   0.37567   0.83221   0.00000  Uiso   1.00
C1441  C     0.12937   0.47748   0.68563   0.00000  Uiso   1.00
C1442  C     0.20508   0.52164   0.98137   0.00000  Uiso   1.00
C1443  C     0.12855   0.47843   0.96970   0.00000  Uiso   1.00
C1444  C     0.20515   0.52139   0.69735   0.00000  Uiso   1.00
Cu1445 Cu    0.16667   0.50001   0.88022   0.00000  Uiso   1.00
Cu1446 Cu    0.16667   0.49999   0.78645   0.00000  Uiso   1.00
N1447  N     0.16668   0.50001   0.95069   0.00000  Uiso   1.00
N1448  N     0.16665   0.49999   0.71597   0.00000  Uiso   1.00
O1449  O     0.16666   0.43989   0.87291   0.00000  Uiso   1.00
O1450  O     0.16667   0.56011   0.79375   0.00000  Uiso   1.00
O1451  O     0.16666   0.43988   0.79372   0.00000  Uiso   1.00
O1452  O     0.16667   0.56012   0.87294   0.00000  Uiso   1.00
O1453  O     0.09161   0.50000   0.86379   0.00000  Uiso   1.00
O1454  O     0.24172   0.50000   0.80288   0.00000  Uiso   1.00
O1455  O     0.09161   0.49999   0.78460   0.00000  Uiso   1.00
O1456  O     0.24172   0.50001   0.88207   0.00000  Uiso   1.00
I1457  I     0.31750   0.42842   0.79638   0.00000  Uiso   1.00
I1458  I     0.01407   0.57556   0.86397   0.00000  Uiso   1.00
N1459  N     0.13865   0.36702   0.74861   0.00000  Uiso   1.00
H1460  H     0.10605   0.35401   0.72846   0.00000  Uiso   1.00
C1461  C     0.18308   0.36937   0.72309   0.00000  Uiso   1.00
H1462  H     0.17308   0.38480   0.69034   0.00000  Uiso   1.00
H1463  H     0.19492   0.33819   0.71450   0.00000  Uiso   1.00
H1464  H     0.21606   0.38747   0.74365   0.00000  Uiso   1.00
N1465  N     0.19534   0.62968   0.91904   0.00000  Uiso   1.00
H1466  H     0.22881   0.64232   0.93825   0.00000  Uiso   1.00
C1467  C     0.15292   0.62372   0.94654   0.00000  Uiso   1.00
H1468  H     0.14127   0.65358   0.96012   0.00000  Uiso   1.00
H1469  H     0.16525   0.60501   0.97609   0.00000  Uiso   1.00
H1470  H     0.11888   0.60712   0.92567   0.00000  Uiso   1.00
N1471  N     0.09683   0.61977   0.76751   0.00000  Uiso   1.00
H1472  H     0.06180   0.63292   0.76664   0.00000  Uiso   1.00
C1473  C     0.10707   0.60318   0.72279   0.00000  Uiso   1.00
H1474  H     0.08709   0.62015   0.69449   0.00000  Uiso   1.00
H1475  H     0.09216   0.57055   0.71826   0.00000  Uiso   1.00
H1476  H     0.14889   0.60494   0.72002   0.00000  Uiso   1.00
N1477  N     0.20975   0.38191   0.91412   0.00000  Uiso   1.00
H1478  H     0.19946   0.37302   0.94545   0.00000  Uiso   1.00
C1479  C     0.26446   0.39281   0.91547   0.00000  Uiso   1.00
H1480  H     0.28667   0.36491   0.91637   0.00000  Uiso   1.00
H1481  H     0.27799   0.41283   0.94701   0.00000  Uiso   1.00
H1482  H     0.27170   0.40992   0.88464   0.00000  Uiso   1.00
I1483  I     0.07355   0.43649   0.70951   0.00000  Uiso   1.00
I1484  I     0.26745   0.55800   0.95959   0.00000  Uiso   1.00
N1485  N     0.08843   0.45606   0.93969   0.00000  Uiso   1.00
H1486  H     0.08660   0.42487   0.94356   0.00000  Uiso   1.00
C1487  C     0.03830   0.47334   0.93687   0.00000  Uiso   1.00
H1488  H     0.01879   0.46856   0.96801   0.00000  Uiso   1.00
H1489  H     0.01282   0.45794   0.90719   0.00000  Uiso   1.00
H1490  H     0.04227   0.50684   0.93254   0.00000  Uiso   1.00
N1491  N     0.24935   0.53791   0.72767   0.00000  Uiso   1.00
H1492  H     0.28287   0.52387   0.72305   0.00000  Uiso   1.00
C1493  C     0.25695   0.58202   0.73645   0.00000  Uiso   1.00
H1494  H     0.25174   0.59023   0.77293   0.00000  Uiso   1.00
H1495  H     0.23031   0.59859   0.71263   0.00000  Uiso   1.00
H1496  H     0.29715   0.59261   0.73143   0.00000  Uiso   1.00
C1497  C     0.50160   0.42076   0.83265   0.00000  Uiso   1.00
C1498  C     0.49755   0.57893   0.83422   0.00000  Uiso   1.00
C1499  C     0.40145   0.49771   0.82197   0.00000  Uiso   1.00
C1500  C     0.59838   0.50372   0.84447   0.00000  Uiso   1.00
C1501  C     0.34631   0.48945   0.81932   0.00000  Uiso   1.00
C1502  C     0.65319   0.51339   0.84556   0.00000  Uiso   1.00
C1503  C     0.48189   0.35054   0.79281   0.00000  Uiso   1.00
C1504  C     0.51502   0.64792   0.87621   0.00000  Uiso   1.00
C1505  C     0.47163   0.64178   0.79697   0.00000  Uiso   1.00
C1506  C     0.52049   0.35731   0.87405   0.00000  Uiso   1.00
C1507  C     0.49408   0.62346   0.83632   0.00000  Uiso   1.00
C1508  C     0.50344   0.37567   0.83221   0.00000  Uiso   1.00
C1509  C     0.46270   0.47748   0.68563   0.00000  Uiso   1.00
C1510  C     0.53841   0.52164   0.98137   0.00000  Uiso   1.00
C1511  C     0.46189   0.47843   0.96970   0.00000  Uiso   1.00
C1512  C     0.53848   0.52139   0.69735   0.00000  Uiso   1.00
Cu1513 Cu    0.50000   0.50001   0.88022   0.00000  Uiso   1.00
Cu1514 Cu    0.50000   0.49999   0.78645   0.00000  Uiso   1.00
N1515  N     0.50001   0.50001   0.95069   0.00000  Uiso   1.00
N1516  N     0.49999   0.49999   0.71597   0.00000  Uiso   1.00
O1517  O     0.50000   0.43989   0.87291   0.00000  Uiso   1.00
O1518  O     0.50000   0.56011   0.79375   0.00000  Uiso   1.00
O1519  O     0.50000   0.43988   0.79372   0.00000  Uiso   1.00
O1520  O     0.50000   0.56012   0.87294   0.00000  Uiso   1.00
O1521  O     0.42495   0.50000   0.86379   0.00000  Uiso   1.00
O1522  O     0.57505   0.50000   0.80288   0.00000  Uiso   1.00
O1523  O     0.42494   0.49999   0.78460   0.00000  Uiso   1.00
O1524  O     0.57506   0.50001   0.88207   0.00000  Uiso   1.00
I1525  I     0.65084   0.42842   0.79638   0.00000  Uiso   1.00
I1526  I     0.34741   0.57556   0.86397   0.00000  Uiso   1.00
N1527  N     0.47198   0.36702   0.74861   0.00000  Uiso   1.00
H1528  H     0.43938   0.35401   0.72846   0.00000  Uiso   1.00
C1529  C     0.51641   0.36937   0.72309   0.00000  Uiso   1.00
H1530  H     0.50641   0.38480   0.69034   0.00000  Uiso   1.00
H1531  H     0.52825   0.33819   0.71450   0.00000  Uiso   1.00
H1532  H     0.54939   0.38747   0.74365   0.00000  Uiso   1.00
N1533  N     0.52867   0.62968   0.91904   0.00000  Uiso   1.00
H1534  H     0.56215   0.64232   0.93825   0.00000  Uiso   1.00
C1535  C     0.48625   0.62372   0.94654   0.00000  Uiso   1.00
H1536  H     0.47460   0.65358   0.96012   0.00000  Uiso   1.00
H1537  H     0.49859   0.60501   0.97609   0.00000  Uiso   1.00
H1538  H     0.45221   0.60712   0.92567   0.00000  Uiso   1.00
N1539  N     0.43016   0.61977   0.76751   0.00000  Uiso   1.00
H1540  H     0.39513   0.63292   0.76664   0.00000  Uiso   1.00
C1541  C     0.44041   0.60318   0.72279   0.00000  Uiso   1.00
H1542  H     0.42042   0.62015   0.69449   0.00000  Uiso   1.00
H1543  H     0.42550   0.57055   0.71826   0.00000  Uiso   1.00
H1544  H     0.48223   0.60494   0.72002   0.00000  Uiso   1.00
N1545  N     0.54309   0.38191   0.91412   0.00000  Uiso   1.00
H1546  H     0.53280   0.37302   0.94545   0.00000  Uiso   1.00
C1547  C     0.59779   0.39281   0.91547   0.00000  Uiso   1.00
H1548  H     0.62000   0.36491   0.91637   0.00000  Uiso   1.00
H1549  H     0.61132   0.41283   0.94701   0.00000  Uiso   1.00
H1550  H     0.60504   0.40992   0.88464   0.00000  Uiso   1.00
I1551  I     0.40688   0.43649   0.70951   0.00000  Uiso   1.00
I1552  I     0.60079   0.55800   0.95959   0.00000  Uiso   1.00
N1553  N     0.42177   0.45606   0.93969   0.00000  Uiso   1.00
H1554  H     0.41993   0.42487   0.94356   0.00000  Uiso   1.00
C1555  C     0.37164   0.47334   0.93687   0.00000  Uiso   1.00
H1556  H     0.35212   0.46856   0.96801   0.00000  Uiso   1.00
H1557  H     0.34616   0.45794   0.90719   0.00000  Uiso   1.00
H1558  H     0.37560   0.50684   0.93254   0.00000  Uiso   1.00
N1559  N     0.58269   0.53791   0.72767   0.00000  Uiso   1.00
H1560  H     0.61620   0.52387   0.72305   0.00000  Uiso   1.00
C1561  C     0.59029   0.58202   0.73645   0.00000  Uiso   1.00
H1562  H     0.58507   0.59023   0.77293   0.00000  Uiso   1.00
H1563  H     0.56364   0.59859   0.71263   0.00000  Uiso   1.00
H1564  H     0.63049   0.59261   0.73143   0.00000  Uiso   1.00
C1565  C     0.83493   0.42076   0.83265   0.00000  Uiso   1.00
C1566  C     0.83088   0.57893   0.83422   0.00000  Uiso   1.00
C1567  C     0.73478   0.49771   0.82197   0.00000  Uiso   1.00
C1568  C     0.93172   0.50372   0.84447   0.00000  Uiso   1.00
C1569  C     0.67964   0.48945   0.81932   0.00000  Uiso   1.00
C1570  C     0.98652   0.51339   0.84556   0.00000  Uiso   1.00
C1571  C     0.81522   0.35054   0.79281   0.00000  Uiso   1.00
C1572  C     0.84836   0.64792   0.87621   0.00000  Uiso   1.00
C1573  C     0.80496   0.64178   0.79697   0.00000  Uiso   1.00
C1574  C     0.85382   0.35731   0.87405   0.00000  Uiso   1.00
C1575  C     0.82742   0.62346   0.83632   0.00000  Uiso   1.00
C1576  C     0.83678   0.37567   0.83221   0.00000  Uiso   1.00
C1577  C     0.79603   0.47748   0.68563   0.00000  Uiso   1.00
C1578  C     0.87174   0.52164   0.98137   0.00000  Uiso   1.00
C1579  C     0.79522   0.47843   0.96970   0.00000  Uiso   1.00
C1580  C     0.87182   0.52139   0.69735   0.00000  Uiso   1.00
Cu1581 Cu    0.83333   0.50001   0.88022   0.00000  Uiso   1.00
Cu1582 Cu    0.83333   0.49999   0.78645   0.00000  Uiso   1.00
N1583  N     0.83335   0.50001   0.95069   0.00000  Uiso   1.00
N1584  N     0.83332   0.49999   0.71597   0.00000  Uiso   1.00
O1585  O     0.83333   0.43989   0.87291   0.00000  Uiso   1.00
O1586  O     0.83334   0.56011   0.79375   0.00000  Uiso   1.00
O1587  O     0.83333   0.43988   0.79372   0.00000  Uiso   1.00
O1588  O     0.83334   0.56012   0.87294   0.00000  Uiso   1.00
O1589  O     0.75828   0.50000   0.86379   0.00000  Uiso   1.00
O1590  O     0.90839   0.50000   0.80288   0.00000  Uiso   1.00
O1591  O     0.75828   0.49999   0.78460   0.00000  Uiso   1.00
O1592  O     0.90839   0.50001   0.88207   0.00000  Uiso   1.00
I1593  I     0.98417   0.42842   0.79638   0.00000  Uiso   1.00
I1594  I     0.68074   0.57556   0.86397   0.00000  Uiso   1.00
N1595  N     0.80532   0.36702   0.74861   0.00000  Uiso   1.00
H1596  H     0.77272   0.35401   0.72846   0.00000  Uiso   1.00
C1597  C     0.84974   0.36937   0.72309   0.00000  Uiso   1.00
H1598  H     0.83974   0.38480   0.69034   0.00000  Uiso   1.00
H1599  H     0.86158   0.33819   0.71450   0.00000  Uiso   1.00
H1600  H     0.88272   0.38747   0.74365   0.00000  Uiso   1.00
N1601  N     0.86201   0.62968   0.91904   0.00000  Uiso   1.00
H1602  H     0.89548   0.64232   0.93825   0.00000  Uiso   1.00
C1603  C     0.81959   0.62372   0.94654   0.00000  Uiso   1.00
H1604  H     0.80794   0.65358   0.96012   0.00000  Uiso   1.00
H1605  H     0.83192   0.60501   0.97609   0.00000  Uiso   1.00
H1606  H     0.78555   0.60712   0.92567   0.00000  Uiso   1.00
N1607  N     0.76350   0.61977   0.76751   0.00000  Uiso   1.00
H1608  H     0.72847   0.63292   0.76664   0.00000  Uiso   1.00
C1609  C     0.77374   0.60318   0.72279   0.00000  Uiso   1.00
H1610  H     0.75376   0.62015   0.69449   0.00000  Uiso   1.00
H1611  H     0.75883   0.57055   0.71826   0.00000  Uiso   1.00
H1612  H     0.81556   0.60494   0.72002   0.00000  Uiso   1.00
N1613  N     0.87642   0.38191   0.91412   0.00000  Uiso   1.00
H1614  H     0.86613   0.37302   0.94545   0.00000  Uiso   1.00
C1615  C     0.93112   0.39281   0.91547   0.00000  Uiso   1.00
H1616  H     0.95333   0.36491   0.91637   0.00000  Uiso   1.00
H1617  H     0.94466   0.41283   0.94701   0.00000  Uiso   1.00
H1618  H     0.93837   0.40992   0.88464   0.00000  Uiso   1.00
I1619  I     0.74021   0.43649   0.70951   0.00000  Uiso   1.00
I1620  I     0.93412   0.55800   0.95959   0.00000  Uiso   1.00
N1621  N     0.75510   0.45606   0.93969   0.00000  Uiso   1.00
H1622  H     0.75326   0.42487   0.94356   0.00000  Uiso   1.00
C1623  C     0.70497   0.47334   0.93687   0.00000  Uiso   1.00
H1624  H     0.68545   0.46856   0.96801   0.00000  Uiso   1.00
H1625  H     0.67949   0.45794   0.90719   0.00000  Uiso   1.00
H1626  H     0.70893   0.50684   0.93254   0.00000  Uiso   1.00
N1627  N     0.91602   0.53791   0.72767   0.00000  Uiso   1.00
H1628  H     0.94954   0.52387   0.72305   0.00000  Uiso   1.00
C1629  C     0.92362   0.58202   0.73645   0.00000  Uiso   1.00
H1630  H     0.91841   0.59023   0.77293   0.00000  Uiso   1.00
H1631  H     0.89697   0.59859   0.71263   0.00000  Uiso   1.00
H1632  H     0.96382   0.59261   0.73143   0.00000  Uiso   1.00
C1633  C     0.16826   0.75409   0.83265   0.00000  Uiso   1.00
C1634  C     0.16422   0.91226   0.83422   0.00000  Uiso   1.00
C1635  C     0.06811   0.83104   0.82197   0.00000  Uiso   1.00
C1636  C     0.26505   0.83705   0.84447   0.00000  Uiso   1.00
C1637  C     0.01297   0.82278   0.81932   0.00000  Uiso   1.00
C1638  C     0.31985   0.84672   0.84556   0.00000  Uiso   1.00
C1639  C     0.14855   0.68388   0.79281   0.00000  Uiso   1.00
C1640  C     0.18169   0.98125   0.87621   0.00000  Uiso   1.00
C1641  C     0.13829   0.97511   0.79697   0.00000  Uiso   1.00
C1642  C     0.18716   0.69064   0.87405   0.00000  Uiso   1.00
C1643  C     0.16075   0.95679   0.83632   0.00000  Uiso   1.00
C1644  C     0.17011   0.70900   0.83221   0.00000  Uiso   1.00
C1645  C     0.12937   0.81081   0.68563   0.00000  Uiso   1.00
C1646  C     0.20508   0.85497   0.98137   0.00000  Uiso   1.00
C1647  C     0.12855   0.81176   0.96970   0.00000  Uiso   1.00
C1648  C     0.20515   0.85472   0.69735   0.00000  Uiso   1.00
Cu1649 Cu    0.16667   0.83334   0.88022   0.00000  Uiso   1.00
Cu1650 Cu    0.16667   0.83333   0.78645   0.00000  Uiso   1.00
N1651  N     0.16668   0.83334   0.95069   0.00000  Uiso   1.00
N1652  N     0.16665   0.83332   0.71597   0.00000  Uiso   1.00
O1653  O     0.16666   0.77322   0.87291   0.00000  Uiso   1.00
O1654  O     0.16667   0.89345   0.79375   0.00000  Uiso   1.00
O1655  O     0.16666   0.77321   0.79372   0.00000  Uiso   1.00
O1656  O     0.16667   0.89346   0.87294   0.00000  Uiso   1.00
O1657  O     0.09161   0.83334   0.86379   0.00000  Uiso   1.00
O1658  O     0.24172   0.83333   0.80288   0.00000  Uiso   1.00
O1659  O     0.09161   0.83333   0.78460   0.00000  Uiso   1.00
O1660  O     0.24172   0.83334   0.88207   0.00000  Uiso   1.00
I1661  I     0.31750   0.76175   0.79638   0.00000  Uiso   1.00
I1662  I     0.01407   0.90890   0.86397   0.00000  Uiso   1.00
N1663  N     0.13865   0.70035   0.74861   0.00000  Uiso   1.00
H1664  H     0.10605   0.68735   0.72846   0.00000  Uiso   1.00
C1665  C     0.18308   0.70270   0.72309   0.00000  Uiso   1.00
H1666  H     0.17308   0.71813   0.69034   0.00000  Uiso   1.00
H1667  H     0.19492   0.67152   0.71450   0.00000  Uiso   1.00
H1668  H     0.21606   0.72081   0.74365   0.00000  Uiso   1.00
N1669  N     0.19534   0.96302   0.91904   0.00000  Uiso   1.00
H1670  H     0.22881   0.97565   0.93825   0.00000  Uiso   1.00
C1671  C     0.15292   0.95706   0.94654   0.00000  Uiso   1.00
H1672  H     0.14127   0.98692   0.96012   0.00000  Uiso   1.00
H1673  H     0.16525   0.93834   0.97609   0.00000  Uiso   1.00
H1674  H     0.11888   0.94046   0.92567   0.00000  Uiso   1.00
N1675  N     0.09683   0.95311   0.76751   0.00000  Uiso   1.00
H1676  H     0.06180   0.96626   0.76664   0.00000  Uiso   1.00
C1677  C     0.10707   0.93651   0.72279   0.00000  Uiso   1.00
H1678  H     0.08709   0.95348   0.69449   0.00000  Uiso   1.00
H1679  H     0.09216   0.90388   0.71826   0.00000  Uiso   1.00
H1680  H     0.14889   0.93828   0.72002   0.00000  Uiso   1.00
N1681  N     0.20975   0.71524   0.91412   0.00000  Uiso   1.00
H1682  H     0.19946   0.70635   0.94545   0.00000  Uiso   1.00
C1683  C     0.26446   0.72615   0.91547   0.00000  Uiso   1.00
H1684  H     0.28667   0.69825   0.91637   0.00000  Uiso   1.00
H1685  H     0.27799   0.74617   0.94701   0.00000  Uiso   1.00
H1686  H     0.27170   0.74326   0.88464   0.00000  Uiso   1.00
I1687  I     0.07355   0.76982   0.70951   0.00000  Uiso   1.00
I1688  I     0.26745   0.89134   0.95959   0.00000  Uiso   1.00
N1689  N     0.08843   0.78940   0.93969   0.00000  Uiso   1.00
H1690  H     0.08660   0.75820   0.94356   0.00000  Uiso   1.00
C1691  C     0.03830   0.80667   0.93687   0.00000  Uiso   1.00
H1692  H     0.01879   0.80189   0.96801   0.00000  Uiso   1.00
H1693  H     0.01282   0.79128   0.90719   0.00000  Uiso   1.00
H1694  H     0.04227   0.84018   0.93254   0.00000  Uiso   1.00
N1695  N     0.24935   0.87125   0.72767   0.00000  Uiso   1.00
H1696  H     0.28287   0.85721   0.72305   0.00000  Uiso   1.00
C1697  C     0.25695   0.91535   0.73645   0.00000  Uiso   1.00
H1698  H     0.25174   0.92356   0.77293   0.00000  Uiso   1.00
H1699  H     0.23031   0.93192   0.71263   0.00000  Uiso   1.00
H1700  H     0.29715   0.92595   0.73143   0.00000  Uiso   1.00
C1701  C     0.50160   0.75409   0.83265   0.00000  Uiso   1.00
C1702  C     0.49755   0.91226   0.83422   0.00000  Uiso   1.00
C1703  C     0.40145   0.83104   0.82197   0.00000  Uiso   1.00
C1704  C     0.59838   0.83705   0.84447   0.00000  Uiso   1.00
C1705  C     0.34631   0.82278   0.81932   0.00000  Uiso   1.00
C1706  C     0.65319   0.84672   0.84556   0.00000  Uiso   1.00
C1707  C     0.48189   0.68388   0.79281   0.00000  Uiso   1.00
C1708  C     0.51502   0.98125   0.87621   0.00000  Uiso   1.00
C1709  C     0.47163   0.97511   0.79697   0.00000  Uiso   1.00
C1710  C     0.52049   0.69064   0.87405   0.00000  Uiso   1.00
C1711  C     0.49408   0.95679   0.83632   0.00000  Uiso   1.00
C1712  C     0.50344   0.70900   0.83221   0.00000  Uiso   1.00
C1713  C     0.46270   0.81081   0.68563   0.00000  Uiso   1.00
C1714  C     0.53841   0.85497   0.98137   0.00000  Uiso   1.00
C1715  C     0.46189   0.81176   0.96970   0.00000  Uiso   1.00
C1716  C     0.53848   0.85472   0.69735   0.00000  Uiso   1.00
Cu1717 Cu    0.50000   0.83334   0.88022   0.00000  Uiso   1.00
Cu1718 Cu    0.50000   0.83333   0.78645   0.00000  Uiso   1.00
N1719  N     0.50001   0.83334   0.95069   0.00000  Uiso   1.00
N1720  N     0.49999   0.83332   0.71597   0.00000  Uiso   1.00
O1721  O     0.50000   0.77322   0.87291   0.00000  Uiso   1.00
O1722  O     0.50000   0.89345   0.79375   0.00000  Uiso   1.00
O1723  O     0.50000   0.77321   0.79372   0.00000  Uiso   1.00
O1724  O     0.50000   0.89346   0.87294   0.00000  Uiso   1.00
O1725  O     0.42495   0.83334   0.86379   0.00000  Uiso   1.00
O1726  O     0.57505   0.83333   0.80288   0.00000  Uiso   1.00
O1727  O     0.42494   0.83333   0.78460   0.00000  Uiso   1.00
O1728  O     0.57506   0.83334   0.88207   0.00000  Uiso   1.00
I1729  I     0.65084   0.76175   0.79638   0.00000  Uiso   1.00
I1730  I     0.34741   0.90890   0.86397   0.00000  Uiso   1.00
N1731  N     0.47198   0.70035   0.74861   0.00000  Uiso   1.00
H1732  H     0.43938   0.68735   0.72846   0.00000  Uiso   1.00
C1733  C     0.51641   0.70270   0.72309   0.00000  Uiso   1.00
H1734  H     0.50641   0.71813   0.69034   0.00000  Uiso   1.00
H1735  H     0.52825   0.67152   0.71450   0.00000  Uiso   1.00
H1736  H     0.54939   0.72081   0.74365   0.00000  Uiso   1.00
N1737  N     0.52867   0.96302   0.91904   0.00000  Uiso   1.00
H1738  H     0.56215   0.97565   0.93825   0.00000  Uiso   1.00
C1739  C     0.48625   0.95706   0.94654   0.00000  Uiso   1.00
H1740  H     0.47460   0.98692   0.96012   0.00000  Uiso   1.00
H1741  H     0.49859   0.93834   0.97609   0.00000  Uiso   1.00
H1742  H     0.45221   0.94046   0.92567   0.00000  Uiso   1.00
N1743  N     0.43016   0.95311   0.76751   0.00000  Uiso   1.00
H1744  H     0.39513   0.96626   0.76664   0.00000  Uiso   1.00
C1745  C     0.44041   0.93651   0.72279   0.00000  Uiso   1.00
H1746  H     0.42042   0.95348   0.69449   0.00000  Uiso   1.00
H1747  H     0.42550   0.90388   0.71826   0.00000  Uiso   1.00
H1748  H     0.48223   0.93828   0.72002   0.00000  Uiso   1.00
N1749  N     0.54309   0.71524   0.91412   0.00000  Uiso   1.00
H1750  H     0.53280   0.70635   0.94545   0.00000  Uiso   1.00
C1751  C     0.59779   0.72615   0.91547   0.00000  Uiso   1.00
H1752  H     0.62000   0.69825   0.91637   0.00000  Uiso   1.00
H1753  H     0.61132   0.74617   0.94701   0.00000  Uiso   1.00
H1754  H     0.60504   0.74326   0.88464   0.00000  Uiso   1.00
I1755  I     0.40688   0.76982   0.70951   0.00000  Uiso   1.00
I1756  I     0.60079   0.89134   0.95959   0.00000  Uiso   1.00
N1757  N     0.42177   0.78940   0.93969   0.00000  Uiso   1.00
H1758  H     0.41993   0.75820   0.94356   0.00000  Uiso   1.00
C1759  C     0.37164   0.80667   0.93687   0.00000  Uiso   1.00
H1760  H     0.35212   0.80189   0.96801   0.00000  Uiso   1.00
H1761  H     0.34616   0.79128   0.90719   0.00000  Uiso   1.00
H1762  H     0.37560   0.84018   0.93254   0.00000  Uiso   1.00
N1763  N     0.58269   0.87125   0.72767   0.00000  Uiso   1.00
H1764  H     0.61620   0.85721   0.72305   0.00000  Uiso   1.00
C1765  C     0.59029   0.91535   0.73645   0.00000  Uiso   1.00
H1766  H     0.58507   0.92356   0.77293   0.00000  Uiso   1.00
H1767  H     0.56364   0.93192   0.71263   0.00000  Uiso   1.00
H1768  H     0.63049   0.92595   0.73143   0.00000  Uiso   1.00
C1769  C     0.83493   0.75409   0.83265   0.00000  Uiso   1.00
C1770  C     0.83088   0.91226   0.83422   0.00000  Uiso   1.00
C1771  C     0.73478   0.83104   0.82197   0.00000  Uiso   1.00
C1772  C     0.93172   0.83705   0.84447   0.00000  Uiso   1.00
C1773  C     0.67964   0.82278   0.81932   0.00000  Uiso   1.00
C1774  C     0.98652   0.84672   0.84556   0.00000  Uiso   1.00
C1775  C     0.81522   0.68388   0.79281   0.00000  Uiso   1.00
C1776  C     0.84836   0.98125   0.87621   0.00000  Uiso   1.00
C1777  C     0.80496   0.97511   0.79697   0.00000  Uiso   1.00
C1778  C     0.85382   0.69064   0.87405   0.00000  Uiso   1.00
C1779  C     0.82742   0.95679   0.83632   0.00000  Uiso   1.00
C1780  C     0.83678   0.70900   0.83221   0.00000  Uiso   1.00
C1781  C     0.79603   0.81081   0.68563   0.00000  Uiso   1.00
C1782  C     0.87174   0.85497   0.98137   0.00000  Uiso   1.00
C1783  C     0.79522   0.81176   0.96970   0.00000  Uiso   1.00
C1784  C     0.87182   0.85472   0.69735   0.00000  Uiso   1.00
Cu1785 Cu    0.83333   0.83334   0.88022   0.00000  Uiso   1.00
Cu1786 Cu    0.83333   0.83333   0.78645   0.00000  Uiso   1.00
N1787  N     0.83335   0.83334   0.95069   0.00000  Uiso   1.00
N1788  N     0.83332   0.83332   0.71597   0.00000  Uiso   1.00
O1789  O     0.83333   0.77322   0.87291   0.00000  Uiso   1.00
O1790  O     0.83334   0.89345   0.79375   0.00000  Uiso   1.00
O1791  O     0.83333   0.77321   0.79372   0.00000  Uiso   1.00
O1792  O     0.83334   0.89346   0.87294   0.00000  Uiso   1.00
O1793  O     0.75828   0.83334   0.86379   0.00000  Uiso   1.00
O1794  O     0.90839   0.83333   0.80288   0.00000  Uiso   1.00
O1795  O     0.75828   0.83333   0.78460   0.00000  Uiso   1.00
O1796  O     0.90839   0.83334   0.88207   0.00000  Uiso   1.00
I1797  I     0.98417   0.76175   0.79638   0.00000  Uiso   1.00
I1798  I     0.68074   0.90890   0.86397   0.00000  Uiso   1.00
N1799  N     0.80532   0.70035   0.74861   0.00000  Uiso   1.00
H1800  H     0.77272   0.68735   0.72846   0.00000  Uiso   1.00
C1801  C     0.84974   0.70270   0.72309   0.00000  Uiso   1.00
H1802  H     0.83974   0.71813   0.69034   0.00000  Uiso   1.00
H1803  H     0.86158   0.67152   0.71450   0.00000  Uiso   1.00
H1804  H     0.88272   0.72081   0.74365   0.00000  Uiso   1.00
N1805  N     0.86201   0.96302   0.91904   0.00000  Uiso   1.00
H1806  H     0.89548   0.97565   0.93825   0.00000  Uiso   1.00
C1807  C     0.81959   0.95706   0.94654   0.00000  Uiso   1.00
H1808  H     0.80794   0.98692   0.96012   0.00000  Uiso   1.00
H1809  H     0.83192   0.93834   0.97609   0.00000  Uiso   1.00
H1810  H     0.78555   0.94046   0.92567   0.00000  Uiso   1.00
N1811  N     0.76350   0.95311   0.76751   0.00000  Uiso   1.00
H1812  H     0.72847   0.96626   0.76664   0.00000  Uiso   1.00
C1813  C     0.77374   0.93651   0.72279   0.00000  Uiso   1.00
H1814  H     0.75376   0.95348   0.69449   0.00000  Uiso   1.00
H1815  H     0.75883   0.90388   0.71826   0.00000  Uiso   1.00
H1816  H     0.81556   0.93828   0.72002   0.00000  Uiso   1.00
N1817  N     0.87642   0.71524   0.91412   0.00000  Uiso   1.00
H1818  H     0.86613   0.70635   0.94545   0.00000  Uiso   1.00
C1819  C     0.93112   0.72615   0.91547   0.00000  Uiso   1.00
H1820  H     0.95333   0.69825   0.91637   0.00000  Uiso   1.00
H1821  H     0.94466   0.74617   0.94701   0.00000  Uiso   1.00
H1822  H     0.93837   0.74326   0.88464   0.00000  Uiso   1.00
I1823  I     0.74021   0.76982   0.70951   0.00000  Uiso   1.00
I1824  I     0.93412   0.89134   0.95959   0.00000  Uiso   1.00
N1825  N     0.75510   0.78940   0.93969   0.00000  Uiso   1.00
H1826  H     0.75326   0.75820   0.94356   0.00000  Uiso   1.00
C1827  C     0.70497   0.80667   0.93687   0.00000  Uiso   1.00
H1828  H     0.68545   0.80189   0.96801   0.00000  Uiso   1.00
H1829  H     0.67949   0.79128   0.90719   0.00000  Uiso   1.00
H1830  H     0.70893   0.84018   0.93254   0.00000  Uiso   1.00
N1831  N     0.91602   0.87125   0.72767   0.00000  Uiso   1.00
H1832  H     0.94954   0.85721   0.72305   0.00000  Uiso   1.00
C1833  C     0.92362   0.91535   0.73645   0.00000  Uiso   1.00
H1834  H     0.91841   0.92356   0.77293   0.00000  Uiso   1.00
H1835  H     0.89697   0.93192   0.71263   0.00000  Uiso   1.00
H1836  H     0.96382   0.92595   0.73143   0.00000  Uiso   1.00
loop_
_geom_bond_atom_site_label_1
_geom_bond_atom_site_label_2
_geom_bond_distance
_geom_bond_site_symmetry_2
_ccdc_geom_bond_type
C1     O21     1.307   .     A
C1     O23     1.316   .     A
C1     C12     1.479   .     S
C2     O22     1.312   .     A
C2     C11     1.465   .     S
C2     O24     1.304   .     A
C3     O27     1.312   .     A
C3     C5      1.438   .     S
C3     O25     1.291   .     A
C4     O26     1.284   .     A
C4     C6      1.440   .     S
C4     O28     1.319   .     A
C5     C142    1.345   1_455 S
C5     I165    2.137   1_455 S
C6     C73     1.345   .     S
C6     I98     2.137   .     S
C7     C12     1.416   .     A
C7     N31     1.418   .     S
C7     C417    1.400   1_545 S
C8     C11     1.411   .     A
C8     N37     1.422   .     S
C8     C214    1.402   .     S
C9     C11     1.399   .     A
C9     N43     1.430   .     S
C9     C211    1.400   .     S
C10    C12     1.417   .     A
C10    N49     1.429   .     S
C10    C416    1.402   1_545 S
C13    N20     1.382   .     A
C13    I55     2.117   .     S
C13    C1239   1.431   1_554 S
C14    I56     2.129   .     S
C14    N19     1.392   .     A
C14    C628    1.433   .     S
C15    N19     1.368   .     A
C15    N57     1.420   .     S
C15    C625    1.431   .     S
C16    N63     1.426   .     S
C16    N20     1.366   .     A
C16    C1238   1.433   1_554 S
Cu17   O25     1.958   .     S
Cu17   Cu18    2.725   .     S
Cu17   N19     2.048   .     S
Cu17   O24     1.988   .     S
Cu17   O21     1.969   .     S
Cu17   O28     1.951   .     S
Cu18   O23     1.988   .     S
Cu18   N20     2.048   .     S
Cu18   O26     1.958   .     S
Cu18   O22     1.969   .     S
Cu18   O27     1.951   .     S
I29    C73     2.137   .     S
I30    C142    2.137   1_455 S
N31    H32     1.029   .     S
N31    C33     1.448   .     S
C33    H34     1.109   .     S
C33    H35     1.110   .     S
C33    H36     1.108   .     S
N37    H38     1.030   .     S
N37    C39     1.448   .     S
C39    H42     1.110   .     S
C39    H41     1.106   .     S
C39    H40     1.110   .     S
N43    H44     1.032   .     S
N43    C45     1.446   .     S
C45    H46     1.110   .     S
C45    H47     1.110   .     S
C45    H48     1.101   .     S
N49    H50     1.029   .     S
N49    C51     1.444   .     S
C51    H54     1.107   .     S
C51    H52     1.111   .     S
C51    H53     1.110   .     S
N57    H58     1.031   .     S
N57    C59     1.451   .     S
C59    H60     1.102   .     S
C59    H61     1.105   .     S
C59    H62     1.109   .     S
N63    C65     1.451   .     S
N63    H64     1.032   .     S
C65    H68     1.112   .     S
C65    H66     1.108   .     S
C65    H67     1.106   .     S
C69    O89     1.307   .     A
C69    O91     1.316   .     A
C69    C80     1.479   .     S
C70    O90     1.312   .     A
C70    C79     1.465   .     S
C70    O92     1.304   .     A
C71    O95     1.312   .     A
C71    C73     1.438   .     S
C71    O93     1.291   .     A
C72    O94     1.284   .     A
C72    C74     1.440   .     S
C72    O96     1.319   .     A
C74    C141    1.345   .     S
C74    I166    2.137   .     S
C75    C80     1.416   .     A
C75    N99     1.418   .     S
C75    C485    1.400   1_545 S
C76    C79     1.411   .     A
C76    N105    1.422   .     S
C76    C282    1.402   .     S
C77    C79     1.399   .     A
C77    N111    1.430   .     S
C77    C279    1.400   .     S
C78    C80     1.417   .     A
C78    N117    1.429   .     S
C78    C484    1.402   1_545 S
C81    N88     1.382   .     A
C81    I123    2.117   .     S
C81    C1307   1.431   1_554 S
C82    I124    2.129   .     S
C82    N87     1.392   .     A
C82    C696    1.433   .     S
C83    N87     1.368   .     A
C83    N125    1.420   .     S
C83    C693    1.431   .     S
C84    N131    1.426   .     S
C84    N88     1.366   .     A
C84    C1306   1.433   1_554 S
Cu85   O93     1.958   .     S
Cu85   Cu86    2.725   .     S
Cu85   N87     2.048   .     S
Cu85   O92     1.988   .     S
Cu85   O89     1.969   .     S
Cu85   O96     1.951   .     S
Cu86   O91     1.988   .     S
Cu86   N88     2.048   .     S
Cu86   O94     1.958   .     S
Cu86   O90     1.969   .     S
Cu86   O95     1.951   .     S
I97    C141    2.137   .     S
N99    H100    1.029   .     S
N99    C101    1.448   .     S
C101   H102    1.109   .     S
C101   H103    1.110   .     S
C101   H104    1.108   .     S
N105   H106    1.030   .     S
N105   C107    1.448   .     S
C107   H110    1.110   .     S
C107   H109    1.106   .     S
C107   H108    1.110   .     S
N111   H112    1.032   .     S
N111   C113    1.446   .     S
C113   H114    1.110   .     S
C113   H115    1.110   .     S
C113   H116    1.101   .     S
N117   H118    1.029   .     S
N117   C119    1.444   .     S
C119   H122    1.107   .     S
C119   H120    1.111   .     S
C119   H121    1.110   .     S
N125   H126    1.031   .     S
N125   C127    1.451   .     S
C127   H128    1.102   .     S
C127   H129    1.105   .     S
C127   H130    1.109   .     S
N131   C133    1.451   .     S
N131   H132    1.032   .     S
C133   H136    1.112   .     S
C133   H134    1.108   .     S
C133   H135    1.106   .     S
C137   O157    1.307   .     A
C137   O159    1.316   .     A
C137   C148    1.479   .     S
C138   O158    1.312   .     A
C138   C147    1.465   .     S
C138   O160    1.304   .     A
C139   O163    1.312   .     A
C139   C141    1.438   .     S
C139   O161    1.291   .     A
C140   O162    1.284   .     A
C140   C142    1.440   .     S
C140   O164    1.319   .     A
C142   C5      1.345   1_655 S
C142   I30     2.137   1_655 S
C143   C148    1.416   .     A
C143   N167    1.418   .     S
C143   C553    1.400   1_545 S
C144   C147    1.411   .     A
C144   N173    1.422   .     S
C144   C350    1.402   .     S
C145   C147    1.399   .     A
C145   N179    1.430   .     S
C145   C347    1.400   .     S
C146   C148    1.417   .     A
C146   N185    1.429   .     S
C146   C552    1.402   1_545 S
C149   N156    1.382   .     A
C149   I191    2.117   .     S
C149   C1375   1.431   1_554 S
C150   I192    2.129   .     S
C150   N155    1.392   .     A
C150   C764    1.433   .     S
C151   N155    1.368   .     A
C151   N193    1.420   .     S
C151   C761    1.431   .     S
C152   N199    1.426   .     S
C152   N156    1.366   .     A
C152   C1374   1.433   1_554 S
Cu153  O161    1.958   .     S
Cu153  Cu154   2.725   .     S
Cu153  N155    2.048   .     S
Cu153  O160    1.988   .     S
Cu153  O157    1.969   .     S
Cu153  O164    1.951   .     S
Cu154  O159    1.988   .     S
Cu154  N156    2.048   .     S
Cu154  O162    1.958   .     S
Cu154  O158    1.969   .     S
Cu154  O163    1.951   .     S
I165   C5      2.137   1_655 S
N167   H168    1.029   .     S
N167   C169    1.448   .     S
C169   H170    1.109   .     S
C169   H171    1.110   .     S
C169   H172    1.108   .     S
N173   H174    1.030   .     S
N173   C175    1.448   .     S
C175   H178    1.110   .     S
C175   H177    1.106   .     S
C175   H176    1.110   .     S
N179   H180    1.032   .     S
N179   C181    1.446   .     S
C181   H182    1.110   .     S
C181   H183    1.110   .     S
C181   H184    1.101   .     S
N185   H186    1.029   .     S
N185   C187    1.444   .     S
C187   H190    1.107   .     S
C187   H188    1.111   .     S
C187   H189    1.110   .     S
N193   H194    1.031   .     S
N193   C195    1.451   .     S
C195   H196    1.102   .     S
C195   H197    1.105   .     S
C195   H198    1.109   .     S
N199   C201    1.451   .     S
N199   H200    1.032   .     S
C201   H204    1.112   .     S
C201   H202    1.108   .     S
C201   H203    1.106   .     S
C205   O225    1.307   .     A
C205   O227    1.316   .     A
C205   C216    1.479   .     S
C206   O226    1.312   .     A
C206   C215    1.465   .     S
C206   O228    1.304   .     A
C207   O231    1.312   .     A
C207   C209    1.438   .     S
C207   O229    1.291   .     A
C208   O230    1.284   .     A
C208   C210    1.440   .     S
C208   O232    1.319   .     A
C209   C346    1.345   1_455 S
C209   I369    2.137   1_455 S
C210   C277    1.345   .     S
C210   I302    2.137   .     S
C211   C216    1.416   .     A
C211   N235    1.418   .     S
C212   C215    1.411   .     A
C212   N241    1.422   .     S
C212   C418    1.402   .     S
C213   C215    1.399   .     A
C213   N247    1.430   .     S
C213   C415    1.400   .     S
C214   C216    1.417   .     A
C214   N253    1.429   .     S
C217   N224    1.382   .     A
C217   I259    2.117   .     S
C217   C1443   1.431   1_554 S
C218   I260    2.129   .     S
C218   N223    1.392   .     A
C218   C832    1.433   .     S
C219   N223    1.368   .     A
C219   N261    1.420   .     S
C219   C829    1.431   .     S
C220   N267    1.426   .     S
C220   N224    1.366   .     A
C220   C1442   1.433   1_554 S
Cu221  O229    1.958   .     S
Cu221  Cu222   2.725   .     S
Cu221  N223    2.048   .     S
Cu221  O228    1.988   .     S
Cu221  O225    1.969   .     S
Cu221  O232    1.951   .     S
Cu222  O227    1.988   .     S
Cu222  N224    2.048   .     S
Cu222  O230    1.958   .     S
Cu222  O226    1.969   .     S
Cu222  O231    1.951   .     S
I233   C277    2.137   .     S
I234   C346    2.137   1_455 S
N235   H236    1.029   .     S
N235   C237    1.448   .     S
C237   H238    1.109   .     S
C237   H239    1.110   .     S
C237   H240    1.108   .     S
N241   H242    1.030   .     S
N241   C243    1.448   .     S
C243   H246    1.110   .     S
C243   H245    1.106   .     S
C243   H244    1.110   .     S
N247   H248    1.032   .     S
N247   C249    1.446   .     S
C249   H250    1.110   .     S
C249   H251    1.110   .     S
C249   H252    1.101   .     S
N253   H254    1.029   .     S
N253   C255    1.444   .     S
C255   H258    1.107   .     S
C255   H256    1.111   .     S
C255   H257    1.110   .     S
N261   H262    1.031   .     S
N261   C263    1.451   .     S
C263   H264    1.102   .     S
C263   H265    1.105   .     S
C263   H266    1.109   .     S
N267   C269    1.451   .     S
N267   H268    1.032   .     S
C269   H272    1.112   .     S
C269   H270    1.108   .     S
C269   H271    1.106   .     S
C273   O293    1.307   .     A
C273   O295    1.316   .     A
C273   C284    1.479   .     S
C274   O294    1.312   .     A
C274   C283    1.465   .     S
C274   O296    1.304   .     A
C275   O299    1.312   .     A
C275   C277    1.438   .     S
C275   O297    1.291   .     A
C276   O298    1.284   .     A
C276   C278    1.440   .     S
C276   O300    1.319   .     A
C278   C345    1.345   .     S
C278   I370    2.137   .     S
C279   C284    1.416   .     A
C279   N303    1.418   .     S
C280   C283    1.411   .     A
C280   N309    1.422   .     S
C280   C486    1.402   .     S
C281   C283    1.399   .     A
C281   N315    1.430   .     S
C281   C483    1.400   .     S
C282   C284    1.417   .     A
C282   N321    1.429   .     S
C285   N292    1.382   .     A
C285   I327    2.117   .     S
C285   C1511   1.431   1_554 S
C286   I328    2.129   .     S
C286   N291    1.392   .     A
C286   C900    1.433   .     S
C287   N291    1.368   .     A
C287   N329    1.420   .     S
C287   C897    1.431   .     S
C288   N335    1.426   .     S
C288   N292    1.366   .     A
C288   C1510   1.433   1_554 S
Cu289  O297    1.958   .     S
Cu289  Cu290   2.725   .     S
Cu289  N291    2.048   .     S
Cu289  O296    1.988   .     S
Cu289  O293    1.969   .     S
Cu289  O300    1.951   .     S
Cu290  O295    1.988   .     S
Cu290  N292    2.048   .     S
Cu290  O298    1.958   .     S
Cu290  O294    1.969   .     S
Cu290  O299    1.951   .     S
I301   C345    2.137   .     S
N303   H304    1.029   .     S
N303   C305    1.448   .     S
C305   H306    1.109   .     S
C305   H307    1.110   .     S
C305   H308    1.108   .     S
N309   H310    1.030   .     S
N309   C311    1.448   .     S
C311   H314    1.110   .     S
C311   H313    1.106   .     S
C311   H312    1.110   .     S
N315   H316    1.032   .     S
N315   C317    1.446   .     S
C317   H318    1.110   .     S
C317   H319    1.110   .     S
C317   H320    1.101   .     S
N321   H322    1.029   .     S
N321   C323    1.444   .     S
C323   H326    1.107   .     S
C323   H324    1.111   .     S
C323   H325    1.110   .     S
N329   H330    1.031   .     S
N329   C331    1.451   .     S
C331   H332    1.102   .     S
C331   H333    1.105   .     S
C331   H334    1.109   .     S
N335   C337    1.451   .     S
N335   H336    1.032   .     S
C337   H340    1.112   .     S
C337   H338    1.108   .     S
C337   H339    1.106   .     S
C341   O361    1.307   .     A
C341   O363    1.316   .     A
C341   C352    1.479   .     S
C342   O362    1.312   .     A
C342   C351    1.465   .     S
C342   O364    1.304   .     A
C343   O367    1.312   .     A
C343   C345    1.438   .     S
C343   O365    1.291   .     A
C344   O366    1.284   .     A
C344   C346    1.440   .     S
C344   O368    1.319   .     A
C346   C209    1.345   1_655 S
C346   I234    2.137   1_655 S
C347   C352    1.416   .     A
C347   N371    1.418   .     S
C348   C351    1.411   .     A
C348   N377    1.422   .     S
C348   C554    1.402   .     S
C349   C351    1.399   .     A
C349   N383    1.430   .     S
C349   C551    1.400   .     S
C350   C352    1.417   .     A
C350   N389    1.429   .     S
C353   N360    1.382   .     A
C353   I395    2.117   .     S
C353   C1579   1.431   1_554 S
C354   I396    2.129   .     S
C354   N359    1.392   .     A
C354   C968    1.433   .     S
C355   N359    1.368   .     A
C355   N397    1.420   .     S
C355   C965    1.431   .     S
C356   N403    1.426   .     S
C356   N360    1.366   .     A
C356   C1578   1.433   1_554 S
Cu357  O365    1.958   .     S
Cu357  Cu358   2.725   .     S
Cu357  N359    2.048   .     S
Cu357  O364    1.988   .     S
Cu357  O361    1.969   .     S
Cu357  O368    1.951   .     S
Cu358  O363    1.988   .     S
Cu358  N360    2.048   .     S
Cu358  O366    1.958   .     S
Cu358  O362    1.969   .     S
Cu358  O367    1.951   .     S
I369   C209    2.137   1_655 S
N371   H372    1.029   .     S
N371   C373    1.448   .     S
C373   H374    1.109   .     S
C373   H375    1.110   .     S
C373   H376    1.108   .     S
N377   H378    1.030   .     S
N377   C379    1.448   .     S
C379   H382    1.110   .     S
C379   H381    1.106   .     S
C379   H380    1.110   .     S
N383   H384    1.032   .     S
N383   C385    1.446   .     S
C385   H386    1.110   .     S
C385   H387    1.110   .     S
C385   H388    1.101   .     S
N389   H390    1.029   .     S
N389   C391    1.444   .     S
C391   H394    1.107   .     S
C391   H392    1.111   .     S
C391   H393    1.110   .     S
N397   H398    1.031   .     S
N397   C399    1.451   .     S
C399   H400    1.102   .     S
C399   H401    1.105   .     S
C399   H402    1.109   .     S
N403   C405    1.451   .     S
N403   H404    1.032   .     S
C405   H408    1.112   .     S
C405   H406    1.108   .     S
C405   H407    1.106   .     S
C409   O429    1.307   .     A
C409   O431    1.316   .     A
C409   C420    1.479   .     S
C410   O430    1.312   .     A
C410   C419    1.465   .     S
C410   O432    1.304   .     A
C411   O435    1.312   .     A
C411   C413    1.438   .     S
C411   O433    1.291   .     A
C412   O434    1.284   .     A
C412   C414    1.440   .     S
C412   O436    1.319   .     A
C413   C550    1.345   1_455 S
C413   I573    2.137   1_455 S
C414   C481    1.345   .     S
C414   I506    2.137   .     S
C415   C420    1.416   .     A
C415   N439    1.418   .     S
C416   C419    1.411   .     A
C416   N445    1.422   .     S
C416   C10     1.402   1_565 S
C417   C419    1.399   .     A
C417   N451    1.430   .     S
C417   C7      1.400   1_565 S
C418   C420    1.417   .     A
C418   N457    1.429   .     S
C421   N428    1.382   .     A
C421   I463    2.117   .     S
C421   C1647   1.431   1_554 S
C422   I464    2.129   .     S
C422   N427    1.392   .     A
C422   C1036   1.433   .     S
C423   N427    1.368   .     A
C423   N465    1.420   .     S
C423   C1033   1.431   .     S
C424   N471    1.426   .     S
C424   N428    1.366   .     A
C424   C1646   1.433   1_554 S
Cu425  O433    1.958   .     S
Cu425  Cu426   2.725   .     S
Cu425  N427    2.048   .     S
Cu425  O432    1.988   .     S
Cu425  O429    1.969   .     S
Cu425  O436    1.951   .     S
Cu426  O431    1.988   .     S
Cu426  N428    2.048   .     S
Cu426  O434    1.958   .     S
Cu426  O430    1.969   .     S
Cu426  O435    1.951   .     S
I437   C481    2.137   .     S
I438   C550    2.137   1_455 S
N439   H440    1.029   .     S
N439   C441    1.448   .     S
C441   H442    1.109   .     S
C441   H443    1.110   .     S
C441   H444    1.108   .     S
N445   H446    1.030   .     S
N445   C447    1.448   .     S
C447   H450    1.110   .     S
C447   H449    1.106   .     S
C447   H448    1.110   .     S
N451   H452    1.032   .     S
N451   C453    1.446   .     S
C453   H454    1.110   .     S
C453   H455    1.110   .     S
C453   H456    1.101   .     S
N457   H458    1.029   .     S
N457   C459    1.444   .     S
C459   H462    1.107   .     S
C459   H460    1.111   .     S
C459   H461    1.110   .     S
N465   H466    1.031   .     S
N465   C467    1.451   .     S
C467   H468    1.102   .     S
C467   H469    1.105   .     S
C467   H470    1.109   .     S
N471   C473    1.451   .     S
N471   H472    1.032   .     S
C473   H476    1.112   .     S
C473   H474    1.108   .     S
C473   H475    1.106   .     S
C477   O497    1.307   .     A
C477   O499    1.316   .     A
C477   C488    1.479   .     S
C478   O498    1.312   .     A
C478   C487    1.465   .     S
C478   O500    1.304   .     A
C479   O503    1.312   .     A
C479   C481    1.438   .     S
C479   O501    1.291   .     A
C480   O502    1.284   .     A
C480   C482    1.440   .     S
C480   O504    1.319   .     A
C482   C549    1.345   .     S
C482   I574    2.137   .     S
C483   C488    1.416   .     A
C483   N507    1.418   .     S
C484   C487    1.411   .     A
C484   N513    1.422   .     S
C484   C78     1.402   1_565 S
C485   C487    1.399   .     A
C485   N519    1.430   .     S
C485   C75     1.400   1_565 S
C486   C488    1.417   .     A
C486   N525    1.429   .     S
C489   N496    1.382   .     A
C489   I531    2.117   .     S
C489   C1715   1.431   1_554 S
C490   I532    2.129   .     S
C490   N495    1.392   .     A
C490   C1104   1.433   .     S
C491   N495    1.368   .     A
C491   N533    1.420   .     S
C491   C1101   1.431   .     S
C492   N539    1.426   .     S
C492   N496    1.366   .     A
C492   C1714   1.433   1_554 S
Cu493  O501    1.958   .     S
Cu493  Cu494   2.725   .     S
Cu493  N495    2.048   .     S
Cu493  O500    1.988   .     S
Cu493  O497    1.969   .     S
Cu493  O504    1.951   .     S
Cu494  O499    1.988   .     S
Cu494  N496    2.048   .     S
Cu494  O502    1.958   .     S
Cu494  O498    1.969   .     S
Cu494  O503    1.951   .     S
I505   C549    2.137   .     S
N507   H508    1.029   .     S
N507   C509    1.448   .     S
C509   H510    1.109   .     S
C509   H511    1.110   .     S
C509   H512    1.108   .     S
N513   H514    1.030   .     S
N513   C515    1.448   .     S
C515   H518    1.110   .     S
C515   H517    1.106   .     S
C515   H516    1.110   .     S
N519   H520    1.032   .     S
N519   C521    1.446   .     S
C521   H522    1.110   .     S
C521   H523    1.110   .     S
C521   H524    1.101   .     S
N525   H526    1.029   .     S
N525   C527    1.444   .     S
C527   H530    1.107   .     S
C527   H528    1.111   .     S
C527   H529    1.110   .     S
N533   H534    1.031   .     S
N533   C535    1.451   .     S
C535   H536    1.102   .     S
C535   H537    1.105   .     S
C535   H538    1.109   .     S
N539   C541    1.451   .     S
N539   H540    1.032   .     S
C541   H544    1.112   .     S
C541   H542    1.108   .     S
C541   H543    1.106   .     S
C545   O565    1.307   .     A
C545   O567    1.316   .     A
C545   C556    1.479   .     S
C546   O566    1.312   .     A
C546   C555    1.465   .     S
C546   O568    1.304   .     A
C547   O571    1.312   .     A
C547   C549    1.438   .     S
C547   O569    1.291   .     A
C548   O570    1.284   .     A
C548   C550    1.440   .     S
C548   O572    1.319   .     A
C550   C413    1.345   1_655 S
C550   I438    2.137   1_655 S
C551   C556    1.416   .     A
C551   N575    1.418   .     S
C552   C555    1.411   .     A
C552   N581    1.422   .     S
C552   C146    1.402   1_565 S
C553   C555    1.399   .     A
C553   N587    1.430   .     S
C553   C143    1.400   1_565 S
C554   C556    1.417   .     A
C554   N593    1.429   .     S
C557   N564    1.382   .     A
C557   I599    2.117   .     S
C557   C1783   1.431   1_554 S
C558   I600    2.129   .     S
C558   N563    1.392   .     A
C558   C1172   1.433   .     S
C559   N563    1.368   .     A
C559   N601    1.420   .     S
C559   C1169   1.431   .     S
C560   N607    1.426   .     S
C560   N564    1.366   .     A
C560   C1782   1.433   1_554 S
Cu561  O569    1.958   .     S
Cu561  Cu562   2.725   .     S
Cu561  N563    2.048   .     S
Cu561  O568    1.988   .     S
Cu561  O565    1.969   .     S
Cu561  O572    1.951   .     S
Cu562  O567    1.988   .     S
Cu562  N564    2.048   .     S
Cu562  O570    1.958   .     S
Cu562  O566    1.969   .     S
Cu562  O571    1.951   .     S
I573   C413    2.137   1_655 S
N575   H576    1.029   .     S
N575   C577    1.448   .     S
C577   H578    1.109   .     S
C577   H579    1.110   .     S
C577   H580    1.108   .     S
N581   H582    1.030   .     S
N581   C583    1.448   .     S
C583   H586    1.110   .     S
C583   H585    1.106   .     S
C583   H584    1.110   .     S
N587   H588    1.032   .     S
N587   C589    1.446   .     S
C589   H590    1.110   .     S
C589   H591    1.110   .     S
C589   H592    1.101   .     S
N593   H594    1.029   .     S
N593   C595    1.444   .     S
C595   H598    1.107   .     S
C595   H596    1.111   .     S
C595   H597    1.110   .     S
N601   H602    1.031   .     S
N601   C603    1.451   .     S
C603   H604    1.102   .     S
C603   H605    1.105   .     S
C603   H606    1.109   .     S
N607   C609    1.451   .     S
N607   H608    1.032   .     S
C609   H612    1.112   .     S
C609   H610    1.108   .     S
C609   H611    1.106   .     S
C613   O633    1.307   .     A
C613   O635    1.316   .     A
C613   C624    1.479   .     S
C614   O634    1.312   .     A
C614   C623    1.465   .     S
C614   O636    1.304   .     A
C615   O639    1.312   .     A
C615   C617    1.438   .     S
C615   O637    1.291   .     A
C616   O638    1.284   .     A
C616   C618    1.440   .     S
C616   O640    1.319   .     A
C617   C754    1.345   1_455 S
C617   I777    2.137   1_455 S
C618   C685    1.345   .     S
C618   I710    2.137   .     S
C619   C624    1.416   .     A
C619   N643    1.418   .     S
C619   C1029   1.400   1_545 S
C620   C623    1.411   .     A
C620   N649    1.422   .     S
C620   C826    1.402   .     S
C621   C623    1.399   .     A
C621   N655    1.430   .     S
C621   C823    1.400   .     S
C622   C624    1.417   .     A
C622   N661    1.429   .     S
C622   C1028   1.402   1_545 S
C625   N632    1.382   .     A
C625   I667    2.117   .     S
C626   I668    2.129   .     S
C626   N631    1.392   .     A
C626   C1240   1.433   .     S
C627   N631    1.368   .     A
C627   N669    1.420   .     S
C627   C1237   1.431   .     S
C628   N675    1.426   .     S
C628   N632    1.366   .     A
Cu629  O637    1.958   .     S
Cu629  Cu630   2.725   .     S
Cu629  N631    2.048   .     S
Cu629  O636    1.988   .     S
Cu629  O633    1.969   .     S
Cu629  O640    1.951   .     S
Cu630  O635    1.988   .     S
Cu630  N632    2.048   .     S
Cu630  O638    1.958   .     S
Cu630  O634    1.969   .     S
Cu630  O639    1.951   .     S
I641   C685    2.137   .     S
I642   C754    2.137   1_455 S
N643   H644    1.029   .     S
N643   C645    1.448   .     S
C645   H646    1.109   .     S
C645   H647    1.110   .     S
C645   H648    1.108   .     S
N649   H650    1.030   .     S
N649   C651    1.448   .     S
C651   H654    1.110   .     S
C651   H653    1.106   .     S
C651   H652    1.110   .     S
N655   H656    1.032   .     S
N655   C657    1.446   .     S
C657   H658    1.110   .     S
C657   H659    1.110   .     S
C657   H660    1.101   .     S
N661   H662    1.029   .     S
N661   C663    1.444   .     S
C663   H666    1.107   .     S
C663   H664    1.111   .     S
C663   H665    1.110   .     S
N669   H670    1.031   .     S
N669   C671    1.451   .     S
C671   H672    1.102   .     S
C671   H673    1.105   .     S
C671   H674    1.109   .     S
N675   C677    1.451   .     S
N675   H676    1.032   .     S
C677   H680    1.112   .     S
C677   H678    1.108   .     S
C677   H679    1.106   .     S
C681   O701    1.307   .     A
C681   O703    1.316   .     A
C681   C692    1.479   .     S
C682   O702    1.312   .     A
C682   C691    1.465   .     S
C682   O704    1.304   .     A
C683   O707    1.312   .     A
C683   C685    1.438   .     S
C683   O705    1.291   .     A
C684   O706    1.284   .     A
C684   C686    1.440   .     S
C684   O708    1.319   .     A
C686   C753    1.345   .     S
C686   I778    2.137   .     S
C687   C692    1.416   .     A
C687   N711    1.418   .     S
C687   C1097   1.400   1_545 S
C688   C691    1.411   .     A
C688   N717    1.422   .     S
C688   C894    1.402   .     S
C689   C691    1.399   .     A
C689   N723    1.430   .     S
C689   C891    1.400   .     S
C690   C692    1.417   .     A
C690   N729    1.429   .     S
C690   C1096   1.402   1_545 S
C693   N700    1.382   .     A
C693   I735    2.117   .     S
C694   I736    2.129   .     S
C694   N699    1.392   .     A
C694   C1308   1.433   .     S
C695   N699    1.368   .     A
C695   N737    1.420   .     S
C695   C1305   1.431   .     S
C696   N743    1.426   .     S
C696   N700    1.366   .     A
Cu697  O705    1.958   .     S
Cu697  Cu698   2.725   .     S
Cu697  N699    2.048   .     S
Cu697  O704    1.988   .     S
Cu697  O701    1.969   .     S
Cu697  O708    1.951   .     S
Cu698  O703    1.988   .     S
Cu698  N700    2.048   .     S
Cu698  O706    1.958   .     S
Cu698  O702    1.969   .     S
Cu698  O707    1.951   .     S
I709   C753    2.137   .     S
N711   H712    1.029   .     S
N711   C713    1.448   .     S
C713   H714    1.109   .     S
C713   H715    1.110   .     S
C713   H716    1.108   .     S
N717   H718    1.030   .     S
N717   C719    1.448   .     S
C719   H722    1.110   .     S
C719   H721    1.106   .     S
C719   H720    1.110   .     S
N723   H724    1.032   .     S
N723   C725    1.446   .     S
C725   H726    1.110   .     S
C725   H727    1.110   .     S
C725   H728    1.101   .     S
N729   H730    1.029   .     S
N729   C731    1.444   .     S
C731   H734    1.107   .     S
C731   H732    1.111   .     S
C731   H733    1.110   .     S
N737   H738    1.031   .     S
N737   C739    1.451   .     S
C739   H740    1.102   .     S
C739   H741    1.105   .     S
C739   H742    1.109   .     S
N743   C745    1.451   .     S
N743   H744    1.032   .     S
C745   H748    1.112   .     S
C745   H746    1.108   .     S
C745   H747    1.106   .     S
C749   O769    1.307   .     A
C749   O771    1.316   .     A
C749   C760    1.479   .     S
C750   O770    1.312   .     A
C750   C759    1.465   .     S
C750   O772    1.304   .     A
C751   O775    1.312   .     A
C751   C753    1.438   .     S
C751   O773    1.291   .     A
C752   O774    1.284   .     A
C752   C754    1.440   .     S
C752   O776    1.319   .     A
C754   C617    1.345   1_655 S
C754   I642    2.137   1_655 S
C755   C760    1.416   .     A
C755   N779    1.418   .     S
C755   C1165   1.400   1_545 S
C756   C759    1.411   .     A
C756   N785    1.422   .     S
C756   C962    1.402   .     S
C757   C759    1.399   .     A
C757   N791    1.430   .     S
C757   C959    1.400   .     S
C758   C760    1.417   .     A
C758   N797    1.429   .     S
C758   C1164   1.402   1_545 S
C761   N768    1.382   .     A
C761   I803    2.117   .     S
C762   I804    2.129   .     S
C762   N767    1.392   .     A
C762   C1376   1.433   .     S
C763   N767    1.368   .     A
C763   N805    1.420   .     S
C763   C1373   1.431   .     S
C764   N811    1.426   .     S
C764   N768    1.366   .     A
Cu765  O773    1.958   .     S
Cu765  Cu766   2.725   .     S
Cu765  N767    2.048   .     S
Cu765  O772    1.988   .     S
Cu765  O769    1.969   .     S
Cu765  O776    1.951   .     S
Cu766  O771    1.988   .     S
Cu766  N768    2.048   .     S
Cu766  O774    1.958   .     S
Cu766  O770    1.969   .     S
Cu766  O775    1.951   .     S
I777   C617    2.137   1_655 S
N779   H780    1.029   .     S
N779   C781    1.448   .     S
C781   H782    1.109   .     S
C781   H783    1.110   .     S
C781   H784    1.108   .     S
N785   H786    1.030   .     S
N785   C787    1.448   .     S
C787   H790    1.110   .     S
C787   H789    1.106   .     S
C787   H788    1.110   .     S
N791   H792    1.032   .     S
N791   C793    1.446   .     S
C793   H794    1.110   .     S
C793   H795    1.110   .     S
C793   H796    1.101   .     S
N797   H798    1.029   .     S
N797   C799    1.444   .     S
C799   H802    1.107   .     S
C799   H800    1.111   .     S
C799   H801    1.110   .     S
N805   H806    1.031   .     S
N805   C807    1.451   .     S
C807   H808    1.102   .     S
C807   H809    1.105   .     S
C807   H810    1.109   .     S
N811   C813    1.451   .     S
N811   H812    1.032   .     S
C813   H816    1.112   .     S
C813   H814    1.108   .     S
C813   H815    1.106   .     S
C817   O837    1.307   .     A
C817   O839    1.316   .     A
C817   C828    1.479   .     S
C818   O838    1.312   .     A
C818   C827    1.465   .     S
C818   O840    1.304   .     A
C819   O843    1.312   .     A
C819   C821    1.438   .     S
C819   O841    1.291   .     A
C820   O842    1.284   .     A
C820   C822    1.440   .     S
C820   O844    1.319   .     A
C821   C958    1.345   1_455 S
C821   I981    2.137   1_455 S
C822   C889    1.345   .     S
C822   I914    2.137   .     S
C823   C828    1.416   .     A
C823   N847    1.418   .     S
C824   C827    1.411   .     A
C824   N853    1.422   .     S
C824   C1030   1.402   .     S
C825   C827    1.399   .     A
C825   N859    1.430   .     S
C825   C1027   1.400   .     S
C826   C828    1.417   .     A
C826   N865    1.429   .     S
C829   N836    1.382   .     A
C829   I871    2.117   .     S
C830   I872    2.129   .     S
C830   N835    1.392   .     A
C830   C1444   1.433   .     S
C831   N835    1.368   .     A
C831   N873    1.420   .     S
C831   C1441   1.431   .     S
C832   N879    1.426   .     S
C832   N836    1.366   .     A
Cu833  O841    1.958   .     S
Cu833  Cu834   2.725   .     S
Cu833  N835    2.048   .     S
Cu833  O840    1.988   .     S
Cu833  O837    1.969   .     S
Cu833  O844    1.951   .     S
Cu834  O839    1.988   .     S
Cu834  N836    2.048   .     S
Cu834  O842    1.958   .     S
Cu834  O838    1.969   .     S
Cu834  O843    1.951   .     S
I845   C889    2.137   .     S
I846   C958    2.137   1_455 S
N847   H848    1.029   .     S
N847   C849    1.448   .     S
C849   H850    1.109   .     S
C849   H851    1.110   .     S
C849   H852    1.108   .     S
N853   H854    1.030   .     S
N853   C855    1.448   .     S
C855   H858    1.110   .     S
C855   H857    1.106   .     S
C855   H856    1.110   .     S
N859   H860    1.032   .     S
N859   C861    1.446   .     S
C861   H862    1.110   .     S
C861   H863    1.110   .     S
C861   H864    1.101   .     S
N865   H866    1.029   .     S
N865   C867    1.444   .     S
C867   H870    1.107   .     S
C867   H868    1.111   .     S
C867   H869    1.110   .     S
N873   H874    1.031   .     S
N873   C875    1.451   .     S
C875   H876    1.102   .     S
C875   H877    1.105   .     S
C875   H878    1.109   .     S
N879   C881    1.451   .     S
N879   H880    1.032   .     S
C881   H884    1.112   .     S
C881   H882    1.108   .     S
C881   H883    1.106   .     S
C885   O905    1.307   .     A
C885   O907    1.316   .     A
C885   C896    1.479   .     S
C886   O906    1.312   .     A
C886   C895    1.465   .     S
C886   O908    1.304   .     A
C887   O911    1.312   .     A
C887   C889    1.438   .     S
C887   O909    1.291   .     A
C888   O910    1.284   .     A
C888   C890    1.440   .     S
C888   O912    1.319   .     A
C890   C957    1.345   .     S
C890   I982    2.137   .     S
C891   C896    1.416   .     A
C891   N915    1.418   .     S
C892   C895    1.411   .     A
C892   N921    1.422   .     S
C892   C1098   1.402   .     S
C893   C895    1.399   .     A
C893   N927    1.430   .     S
C893   C1095   1.400   .     S
C894   C896    1.417   .     A
C894   N933    1.429   .     S
C897   N904    1.382   .     A
C897   I939    2.117   .     S
C898   I940    2.129   .     S
C898   N903    1.392   .     A
C898   C1512   1.433   .     S
C899   N903    1.368   .     A
C899   N941    1.420   .     S
C899   C1509   1.431   .     S
C900   N947    1.426   .     S
C900   N904    1.366   .     A
Cu901  O909    1.958   .     S
Cu901  Cu902   2.725   .     S
Cu901  N903    2.048   .     S
Cu901  O908    1.988   .     S
Cu901  O905    1.969   .     S
Cu901  O912    1.951   .     S
Cu902  O907    1.988   .     S
Cu902  N904    2.048   .     S
Cu902  O910    1.958   .     S
Cu902  O906    1.969   .     S
Cu902  O911    1.951   .     S
I913   C957    2.137   .     S
N915   H916    1.029   .     S
N915   C917    1.448   .     S
C917   H918    1.109   .     S
C917   H919    1.110   .     S
C917   H920    1.108   .     S
N921   H922    1.030   .     S
N921   C923    1.448   .     S
C923   H926    1.110   .     S
C923   H925    1.106   .     S
C923   H924    1.110   .     S
N927   H928    1.032   .     S
N927   C929    1.446   .     S
C929   H930    1.110   .     S
C929   H931    1.110   .     S
C929   H932    1.101   .     S
N933   H934    1.029   .     S
N933   C935    1.444   .     S
C935   H938    1.107   .     S
C935   H936    1.111   .     S
C935   H937    1.110   .     S
N941   H942    1.031   .     S
N941   C943    1.451   .     S
C943   H944    1.102   .     S
C943   H945    1.105   .     S
C943   H946    1.109   .     S
N947   C949    1.451   .     S
N947   H948    1.032   .     S
C949   H952    1.112   .     S
C949   H950    1.108   .     S
C949   H951    1.106   .     S
C953   O973    1.307   .     A
C953   O975    1.316   .     A
C953   C964    1.479   .     S
C954   O974    1.312   .     A
C954   C963    1.465   .     S
C954   O976    1.304   .     A
C955   O979    1.312   .     A
C955   C957    1.438   .     S
C955   O977    1.291   .     A
C956   O978    1.284   .     A
C956   C958    1.440   .     S
C956   O980    1.319   .     A
C958   C821    1.345   1_655 S
C958   I846    2.137   1_655 S
C959   C964    1.416   .     A
C959   N983    1.418   .     S
C960   C963    1.411   .     A
C960   N989    1.422   .     S
C960   C1166   1.402   .     S
C961   C963    1.399   .     A
C961   N995    1.430   .     S
C961   C1163   1.400   .     S
C962   C964    1.417   .     A
C962   N1001   1.429   .     S
C965   N972    1.382   .     A
C965   I1007   2.117   .     S
C966   I1008   2.129   .     S
C966   N971    1.392   .     A
C966   C1580   1.433   .     S
C967   N971    1.368   .     A
C967   N1009   1.420   .     S
C967   C1577   1.431   .     S
C968   N1015   1.426   .     S
C968   N972    1.366   .     A
Cu969  O977    1.958   .     S
Cu969  Cu970   2.725   .     S
Cu969  N971    2.048   .     S
Cu969  O976    1.988   .     S
Cu969  O973    1.969   .     S
Cu969  O980    1.951   .     S
Cu970  O975    1.988   .     S
Cu970  N972    2.048   .     S
Cu970  O978    1.958   .     S
Cu970  O974    1.969   .     S
Cu970  O979    1.951   .     S
I981   C821    2.137   1_655 S
N983   H984    1.029   .     S
N983   C985    1.448   .     S
C985   H986    1.109   .     S
C985   H987    1.110   .     S
C985   H988    1.108   .     S
N989   H990    1.030   .     S
N989   C991    1.448   .     S
C991   H994    1.110   .     S
C991   H993    1.106   .     S
C991   H992    1.110   .     S
N995   H996    1.032   .     S
N995   C997    1.446   .     S
C997   H998    1.110   .     S
C997   H999    1.110   .     S
C997   H1000   1.101   .     S
N1001  H1002   1.029   .     S
N1001  C1003   1.444   .     S
C1003  H1006   1.107   .     S
C1003  H1004   1.111   .     S
C1003  H1005   1.110   .     S
N1009  H1010   1.031   .     S
N1009  C1011   1.451   .     S
C1011  H1012   1.102   .     S
C1011  H1013   1.105   .     S
C1011  H1014   1.109   .     S
N1015  C1017   1.451   .     S
N1015  H1016   1.032   .     S
C1017  H1020   1.112   .     S
C1017  H1018   1.108   .     S
C1017  H1019   1.106   .     S
C1021  O1041   1.307   .     A
C1021  O1043   1.316   .     A
C1021  C1032   1.479   .     S
C1022  O1042   1.312   .     A
C1022  C1031   1.465   .     S
C1022  O1044   1.304   .     A
C1023  O1047   1.312   .     A
C1023  C1025   1.438   .     S
C1023  O1045   1.291   .     A
C1024  O1046   1.284   .     A
C1024  C1026   1.440   .     S
C1024  O1048   1.319   .     A
C1025  C1162   1.345   1_455 S
C1025  I1185   2.137   1_455 S
C1026  C1093   1.345   .     S
C1026  I1118   2.137   .     S
C1027  C1032   1.416   .     A
C1027  N1051   1.418   .     S
C1028  C1031   1.411   .     A
C1028  N1057   1.422   .     S
C1028  C622    1.402   1_565 S
C1029  C1031   1.399   .     A
C1029  N1063   1.430   .     S
C1029  C619    1.400   1_565 S
C1030  C1032   1.417   .     A
C1030  N1069   1.429   .     S
C1033  N1040   1.382   .     A
C1033  I1075   2.117   .     S
C1034  I1076   2.129   .     S
C1034  N1039   1.392   .     A
C1034  C1648   1.433   .     S
C1035  N1039   1.368   .     A
C1035  N1077   1.420   .     S
C1035  C1645   1.431   .     S
C1036  N1083   1.426   .     S
C1036  N1040   1.366   .     A
Cu1037 O1045   1.958   .     S
Cu1037 Cu1038  2.725   .     S
Cu1037 N1039   2.048   .     S
Cu1037 O1044   1.988   .     S
Cu1037 O1041   1.969   .     S
Cu1037 O1048   1.951   .     S
Cu1038 O1043   1.988   .     S
Cu1038 N1040   2.048   .     S
Cu1038 O1046   1.958   .     S
Cu1038 O1042   1.969   .     S
Cu1038 O1047   1.951   .     S
I1049  C1093   2.137   .     S
I1050  C1162   2.137   1_455 S
N1051  H1052   1.029   .     S
N1051  C1053   1.448   .     S
C1053  H1054   1.109   .     S
C1053  H1055   1.110   .     S
C1053  H1056   1.108   .     S
N1057  H1058   1.030   .     S
N1057  C1059   1.448   .     S
C1059  H1062   1.110   .     S
C1059  H1061   1.106   .     S
C1059  H1060   1.110   .     S
N1063  H1064   1.032   .     S
N1063  C1065   1.446   .     S
C1065  H1066   1.110   .     S
C1065  H1067   1.110   .     S
C1065  H1068   1.101   .     S
N1069  H1070   1.029   .     S
N1069  C1071   1.444   .     S
C1071  H1074   1.107   .     S
C1071  H1072   1.111   .     S
C1071  H1073   1.110   .     S
N1077  H1078   1.031   .     S
N1077  C1079   1.451   .     S
C1079  H1080   1.102   .     S
C1079  H1081   1.105   .     S
C1079  H1082   1.109   .     S
N1083  C1085   1.451   .     S
N1083  H1084   1.032   .     S
C1085  H1088   1.112   .     S
C1085  H1086   1.108   .     S
C1085  H1087   1.106   .     S
C1089  O1109   1.307   .     A
C1089  O1111   1.316   .     A
C1089  C1100   1.479   .     S
C1090  O1110   1.312   .     A
C1090  C1099   1.465   .     S
C1090  O1112   1.304   .     A
C1091  O1115   1.312   .     A
C1091  C1093   1.438   .     S
C1091  O1113   1.291   .     A
C1092  O1114   1.284   .     A
C1092  C1094   1.440   .     S
C1092  O1116   1.319   .     A
C1094  C1161   1.345   .     S
C1094  I1186   2.137   .     S
C1095  C1100   1.416   .     A
C1095  N1119   1.418   .     S
C1096  C1099   1.411   .     A
C1096  N1125   1.422   .     S
C1096  C690    1.402   1_565 S
C1097  C1099   1.399   .     A
C1097  N1131   1.430   .     S
C1097  C687    1.400   1_565 S
C1098  C1100   1.417   .     A
C1098  N1137   1.429   .     S
C1101  N1108   1.382   .     A
C1101  I1143   2.117   .     S
C1102  I1144   2.129   .     S
C1102  N1107   1.392   .     A
C1102  C1716   1.433   .     S
C1103  N1107   1.368   .     A
C1103  N1145   1.420   .     S
C1103  C1713   1.431   .     S
C1104  N1151   1.426   .     S
C1104  N1108   1.366   .     A
Cu1105 O1113   1.958   .     S
Cu1105 Cu1106  2.725   .     S
Cu1105 N1107   2.048   .     S
Cu1105 O1112   1.988   .     S
Cu1105 O1109   1.969   .     S
Cu1105 O1116   1.951   .     S
Cu1106 O1111   1.988   .     S
Cu1106 N1108   2.048   .     S
Cu1106 O1114   1.958   .     S
Cu1106 O1110   1.969   .     S
Cu1106 O1115   1.951   .     S
I1117  C1161   2.137   .     S
N1119  H1120   1.029   .     S
N1119  C1121   1.448   .     S
C1121  H1122   1.109   .     S
C1121  H1123   1.110   .     S
C1121  H1124   1.108   .     S
N1125  H1126   1.030   .     S
N1125  C1127   1.448   .     S
C1127  H1130   1.110   .     S
C1127  H1129   1.106   .     S
C1127  H1128   1.110   .     S
N1131  H1132   1.032   .     S
N1131  C1133   1.446   .     S
C1133  H1134   1.110   .     S
C1133  H1135   1.110   .     S
C1133  H1136   1.101   .     S
N1137  H1138   1.029   .     S
N1137  C1139   1.444   .     S
C1139  H1142   1.107   .     S
C1139  H1140   1.111   .     S
C1139  H1141   1.110   .     S
N1145  H1146   1.031   .     S
N1145  C1147   1.451   .     S
C1147  H1148   1.102   .     S
C1147  H1149   1.105   .     S
C1147  H1150   1.109   .     S
N1151  C1153   1.451   .     S
N1151  H1152   1.032   .     S
C1153  H1156   1.112   .     S
C1153  H1154   1.108   .     S
C1153  H1155   1.106   .     S
C1157  O1177   1.307   .     A
C1157  O1179   1.316   .     A
C1157  C1168   1.479   .     S
C1158  O1178   1.312   .     A
C1158  C1167   1.465   .     S
C1158  O1180   1.304   .     A
C1159  O1183   1.312   .     A
C1159  C1161   1.438   .     S
C1159  O1181   1.291   .     A
C1160  O1182   1.284   .     A
C1160  C1162   1.440   .     S
C1160  O1184   1.319   .     A
C1162  C1025   1.345   1_655 S
C1162  I1050   2.137   1_655 S
C1163  C1168   1.416   .     A
C1163  N1187   1.418   .     S
C1164  C1167   1.411   .     A
C1164  N1193   1.422   .     S
C1164  C758    1.402   1_565 S
C1165  C1167   1.399   .     A
C1165  N1199   1.430   .     S
C1165  C755    1.400   1_565 S
C1166  C1168   1.417   .     A
C1166  N1205   1.429   .     S
C1169  N1176   1.382   .     A
C1169  I1211   2.117   .     S
C1170  I1212   2.129   .     S
C1170  N1175   1.392   .     A
C1170  C1784   1.433   .     S
C1171  N1175   1.368   .     A
C1171  N1213   1.420   .     S
C1171  C1781   1.431   .     S
C1172  N1219   1.426   .     S
C1172  N1176   1.366   .     A
Cu1173 O1181   1.958   .     S
Cu1173 Cu1174  2.725   .     S
Cu1173 N1175   2.048   .     S
Cu1173 O1180   1.988   .     S
Cu1173 O1177   1.969   .     S
Cu1173 O1184   1.951   .     S
Cu1174 O1179   1.988   .     S
Cu1174 N1176   2.048   .     S
Cu1174 O1182   1.958   .     S
Cu1174 O1178   1.969   .     S
Cu1174 O1183   1.951   .     S
I1185  C1025   2.137   1_655 S
N1187  H1188   1.029   .     S
N1187  C1189   1.448   .     S
C1189  H1190   1.109   .     S
C1189  H1191   1.110   .     S
C1189  H1192   1.108   .     S
N1193  H1194   1.030   .     S
N1193  C1195   1.448   .     S
C1195  H1198   1.110   .     S
C1195  H1197   1.106   .     S
C1195  H1196   1.110   .     S
N1199  H1200   1.032   .     S
N1199  C1201   1.446   .     S
C1201  H1202   1.110   .     S
C1201  H1203   1.110   .     S
C1201  H1204   1.101   .     S
N1205  H1206   1.029   .     S
N1205  C1207   1.444   .     S
C1207  H1210   1.107   .     S
C1207  H1208   1.111   .     S
C1207  H1209   1.110   .     S
N1213  H1214   1.031   .     S
N1213  C1215   1.451   .     S
C1215  H1216   1.102   .     S
C1215  H1217   1.105   .     S
C1215  H1218   1.109   .     S
N1219  C1221   1.451   .     S
N1219  H1220   1.032   .     S
C1221  H1224   1.112   .     S
C1221  H1222   1.108   .     S
C1221  H1223   1.106   .     S
C1225  O1245   1.307   .     A
C1225  O1247   1.316   .     A
C1225  C1236   1.479   .     S
C1226  O1246   1.312   .     A
C1226  C1235   1.465   .     S
C1226  O1248   1.304   .     A
C1227  O1251   1.312   .     A
C1227  C1229   1.438   .     S
C1227  O1249   1.291   .     A
C1228  O1250   1.284   .     A
C1228  C1230   1.440   .     S
C1228  O1252   1.319   .     A
C1229  C1366   1.345   1_455 S
C1229  I1389   2.137   1_455 S
C1230  C1297   1.345   .     S
C1230  I1322   2.137   .     S
C1231  C1236   1.416   .     A
C1231  N1255   1.418   .     S
C1231  C1641   1.400   1_545 S
C1232  C1235   1.411   .     A
C1232  N1261   1.422   .     S
C1232  C1438   1.402   .     S
C1233  C1235   1.399   .     A
C1233  N1267   1.430   .     S
C1233  C1435   1.400   .     S
C1234  C1236   1.417   .     A
C1234  N1273   1.429   .     S
C1234  C1640   1.402   1_545 S
C1237  N1244   1.382   .     A
C1237  I1279   2.117   .     S
C1238  I1280   2.129   .     S
C1238  N1243   1.392   .     A
C1238  C16     1.433   1_556 S
C1239  N1243   1.368   .     A
C1239  N1281   1.420   .     S
C1239  C13     1.431   1_556 S
C1240  N1287   1.426   .     S
C1240  N1244   1.366   .     A
Cu1241 O1249   1.958   .     S
Cu1241 Cu1242  2.725   .     S
Cu1241 N1243   2.048   .     S
Cu1241 O1248   1.988   .     S
Cu1241 O1245   1.969   .     S
Cu1241 O1252   1.951   .     S
Cu1242 O1247   1.988   .     S
Cu1242 N1244   2.048   .     S
Cu1242 O1250   1.958   .     S
Cu1242 O1246   1.969   .     S
Cu1242 O1251   1.951   .     S
I1253  C1297   2.137   .     S
I1254  C1366   2.137   1_455 S
N1255  H1256   1.029   .     S
N1255  C1257   1.448   .     S
C1257  H1258   1.109   .     S
C1257  H1259   1.110   .     S
C1257  H1260   1.108   .     S
N1261  H1262   1.030   .     S
N1261  C1263   1.448   .     S
C1263  H1266   1.110   .     S
C1263  H1265   1.106   .     S
C1263  H1264   1.110   .     S
N1267  H1268   1.032   .     S
N1267  C1269   1.446   .     S
C1269  H1270   1.110   .     S
C1269  H1271   1.110   .     S
C1269  H1272   1.101   .     S
N1273  H1274   1.029   .     S
N1273  C1275   1.444   .     S
C1275  H1278   1.107   .     S
C1275  H1276   1.111   .     S
C1275  H1277   1.110   .     S
N1281  H1282   1.031   .     S
N1281  C1283   1.451   .     S
C1283  H1284   1.102   .     S
C1283  H1285   1.105   .     S
C1283  H1286   1.109   .     S
N1287  C1289   1.451   .     S
N1287  H1288   1.032   .     S
C1289  H1292   1.112   .     S
C1289  H1290   1.108   .     S
C1289  H1291   1.106   .     S
C1293  O1313   1.307   .     A
C1293  O1315   1.316   .     A
C1293  C1304   1.479   .     S
C1294  O1314   1.312   .     A
C1294  C1303   1.465   .     S
C1294  O1316   1.304   .     A
C1295  O1319   1.312   .     A
C1295  C1297   1.438   .     S
C1295  O1317   1.291   .     A
C1296  O1318   1.284   .     A
C1296  C1298   1.440   .     S
C1296  O1320   1.319   .     A
C1298  C1365   1.345   .     S
C1298  I1390   2.137   .     S
C1299  C1304   1.416   .     A
C1299  N1323   1.418   .     S
C1299  C1709   1.400   1_545 S
C1300  C1303   1.411   .     A
C1300  N1329   1.422   .     S
C1300  C1506   1.402   .     S
C1301  C1303   1.399   .     A
C1301  N1335   1.430   .     S
C1301  C1503   1.400   .     S
C1302  C1304   1.417   .     A
C1302  N1341   1.429   .     S
C1302  C1708   1.402   1_545 S
C1305  N1312   1.382   .     A
C1305  I1347   2.117   .     S
C1306  I1348   2.129   .     S
C1306  N1311   1.392   .     A
C1306  C84     1.433   1_556 S
C1307  N1311   1.368   .     A
C1307  N1349   1.420   .     S
C1307  C81     1.431   1_556 S
C1308  N1355   1.426   .     S
C1308  N1312   1.366   .     A
Cu1309 O1317   1.958   .     S
Cu1309 Cu1310  2.725   .     S
Cu1309 N1311   2.048   .     S
Cu1309 O1316   1.988   .     S
Cu1309 O1313   1.969   .     S
Cu1309 O1320   1.951   .     S
Cu1310 O1315   1.988   .     S
Cu1310 N1312   2.048   .     S
Cu1310 O1318   1.958   .     S
Cu1310 O1314   1.969   .     S
Cu1310 O1319   1.951   .     S
I1321  C1365   2.137   .     S
N1323  H1324   1.029   .     S
N1323  C1325   1.448   .     S
C1325  H1326   1.109   .     S
C1325  H1327   1.110   .     S
C1325  H1328   1.108   .     S
N1329  H1330   1.030   .     S
N1329  C1331   1.448   .     S
C1331  H1334   1.110   .     S
C1331  H1333   1.106   .     S
C1331  H1332   1.110   .     S
N1335  H1336   1.032   .     S
N1335  C1337   1.446   .     S
C1337  H1338   1.110   .     S
C1337  H1339   1.110   .     S
C1337  H1340   1.101   .     S
N1341  H1342   1.029   .     S
N1341  C1343   1.444   .     S
C1343  H1346   1.107   .     S
C1343  H1344   1.111   .     S
C1343  H1345   1.110   .     S
N1349  H1350   1.031   .     S
N1349  C1351   1.451   .     S
C1351  H1352   1.102   .     S
C1351  H1353   1.105   .     S
C1351  H1354   1.109   .     S
N1355  C1357   1.451   .     S
N1355  H1356   1.032   .     S
C1357  H1360   1.112   .     S
C1357  H1358   1.108   .     S
C1357  H1359   1.106   .     S
C1361  O1381   1.307   .     A
C1361  O1383   1.316   .     A
C1361  C1372   1.479   .     S
C1362  O1382   1.312   .     A
C1362  C1371   1.465   .     S
C1362  O1384   1.304   .     A
C1363  O1387   1.312   .     A
C1363  C1365   1.438   .     S
C1363  O1385   1.291   .     A
C1364  O1386   1.284   .     A
C1364  C1366   1.440   .     S
C1364  O1388   1.319   .     A
C1366  C1229   1.345   1_655 S
C1366  I1254   2.137   1_655 S
C1367  C1372   1.416   .     A
C1367  N1391   1.418   .     S
C1367  C1777   1.400   1_545 S
C1368  C1371   1.411   .     A
C1368  N1397   1.422   .     S
C1368  C1574   1.402   .     S
C1369  C1371   1.399   .     A
C1369  N1403   1.430   .     S
C1369  C1571   1.400   .     S
C1370  C1372   1.417   .     A
C1370  N1409   1.429   .     S
C1370  C1776   1.402   1_545 S
C1373  N1380   1.382   .     A
C1373  I1415   2.117   .     S
C1374  I1416   2.129   .     S
C1374  N1379   1.392   .     A
C1374  C152    1.433   1_556 S
C1375  N1379   1.368   .     A
C1375  N1417   1.420   .     S
C1375  C149    1.431   1_556 S
C1376  N1423   1.426   .     S
C1376  N1380   1.366   .     A
Cu1377 O1385   1.958   .     S
Cu1377 Cu1378  2.725   .     S
Cu1377 N1379   2.048   .     S
Cu1377 O1384   1.988   .     S
Cu1377 O1381   1.969   .     S
Cu1377 O1388   1.951   .     S
Cu1378 O1383   1.988   .     S
Cu1378 N1380   2.048   .     S
Cu1378 O1386   1.958   .     S
Cu1378 O1382   1.969   .     S
Cu1378 O1387   1.951   .     S
I1389  C1229   2.137   1_655 S
N1391  H1392   1.029   .     S
N1391  C1393   1.448   .     S
C1393  H1394   1.109   .     S
C1393  H1395   1.110   .     S
C1393  H1396   1.108   .     S
N1397  H1398   1.030   .     S
N1397  C1399   1.448   .     S
C1399  H1402   1.110   .     S
C1399  H1401   1.106   .     S
C1399  H1400   1.110   .     S
N1403  H1404   1.032   .     S
N1403  C1405   1.446   .     S
C1405  H1406   1.110   .     S
C1405  H1407   1.110   .     S
C1405  H1408   1.101   .     S
N1409  H1410   1.029   .     S
N1409  C1411   1.444   .     S
C1411  H1414   1.107   .     S
C1411  H1412   1.111   .     S
C1411  H1413   1.110   .     S
N1417  H1418   1.031   .     S
N1417  C1419   1.451   .     S
C1419  H1420   1.102   .     S
C1419  H1421   1.105   .     S
C1419  H1422   1.109   .     S
N1423  C1425   1.451   .     S
N1423  H1424   1.032   .     S
C1425  H1428   1.112   .     S
C1425  H1426   1.108   .     S
C1425  H1427   1.106   .     S
C1429  O1449   1.307   .     A
C1429  O1451   1.316   .     A
C1429  C1440   1.479   .     S
C1430  O1450   1.312   .     A
C1430  C1439   1.465   .     S
C1430  O1452   1.304   .     A
C1431  O1455   1.312   .     A
C1431  C1433   1.438   .     S
C1431  O1453   1.291   .     A
C1432  O1454   1.284   .     A
C1432  C1434   1.440   .     S
C1432  O1456   1.319   .     A
C1433  C1570   1.345   1_455 S
C1433  I1593   2.137   1_455 S
C1434  C1501   1.345   .     S
C1434  I1526   2.137   .     S
C1435  C1440   1.416   .     A
C1435  N1459   1.418   .     S
C1436  C1439   1.411   .     A
C1436  N1465   1.422   .     S
C1436  C1642   1.402   .     S
C1437  C1439   1.399   .     A
C1437  N1471   1.430   .     S
C1437  C1639   1.400   .     S
C1438  C1440   1.417   .     A
C1438  N1477   1.429   .     S
C1441  N1448   1.382   .     A
C1441  I1483   2.117   .     S
C1442  I1484   2.129   .     S
C1442  N1447   1.392   .     A
C1442  C220    1.433   1_556 S
C1443  N1447   1.368   .     A
C1443  N1485   1.420   .     S
C1443  C217    1.431   1_556 S
C1444  N1491   1.426   .     S
C1444  N1448   1.366   .     A
Cu1445 O1453   1.958   .     S
Cu1445 Cu1446  2.725   .     S
Cu1445 N1447   2.048   .     S
Cu1445 O1452   1.988   .     S
Cu1445 O1449   1.969   .     S
Cu1445 O1456   1.951   .     S
Cu1446 O1451   1.988   .     S
Cu1446 N1448   2.048   .     S
Cu1446 O1454   1.958   .     S
Cu1446 O1450   1.969   .     S
Cu1446 O1455   1.951   .     S
I1457  C1501   2.137   .     S
I1458  C1570   2.137   1_455 S
N1459  H1460   1.029   .     S
N1459  C1461   1.448   .     S
C1461  H1462   1.109   .     S
C1461  H1463   1.110   .     S
C1461  H1464   1.108   .     S
N1465  H1466   1.030   .     S
N1465  C1467   1.448   .     S
C1467  H1470   1.110   .     S
C1467  H1469   1.106   .     S
C1467  H1468   1.110   .     S
N1471  H1472   1.032   .     S
N1471  C1473   1.446   .     S
C1473  H1474   1.110   .     S
C1473  H1475   1.110   .     S
C1473  H1476   1.101   .     S
N1477  H1478   1.029   .     S
N1477  C1479   1.444   .     S
C1479  H1482   1.107   .     S
C1479  H1480   1.111   .     S
C1479  H1481   1.110   .     S
N1485  H1486   1.031   .     S
N1485  C1487   1.451   .     S
C1487  H1488   1.102   .     S
C1487  H1489   1.105   .     S
C1487  H1490   1.109   .     S
N1491  C1493   1.451   .     S
N1491  H1492   1.032   .     S
C1493  H1496   1.112   .     S
C1493  H1494   1.108   .     S
C1493  H1495   1.106   .     S
C1497  O1517   1.307   .     A
C1497  O1519   1.316   .     A
C1497  C1508   1.479   .     S
C1498  O1518   1.312   .     A
C1498  C1507   1.465   .     S
C1498  O1520   1.304   .     A
C1499  O1523   1.312   .     A
C1499  C1501   1.438   .     S
C1499  O1521   1.291   .     A
C1500  O1522   1.284   .     A
C1500  C1502   1.440   .     S
C1500  O1524   1.319   .     A
C1502  C1569   1.345   .     S
C1502  I1594   2.137   .     S
C1503  C1508   1.416   .     A
C1503  N1527   1.418   .     S
C1504  C1507   1.411   .     A
C1504  N1533   1.422   .     S
C1504  C1710   1.402   .     S
C1505  C1507   1.399   .     A
C1505  N1539   1.430   .     S
C1505  C1707   1.400   .     S
C1506  C1508   1.417   .     A
C1506  N1545   1.429   .     S
C1509  N1516   1.382   .     A
C1509  I1551   2.117   .     S
C1510  I1552   2.129   .     S
C1510  N1515   1.392   .     A
C1510  C288    1.433   1_556 S
C1511  N1515   1.368   .     A
C1511  N1553   1.420   .     S
C1511  C285    1.431   1_556 S
C1512  N1559   1.426   .     S
C1512  N1516   1.366   .     A
Cu1513 O1521   1.958   .     S
Cu1513 Cu1514  2.725   .     S
Cu1513 N1515   2.048   .     S
Cu1513 O1520   1.988   .     S
Cu1513 O1517   1.969   .     S
Cu1513 O1524   1.951   .     S
Cu1514 O1519   1.988   .     S
Cu1514 N1516   2.048   .     S
Cu1514 O1522   1.958   .     S
Cu1514 O1518   1.969   .     S
Cu1514 O1523   1.951   .     S
I1525  C1569   2.137   .     S
N1527  H1528   1.029   .     S
N1527  C1529   1.448   .     S
C1529  H1530   1.109   .     S
C1529  H1531   1.110   .     S
C1529  H1532   1.108   .     S
N1533  H1534   1.030   .     S
N1533  C1535   1.448   .     S
C1535  H1538   1.110   .     S
C1535  H1537   1.106   .     S
C1535  H1536   1.110   .     S
N1539  H1540   1.032   .     S
N1539  C1541   1.446   .     S
C1541  H1542   1.110   .     S
C1541  H1543   1.110   .     S
C1541  H1544   1.101   .     S
N1545  H1546   1.029   .     S
N1545  C1547   1.444   .     S
C1547  H1550   1.107   .     S
C1547  H1548   1.111   .     S
C1547  H1549   1.110   .     S
N1553  H1554   1.031   .     S
N1553  C1555   1.451   .     S
C1555  H1556   1.102   .     S
C1555  H1557   1.105   .     S
C1555  H1558   1.109   .     S
N1559  C1561   1.451   .     S
N1559  H1560   1.032   .     S
C1561  H1564   1.112   .     S
C1561  H1562   1.108   .     S
C1561  H1563   1.106   .     S
C1565  O1585   1.307   .     A
C1565  O1587   1.316   .     A
C1565  C1576   1.479   .     S
C1566  O1586   1.312   .     A
C1566  C1575   1.465   .     S
C1566  O1588   1.304   .     A
C1567  O1591   1.312   .     A
C1567  C1569   1.438   .     S
C1567  O1589   1.291   .     A
C1568  O1590   1.284   .     A
C1568  C1570   1.440   .     S
C1568  O1592   1.319   .     A
C1570  C1433   1.345   1_655 S
C1570  I1458   2.137   1_655 S
C1571  C1576   1.416   .     A
C1571  N1595   1.418   .     S
C1572  C1575   1.411   .     A
C1572  N1601   1.422   .     S
C1572  C1778   1.402   .     S
C1573  C1575   1.399   .     A
C1573  N1607   1.430   .     S
C1573  C1775   1.400   .     S
C1574  C1576   1.417   .     A
C1574  N1613   1.429   .     S
C1577  N1584   1.382   .     A
C1577  I1619   2.117   .     S
C1578  I1620   2.129   .     S
C1578  N1583   1.392   .     A
C1578  C356    1.433   1_556 S
C1579  N1583   1.368   .     A
C1579  N1621   1.420   .     S
C1579  C353    1.431   1_556 S
C1580  N1627   1.426   .     S
C1580  N1584   1.366   .     A
Cu1581 O1589   1.958   .     S
Cu1581 Cu1582  2.725   .     S
Cu1581 N1583   2.048   .     S
Cu1581 O1588   1.988   .     S
Cu1581 O1585   1.969   .     S
Cu1581 O1592   1.951   .     S
Cu1582 O1587   1.988   .     S
Cu1582 N1584   2.048   .     S
Cu1582 O1590   1.958   .     S
Cu1582 O1586   1.969   .     S
Cu1582 O1591   1.951   .     S
I1593  C1433   2.137   1_655 S
N1595  H1596   1.029   .     S
N1595  C1597   1.448   .     S
C1597  H1598   1.109   .     S
C1597  H1599   1.110   .     S
C1597  H1600   1.108   .     S
N1601  H1602   1.030   .     S
N1601  C1603   1.448   .     S
C1603  H1606   1.110   .     S
C1603  H1605   1.106   .     S
C1603  H1604   1.110   .     S
N1607  H1608   1.032   .     S
N1607  C1609   1.446   .     S
C1609  H1610   1.110   .     S
C1609  H1611   1.110   .     S
C1609  H1612   1.101   .     S
N1613  H1614   1.029   .     S
N1613  C1615   1.444   .     S
C1615  H1618   1.107   .     S
C1615  H1616   1.111   .     S
C1615  H1617   1.110   .     S
N1621  H1622   1.031   .     S
N1621  C1623   1.451   .     S
C1623  H1624   1.102   .     S
C1623  H1625   1.105   .     S
C1623  H1626   1.109   .     S
N1627  C1629   1.451   .     S
N1627  H1628   1.032   .     S
C1629  H1632   1.112   .     S
C1629  H1630   1.108   .     S
C1629  H1631   1.106   .     S
C1633  O1653   1.307   .     A
C1633  O1655   1.316   .     A
C1633  C1644   1.479   .     S
C1634  O1654   1.312   .     A
C1634  C1643   1.465   .     S
C1634  O1656   1.304   .     A
C1635  O1659   1.312   .     A
C1635  C1637   1.438   .     S
C1635  O1657   1.291   .     A
C1636  O1658   1.284   .     A
C1636  C1638   1.440   .     S
C1636  O1660   1.319   .     A
C1637  C1774   1.345   1_455 S
C1637  I1797   2.137   1_455 S
C1638  C1705   1.345   .     S
C1638  I1730   2.137   .     S
C1639  C1644   1.416   .     A
C1639  N1663   1.418   .     S
C1640  C1643   1.411   .     A
C1640  N1669   1.422   .     S
C1640  C1234   1.402   1_565 S
C1641  C1643   1.399   .     A
C1641  N1675   1.430   .     S
C1641  C1231   1.400   1_565 S
C1642  C1644   1.417   .     A
C1642  N1681   1.429   .     S
C1645  N1652   1.382   .     A
C1645  I1687   2.117   .     S
C1646  I1688   2.129   .     S
C1646  N1651   1.392   .     A
C1646  C424    1.433   1_556 S
C1647  N1651   1.368   .     A
C1647  N1689   1.420   .     S
C1647  C421    1.431   1_556 S
C1648  N1695   1.426   .     S
C1648  N1652   1.366   .     A
Cu1649 O1657   1.958   .     S
Cu1649 Cu1650  2.725   .     S
Cu1649 N1651   2.048   .     S
Cu1649 O1656   1.988   .     S
Cu1649 O1653   1.969   .     S
Cu1649 O1660   1.951   .     S
Cu1650 O1655   1.988   .     S
Cu1650 N1652   2.048   .     S
Cu1650 O1658   1.958   .     S
Cu1650 O1654   1.969   .     S
Cu1650 O1659   1.951   .     S
I1661  C1705   2.137   .     S
I1662  C1774   2.137   1_455 S
N1663  H1664   1.029   .     S
N1663  C1665   1.448   .     S
C1665  H1666   1.109   .     S
C1665  H1667   1.110   .     S
C1665  H1668   1.108   .     S
N1669  H1670   1.030   .     S
N1669  C1671   1.448   .     S
C1671  H1674   1.110   .     S
C1671  H1673   1.106   .     S
C1671  H1672   1.110   .     S
N1675  H1676   1.032   .     S
N1675  C1677   1.446   .     S
C1677  H1678   1.110   .     S
C1677  H1679   1.110   .     S
C1677  H1680   1.101   .     S
N1681  H1682   1.029   .     S
N1681  C1683   1.444   .     S
C1683  H1686   1.107   .     S
C1683  H1684   1.111   .     S
C1683  H1685   1.110   .     S
N1689  H1690   1.031   .     S
N1689  C1691   1.451   .     S
C1691  H1692   1.102   .     S
C1691  H1693   1.105   .     S
C1691  H1694   1.109   .     S
N1695  C1697   1.451   .     S
N1695  H1696   1.032   .     S
C1697  H1700   1.112   .     S
C1697  H1698   1.108   .     S
C1697  H1699   1.106   .     S
C1701  O1721   1.307   .     A
C1701  O1723   1.316   .     A
C1701  C1712   1.479   .     S
C1702  O1722   1.312   .     A
C1702  C1711   1.465   .     S
C1702  O1724   1.304   .     A
C1703  O1727   1.312   .     A
C1703  C1705   1.438   .     S
C1703  O1725   1.291   .     A
C1704  O1726   1.284   .     A
C1704  C1706   1.440   .     S
C1704  O1728   1.319   .     A
C1706  C1773   1.345   .     S
C1706  I1798   2.137   .     S
C1707  C1712   1.416   .     A
C1707  N1731   1.418   .     S
C1708  C1711   1.411   .     A
C1708  N1737   1.422   .     S
C1708  C1302   1.402   1_565 S
C1709  C1711   1.399   .     A
C1709  N1743   1.430   .     S
C1709  C1299   1.400   1_565 S
C1710  C1712   1.417   .     A
C1710  N1749   1.429   .     S
C1713  N1720   1.382   .     A
C1713  I1755   2.117   .     S
C1714  I1756   2.129   .     S
C1714  N1719   1.392   .     A
C1714  C492    1.433   1_556 S
C1715  N1719   1.368   .     A
C1715  N1757   1.420   .     S
C1715  C489    1.431   1_556 S
C1716  N1763   1.426   .     S
C1716  N1720   1.366   .     A
Cu1717 O1725   1.958   .     S
Cu1717 Cu1718  2.725   .     S
Cu1717 N1719   2.048   .     S
Cu1717 O1724   1.988   .     S
Cu1717 O1721   1.969   .     S
Cu1717 O1728   1.951   .     S
Cu1718 O1723   1.988   .     S
Cu1718 N1720   2.048   .     S
Cu1718 O1726   1.958   .     S
Cu1718 O1722   1.969   .     S
Cu1718 O1727   1.951   .     S
I1729  C1773   2.137   .     S
N1731  H1732   1.029   .     S
N1731  C1733   1.448   .     S
C1733  H1734   1.109   .     S
C1733  H1735   1.110   .     S
C1733  H1736   1.108   .     S
N1737  H1738   1.030   .     S
N1737  C1739   1.448   .     S
C1739  H1742   1.110   .     S
C1739  H1741   1.106   .     S
C1739  H1740   1.110   .     S
N1743  H1744   1.032   .     S
N1743  C1745   1.446   .     S
C1745  H1746   1.110   .     S
C1745  H1747   1.110   .     S
C1745  H1748   1.101   .     S
N1749  H1750   1.029   .     S
N1749  C1751   1.444   .     S
C1751  H1754   1.107   .     S
C1751  H1752   1.111   .     S
C1751  H1753   1.110   .     S
N1757  H1758   1.031   .     S
N1757  C1759   1.451   .     S
C1759  H1760   1.102   .     S
C1759  H1761   1.105   .     S
C1759  H1762   1.109   .     S
N1763  C1765   1.451   .     S
N1763  H1764   1.032   .     S
C1765  H1768   1.112   .     S
C1765  H1766   1.108   .     S
C1765  H1767   1.106   .     S
C1769  O1789   1.307   .     A
C1769  O1791   1.316   .     A
C1769  C1780   1.479   .     S
C1770  O1790   1.312   .     A
C1770  C1779   1.465   .     S
C1770  O1792   1.304   .     A
C1771  O1795   1.312   .     A
C1771  C1773   1.438   .     S
C1771  O1793   1.291   .     A
C1772  O1794   1.284   .     A
C1772  C1774   1.440   .     S
C1772  O1796   1.319   .     A
C1774  C1637   1.345   1_655 S
C1774  I1662   2.137   1_655 S
C1775  C1780   1.416   .     A
C1775  N1799   1.418   .     S
C1776  C1779   1.411   .     A
C1776  N1805   1.422   .     S
C1776  C1370   1.402   1_565 S
C1777  C1779   1.399   .     A
C1777  N1811   1.430   .     S
C1777  C1367   1.400   1_565 S
C1778  C1780   1.417   .     A
C1778  N1817   1.429   .     S
C1781  N1788   1.382   .     A
C1781  I1823   2.117   .     S
C1782  I1824   2.129   .     S
C1782  N1787   1.392   .     A
C1782  C560    1.433   1_556 S
C1783  N1787   1.368   .     A
C1783  N1825   1.420   .     S
C1783  C557    1.431   1_556 S
C1784  N1831   1.426   .     S
C1784  N1788   1.366   .     A
Cu1785 O1793   1.958   .     S
Cu1785 Cu1786  2.725   .     S
Cu1785 N1787   2.048   .     S
Cu1785 O1792   1.988   .     S
Cu1785 O1789   1.969   .     S
Cu1785 O1796   1.951   .     S
Cu1786 O1791   1.988   .     S
Cu1786 N1788   2.048   .     S
Cu1786 O1794   1.958   .     S
Cu1786 O1790   1.969   .     S
Cu1786 O1795   1.951   .     S
I1797  C1637   2.137   1_655 S
N1799  H1800   1.029   .     S
N1799  C1801   1.448   .     S
C1801  H1802   1.109   .     S
C1801  H1803   1.110   .     S
C1801  H1804   1.108   .     S
N1805  H1806   1.030   .     S
N1805  C1807   1.448   .     S
C1807  H1810   1.110   .     S
C1807  H1809   1.106   .     S
C1807  H1808   1.110   .     S
N1811  H1812   1.032   .     S
N1811  C1813   1.446   .     S
C1813  H1814   1.110   .     S
C1813  H1815   1.110   .     S
C1813  H1816   1.101   .     S
N1817  H1818   1.029   .     S
N1817  C1819   1.444   .     S
C1819  H1822   1.107   .     S
C1819  H1820   1.111   .     S
C1819  H1821   1.110   .     S
N1825  H1826   1.031   .     S
N1825  C1827   1.451   .     S
C1827  H1828   1.102   .     S
C1827  H1829   1.105   .     S
C1827  H1830   1.109   .     S
N1831  C1833   1.451   .     S
N1831  H1832   1.032   .     S
C1833  H1836   1.112   .     S
C1833  H1834   1.108   .     S
C1833  H1835   1.106   .     S
