data_str_m2_o1_o16_pcu_sym.2
_audit_creation_date              2020-01-03
_audit_creation_method            'Materials Studio'
_symmetry_space_group_name_H-M    'P1'
_symmetry_Int_Tables_number       1
_symmetry_cell_setting            triclinic
loop_
_symmetry_equiv_pos_as_xyz
  x,y,z
_cell_length_a                    28.5312
_cell_length_b                    32.4129
_cell_length_c                    26.8669
_cell_angle_alpha                 90.4303
_cell_angle_beta                  72.4379
_cell_angle_gamma                 90.2979
loop_
_atom_site_label
_atom_site_type_symbol
_atom_site_fract_x
_atom_site_fract_y
_atom_site_fract_z
_atom_site_U_iso_or_equiv
_atom_site_adp_type
_atom_site_occupancy
C1     C     0.16712   0.24597   0.24899   0.00000  Uiso   1.00
C2     C     0.12440   0.16577   0.40769   0.00000  Uiso   1.00
C3     C     0.21173   0.31238   0.22482   0.00000  Uiso   1.00
C4     C     0.14037   0.16522   0.35017   0.00000  Uiso   1.00
C5     C     0.21053   0.02203   0.22477   0.00000  Uiso   1.00
C6     C     0.16674   0.04289   0.24893   0.00000  Uiso   1.00
C7     C     0.12324   0.02114   0.27165   0.00000  Uiso   1.00
C8     C     0.12373   0.31181   0.27122   0.00000  Uiso   1.00
C9     C     0.16772   0.29065   0.24810   0.00000  Uiso   1.00
C10    C     0.29882   0.19048   0.28476   0.00000  Uiso   1.00
C11    C     0.01513   0.19052   0.28470   0.00000  Uiso   1.00
C12    C     0.14500   0.16423   0.48959   0.00000  Uiso   1.00
C13    C     0.03444   0.14261   0.21549   0.00000  Uiso   1.00
C14    C     0.31814   0.14262   0.21550   0.00000  Uiso   1.00
C15    C     0.16662   0.08741   0.24974   0.00000  Uiso   1.00
C16    C     0.19292   0.16590   0.15001   0.00000  Uiso   1.00
C17    C     0.25980   0.12739   0.01548   0.00000  Uiso   1.00
C18    C     0.20770   0.15993   0.09354   0.00000  Uiso   1.00
C19    C     0.07882   0.18370   0.43377   0.00000  Uiso   1.00
C20    C     0.06523   0.19172   0.48789   0.00000  Uiso   1.00
C21    C     0.09854   0.18201   0.01477   0.00000  Uiso   1.00
C22    C     0.32618   0.22677   0.48793   0.00000  Uiso   1.00
C23    C     0.15604   0.15294   0.43632   0.00000  Uiso   1.00
C24    C     0.28348   0.25080   0.02463   0.00000  Uiso   1.00
C25    C     0.24818   0.26625   0.49612   0.00000  Uiso   1.00
C26    C     0.29220   0.29674   0.21761   0.00000  Uiso   1.00
C27    C     0.00829   0.29232   0.17506   0.00000  Uiso   1.00
C28    C     0.01455   0.24982   0.14900   0.00000  Uiso   1.00
C29    C     0.18063   0.15674   0.01586   0.00000  Uiso   1.00
C30    C     0.22449   0.13513   0.48995   0.00000  Uiso   1.00
C31    C     0.23207   0.12048   0.43935   0.00000  Uiso   1.00
C32    C     0.19804   0.12860   0.41323   0.00000  Uiso   1.00
C33    C     0.17413   0.17018   0.06720   0.00000  Uiso   1.00
C34    C     0.25128   0.13948   0.06727   0.00000  Uiso   1.00
Cu35   Cu    0.11978   0.16666   0.25000   0.00000  Uiso   1.00
Cu36   Cu    0.21355   0.16667   0.25000   0.00000  Uiso   1.00
H37    H     0.08981   0.29532   0.28947   0.00000  Uiso   1.00
H38    H     0.24350   0.03909   0.20465   0.00000  Uiso   1.00
H39    H     0.08911   0.03713   0.29023   0.00000  Uiso   1.00
H40    H     0.27237   0.20964   0.31253   0.00000  Uiso   1.00
H41    H     0.30712   0.12342   0.18784   0.00000  Uiso   1.00
H42    H     0.05481   0.19203   0.41113   0.00000  Uiso   1.00
H43    H     0.31101   0.20219   0.46801   0.00000  Uiso   1.00
H44    H     0.01566   0.24887   0.45890   0.00000  Uiso   1.00
H45    H     0.26300   0.23075   0.05733   0.00000  Uiso   1.00
H46    H     0.29816   0.27756   0.04144   0.00000  Uiso   1.00
H47    H     0.26769   0.28705   0.46374   0.00000  Uiso   1.00
H48    H     0.02611   0.20970   0.31239   0.00000  Uiso   1.00
H49    H     0.21776   0.28362   0.02381   0.00000  Uiso   1.00
H50    H     0.23221   0.23985   0.48008   0.00000  Uiso   1.00
H51    H     0.28905   0.27278   0.24779   0.00000  Uiso   1.00
H52    H     0.29241   0.32740   0.23661   0.00000  Uiso   1.00
H53    H     0.01132   0.31636   0.14496   0.00000  Uiso   1.00
H54    H     0.03848   0.29738   0.19268   0.00000  Uiso   1.00
H55    H     0.01334   0.22556   0.17819   0.00000  Uiso   1.00
H56    H     0.05074   0.24831   0.11839   0.00000  Uiso   1.00
H57    H     0.31857   0.24388   0.13044   0.00000  Uiso   1.00
H58    H     0.06085   0.12333   0.18785   0.00000  Uiso   1.00
H59    H     0.26440   0.10246   0.41987   0.00000  Uiso   1.00
H60    H     0.29337   0.11099   0.49582   0.00000  Uiso   1.00
H61    H     0.14283   0.18830   0.08830   0.00000  Uiso   1.00
H62    H     0.08608   0.18809   0.05613   0.00000  Uiso   1.00
H63    H     0.20468   0.11451   0.37518   0.00000  Uiso   1.00
H64    H     0.27768   0.13142   0.08729   0.00000  Uiso   1.00
N65    N     0.04931   0.16666   0.24998   0.00000  Uiso   1.00
N66    N     0.28402   0.16669   0.24999   0.00000  Uiso   1.00
O67    O     0.12708   0.22678   0.25000   0.00000  Uiso   1.00
O68    O     0.25342   0.29178   0.19529   0.00000  Uiso   1.00
O69    O     0.20627   0.22679   0.25000   0.00000  Uiso   1.00
O70    O     0.10775   0.16665   0.32549   0.00000  Uiso   1.00
O71    O     0.18694   0.16666   0.32549   0.00000  Uiso   1.00
O72    O     0.12706   0.10654   0.24999   0.00000  Uiso   1.00
O73    O     0.20625   0.10655   0.24999   0.00000  Uiso   1.00
O74    O     0.14640   0.16667   0.17451   0.00000  Uiso   1.00
O75    O     0.22559   0.16668   0.17451   0.00000  Uiso   1.00
O76    O     0.02054   0.20875   0.01761   0.00000  Uiso   1.00
C77    C     0.50045   0.24597   0.24899   0.00000  Uiso   1.00
C78    C     0.45773   0.16577   0.40769   0.00000  Uiso   1.00
C79    C     0.54506   0.31238   0.22482   0.00000  Uiso   1.00
C80    C     0.47371   0.16522   0.35017   0.00000  Uiso   1.00
C81    C     0.54386   0.02203   0.22477   0.00000  Uiso   1.00
C82    C     0.50008   0.04289   0.24893   0.00000  Uiso   1.00
C83    C     0.45657   0.02114   0.27165   0.00000  Uiso   1.00
C84    C     0.45706   0.31181   0.27122   0.00000  Uiso   1.00
C85    C     0.50105   0.29065   0.24810   0.00000  Uiso   1.00
C86    C     0.63215   0.19048   0.28476   0.00000  Uiso   1.00
C87    C     0.34846   0.19052   0.28470   0.00000  Uiso   1.00
C88    C     0.47833   0.16423   0.48959   0.00000  Uiso   1.00
C89    C     0.36777   0.14261   0.21549   0.00000  Uiso   1.00
C90    C     0.65147   0.14262   0.21550   0.00000  Uiso   1.00
C91    C     0.49995   0.08741   0.24974   0.00000  Uiso   1.00
C92    C     0.52626   0.16590   0.15001   0.00000  Uiso   1.00
C93    C     0.59314   0.12739   0.01548   0.00000  Uiso   1.00
C94    C     0.54103   0.15993   0.09354   0.00000  Uiso   1.00
C95    C     0.41216   0.18370   0.43377   0.00000  Uiso   1.00
C96    C     0.39857   0.19172   0.48789   0.00000  Uiso   1.00
C97    C     0.43187   0.18201   0.01477   0.00000  Uiso   1.00
C98    C     0.65952   0.22677   0.48793   0.00000  Uiso   1.00
C99    C     0.48937   0.15294   0.43632   0.00000  Uiso   1.00
C100   C     0.61682   0.25080   0.02463   0.00000  Uiso   1.00
C101   C     0.58151   0.26625   0.49612   0.00000  Uiso   1.00
C102   C     0.62553   0.29674   0.21761   0.00000  Uiso   1.00
C103   C     0.34162   0.29232   0.17506   0.00000  Uiso   1.00
C104   C     0.34788   0.24982   0.14900   0.00000  Uiso   1.00
C105   C     0.51396   0.15674   0.01586   0.00000  Uiso   1.00
C106   C     0.55783   0.13513   0.48995   0.00000  Uiso   1.00
C107   C     0.56541   0.12048   0.43935   0.00000  Uiso   1.00
C108   C     0.53137   0.12860   0.41323   0.00000  Uiso   1.00
C109   C     0.50747   0.17018   0.06720   0.00000  Uiso   1.00
C110   C     0.58461   0.13948   0.06727   0.00000  Uiso   1.00
Cu111  Cu    0.45311   0.16666   0.25000   0.00000  Uiso   1.00
Cu112  Cu    0.54689   0.16667   0.25000   0.00000  Uiso   1.00
H113   H     0.42314   0.29532   0.28947   0.00000  Uiso   1.00
H114   H     0.57683   0.03909   0.20465   0.00000  Uiso   1.00
H115   H     0.42244   0.03713   0.29023   0.00000  Uiso   1.00
H116   H     0.60570   0.20964   0.31253   0.00000  Uiso   1.00
H117   H     0.64046   0.12342   0.18784   0.00000  Uiso   1.00
H118   H     0.38814   0.19203   0.41113   0.00000  Uiso   1.00
H119   H     0.64435   0.20219   0.46801   0.00000  Uiso   1.00
H120   H     0.34899   0.24887   0.45890   0.00000  Uiso   1.00
H121   H     0.59633   0.23075   0.05733   0.00000  Uiso   1.00
H122   H     0.63149   0.27756   0.04144   0.00000  Uiso   1.00
H123   H     0.60102   0.28705   0.46374   0.00000  Uiso   1.00
H124   H     0.35945   0.20970   0.31239   0.00000  Uiso   1.00
H125   H     0.55109   0.28362   0.02381   0.00000  Uiso   1.00
H126   H     0.56555   0.23985   0.48008   0.00000  Uiso   1.00
H127   H     0.62238   0.27278   0.24779   0.00000  Uiso   1.00
H128   H     0.62574   0.32740   0.23661   0.00000  Uiso   1.00
H129   H     0.34465   0.31636   0.14496   0.00000  Uiso   1.00
H130   H     0.37181   0.29738   0.19268   0.00000  Uiso   1.00
H131   H     0.34667   0.22556   0.17819   0.00000  Uiso   1.00
H132   H     0.38407   0.24831   0.11839   0.00000  Uiso   1.00
H133   H     0.65191   0.24388   0.13044   0.00000  Uiso   1.00
H134   H     0.39419   0.12333   0.18785   0.00000  Uiso   1.00
H135   H     0.59773   0.10246   0.41987   0.00000  Uiso   1.00
H136   H     0.62671   0.11099   0.49582   0.00000  Uiso   1.00
H137   H     0.47617   0.18830   0.08830   0.00000  Uiso   1.00
H138   H     0.41942   0.18809   0.05613   0.00000  Uiso   1.00
H139   H     0.53801   0.11451   0.37518   0.00000  Uiso   1.00
H140   H     0.61101   0.13142   0.08729   0.00000  Uiso   1.00
N141   N     0.38265   0.16666   0.24998   0.00000  Uiso   1.00
N142   N     0.61735   0.16669   0.24999   0.00000  Uiso   1.00
O143   O     0.46042   0.22678   0.25000   0.00000  Uiso   1.00
O144   O     0.58676   0.29178   0.19529   0.00000  Uiso   1.00
O145   O     0.53961   0.22679   0.25000   0.00000  Uiso   1.00
O146   O     0.44108   0.16665   0.32549   0.00000  Uiso   1.00
O147   O     0.52027   0.16666   0.32549   0.00000  Uiso   1.00
O148   O     0.46039   0.10654   0.24999   0.00000  Uiso   1.00
O149   O     0.53958   0.10655   0.24999   0.00000  Uiso   1.00
O150   O     0.47973   0.16667   0.17451   0.00000  Uiso   1.00
O151   O     0.55892   0.16668   0.17451   0.00000  Uiso   1.00
O152   O     0.35387   0.20875   0.01761   0.00000  Uiso   1.00
C153   C     0.83379   0.24597   0.24899   0.00000  Uiso   1.00
C154   C     0.79106   0.16577   0.40769   0.00000  Uiso   1.00
C155   C     0.87840   0.31238   0.22482   0.00000  Uiso   1.00
C156   C     0.80704   0.16522   0.35017   0.00000  Uiso   1.00
C157   C     0.87719   0.02203   0.22477   0.00000  Uiso   1.00
C158   C     0.83341   0.04289   0.24893   0.00000  Uiso   1.00
C159   C     0.78991   0.02114   0.27165   0.00000  Uiso   1.00
C160   C     0.79039   0.31181   0.27122   0.00000  Uiso   1.00
C161   C     0.83439   0.29065   0.24810   0.00000  Uiso   1.00
C162   C     0.96549   0.19048   0.28476   0.00000  Uiso   1.00
C163   C     0.68179   0.19052   0.28470   0.00000  Uiso   1.00
C164   C     0.81167   0.16423   0.48959   0.00000  Uiso   1.00
C165   C     0.70110   0.14261   0.21549   0.00000  Uiso   1.00
C166   C     0.98480   0.14262   0.21550   0.00000  Uiso   1.00
C167   C     0.83329   0.08741   0.24974   0.00000  Uiso   1.00
C168   C     0.85959   0.16590   0.15001   0.00000  Uiso   1.00
C169   C     0.92647   0.12739   0.01548   0.00000  Uiso   1.00
C170   C     0.87437   0.15993   0.09354   0.00000  Uiso   1.00
C171   C     0.74549   0.18370   0.43377   0.00000  Uiso   1.00
C172   C     0.73190   0.19172   0.48789   0.00000  Uiso   1.00
C173   C     0.76520   0.18201   0.01477   0.00000  Uiso   1.00
C174   C     0.99285   0.22677   0.48793   0.00000  Uiso   1.00
C175   C     0.82270   0.15294   0.43632   0.00000  Uiso   1.00
C176   C     0.95015   0.25080   0.02463   0.00000  Uiso   1.00
C177   C     0.91484   0.26625   0.49612   0.00000  Uiso   1.00
C178   C     0.95886   0.29674   0.21761   0.00000  Uiso   1.00
C179   C     0.67495   0.29232   0.17506   0.00000  Uiso   1.00
C180   C     0.68122   0.24982   0.14900   0.00000  Uiso   1.00
C181   C     0.84729   0.15674   0.01586   0.00000  Uiso   1.00
C182   C     0.89116   0.13513   0.48995   0.00000  Uiso   1.00
C183   C     0.89874   0.12048   0.43935   0.00000  Uiso   1.00
C184   C     0.86471   0.12860   0.41323   0.00000  Uiso   1.00
C185   C     0.84080   0.17018   0.06720   0.00000  Uiso   1.00
C186   C     0.91794   0.13948   0.06727   0.00000  Uiso   1.00
Cu187  Cu    0.78645   0.16666   0.25000   0.00000  Uiso   1.00
Cu188  Cu    0.88022   0.16667   0.25000   0.00000  Uiso   1.00
H189   H     0.75648   0.29532   0.28947   0.00000  Uiso   1.00
H190   H     0.91016   0.03909   0.20465   0.00000  Uiso   1.00
H191   H     0.75577   0.03713   0.29023   0.00000  Uiso   1.00
H192   H     0.93904   0.20964   0.31253   0.00000  Uiso   1.00
H193   H     0.97379   0.12342   0.18784   0.00000  Uiso   1.00
H194   H     0.72147   0.19203   0.41113   0.00000  Uiso   1.00
H195   H     0.97768   0.20219   0.46801   0.00000  Uiso   1.00
H196   H     0.68232   0.24887   0.45890   0.00000  Uiso   1.00
H197   H     0.92966   0.23075   0.05733   0.00000  Uiso   1.00
H198   H     0.96483   0.27756   0.04144   0.00000  Uiso   1.00
H199   H     0.93435   0.28705   0.46374   0.00000  Uiso   1.00
H200   H     0.69278   0.20970   0.31239   0.00000  Uiso   1.00
H201   H     0.88443   0.28362   0.02381   0.00000  Uiso   1.00
H202   H     0.89888   0.23985   0.48008   0.00000  Uiso   1.00
H203   H     0.95571   0.27278   0.24779   0.00000  Uiso   1.00
H204   H     0.95908   0.32740   0.23661   0.00000  Uiso   1.00
H205   H     0.67798   0.31636   0.14496   0.00000  Uiso   1.00
H206   H     0.70515   0.29738   0.19268   0.00000  Uiso   1.00
H207   H     0.68000   0.22556   0.17819   0.00000  Uiso   1.00
H208   H     0.71740   0.24831   0.11839   0.00000  Uiso   1.00
H209   H     0.98524   0.24388   0.13044   0.00000  Uiso   1.00
H210   H     0.72752   0.12333   0.18785   0.00000  Uiso   1.00
H211   H     0.93107   0.10246   0.41987   0.00000  Uiso   1.00
H212   H     0.96004   0.11099   0.49582   0.00000  Uiso   1.00
H213   H     0.80950   0.18830   0.08830   0.00000  Uiso   1.00
H214   H     0.75275   0.18809   0.05613   0.00000  Uiso   1.00
H215   H     0.87135   0.11451   0.37518   0.00000  Uiso   1.00
H216   H     0.94434   0.13142   0.08729   0.00000  Uiso   1.00
N217   N     0.71598   0.16666   0.24998   0.00000  Uiso   1.00
N218   N     0.95069   0.16669   0.24999   0.00000  Uiso   1.00
O219   O     0.79375   0.22678   0.25000   0.00000  Uiso   1.00
O220   O     0.92009   0.29178   0.19529   0.00000  Uiso   1.00
O221   O     0.87294   0.22679   0.25000   0.00000  Uiso   1.00
O222   O     0.77441   0.16665   0.32549   0.00000  Uiso   1.00
O223   O     0.85360   0.16666   0.32549   0.00000  Uiso   1.00
O224   O     0.79373   0.10654   0.24999   0.00000  Uiso   1.00
O225   O     0.87292   0.10655   0.24999   0.00000  Uiso   1.00
O226   O     0.81306   0.16667   0.17451   0.00000  Uiso   1.00
O227   O     0.89225   0.16668   0.17451   0.00000  Uiso   1.00
O228   O     0.68720   0.20875   0.01761   0.00000  Uiso   1.00
C229   C     0.16712   0.57930   0.24899   0.00000  Uiso   1.00
C230   C     0.12440   0.49911   0.40769   0.00000  Uiso   1.00
C231   C     0.21173   0.64571   0.22482   0.00000  Uiso   1.00
C232   C     0.14037   0.49855   0.35017   0.00000  Uiso   1.00
C233   C     0.21053   0.35536   0.22477   0.00000  Uiso   1.00
C234   C     0.16674   0.37622   0.24893   0.00000  Uiso   1.00
C235   C     0.12324   0.35448   0.27165   0.00000  Uiso   1.00
C236   C     0.12373   0.64514   0.27122   0.00000  Uiso   1.00
C237   C     0.16772   0.62398   0.24810   0.00000  Uiso   1.00
C238   C     0.29882   0.52381   0.28476   0.00000  Uiso   1.00
C239   C     0.01513   0.52386   0.28470   0.00000  Uiso   1.00
C240   C     0.14500   0.49757   0.48959   0.00000  Uiso   1.00
C241   C     0.03444   0.47594   0.21549   0.00000  Uiso   1.00
C242   C     0.31814   0.47595   0.21550   0.00000  Uiso   1.00
C243   C     0.16662   0.42074   0.24974   0.00000  Uiso   1.00
C244   C     0.19292   0.49923   0.15001   0.00000  Uiso   1.00
C245   C     0.25980   0.46073   0.01548   0.00000  Uiso   1.00
C246   C     0.20770   0.49326   0.09354   0.00000  Uiso   1.00
C247   C     0.07882   0.51704   0.43377   0.00000  Uiso   1.00
C248   C     0.06523   0.52506   0.48789   0.00000  Uiso   1.00
C249   C     0.09854   0.51534   0.01477   0.00000  Uiso   1.00
C250   C     0.32618   0.56010   0.48793   0.00000  Uiso   1.00
C251   C     0.15604   0.48627   0.43632   0.00000  Uiso   1.00
C252   C     0.28348   0.58413   0.02463   0.00000  Uiso   1.00
C253   C     0.24818   0.59959   0.49612   0.00000  Uiso   1.00
C254   C     0.29220   0.63007   0.21761   0.00000  Uiso   1.00
C255   C     0.00829   0.62565   0.17506   0.00000  Uiso   1.00
C256   C     0.01455   0.58316   0.14900   0.00000  Uiso   1.00
C257   C     0.18063   0.49008   0.01586   0.00000  Uiso   1.00
C258   C     0.22449   0.46846   0.48995   0.00000  Uiso   1.00
C259   C     0.23207   0.45381   0.43935   0.00000  Uiso   1.00
C260   C     0.19804   0.46193   0.41323   0.00000  Uiso   1.00
C261   C     0.17413   0.50352   0.06720   0.00000  Uiso   1.00
C262   C     0.25128   0.47281   0.06727   0.00000  Uiso   1.00
Cu263  Cu    0.11978   0.49999   0.25000   0.00000  Uiso   1.00
Cu264  Cu    0.21355   0.50001   0.25000   0.00000  Uiso   1.00
H265   H     0.08981   0.62865   0.28947   0.00000  Uiso   1.00
H266   H     0.24350   0.37242   0.20465   0.00000  Uiso   1.00
H267   H     0.08911   0.37046   0.29023   0.00000  Uiso   1.00
H268   H     0.27237   0.54297   0.31253   0.00000  Uiso   1.00
H269   H     0.30712   0.45675   0.18784   0.00000  Uiso   1.00
H270   H     0.05481   0.52536   0.41113   0.00000  Uiso   1.00
H271   H     0.31101   0.53552   0.46801   0.00000  Uiso   1.00
H272   H     0.01566   0.58221   0.45890   0.00000  Uiso   1.00
H273   H     0.26300   0.56408   0.05733   0.00000  Uiso   1.00
H274   H     0.29816   0.61089   0.04144   0.00000  Uiso   1.00
H275   H     0.26769   0.62039   0.46374   0.00000  Uiso   1.00
H276   H     0.02611   0.54304   0.31239   0.00000  Uiso   1.00
H277   H     0.21776   0.61695   0.02381   0.00000  Uiso   1.00
H278   H     0.23221   0.57318   0.48008   0.00000  Uiso   1.00
H279   H     0.28905   0.60611   0.24779   0.00000  Uiso   1.00
H280   H     0.29241   0.66074   0.23661   0.00000  Uiso   1.00
H281   H     0.01132   0.64970   0.14496   0.00000  Uiso   1.00
H282   H     0.03848   0.63071   0.19268   0.00000  Uiso   1.00
H283   H     0.01334   0.55889   0.17819   0.00000  Uiso   1.00
H284   H     0.05074   0.58165   0.11839   0.00000  Uiso   1.00
H285   H     0.31857   0.57722   0.13044   0.00000  Uiso   1.00
H286   H     0.06085   0.45666   0.18785   0.00000  Uiso   1.00
H287   H     0.26440   0.43579   0.41987   0.00000  Uiso   1.00
H288   H     0.29337   0.44432   0.49582   0.00000  Uiso   1.00
H289   H     0.14283   0.52163   0.08830   0.00000  Uiso   1.00
H290   H     0.08608   0.52142   0.05613   0.00000  Uiso   1.00
H291   H     0.20468   0.44784   0.37518   0.00000  Uiso   1.00
H292   H     0.27768   0.46475   0.08729   0.00000  Uiso   1.00
N293   N     0.04931   0.49999   0.24998   0.00000  Uiso   1.00
N294   N     0.28402   0.50002   0.24999   0.00000  Uiso   1.00
O295   O     0.12708   0.56011   0.25000   0.00000  Uiso   1.00
O296   O     0.25342   0.62511   0.19529   0.00000  Uiso   1.00
O297   O     0.20627   0.56012   0.25000   0.00000  Uiso   1.00
O298   O     0.10775   0.49998   0.32549   0.00000  Uiso   1.00
O299   O     0.18694   0.49999   0.32549   0.00000  Uiso   1.00
O300   O     0.12706   0.43988   0.24999   0.00000  Uiso   1.00
O301   O     0.20625   0.43989   0.24999   0.00000  Uiso   1.00
O302   O     0.14640   0.50001   0.17451   0.00000  Uiso   1.00
O303   O     0.22559   0.50002   0.17451   0.00000  Uiso   1.00
O304   O     0.02054   0.54208   0.01761   0.00000  Uiso   1.00
C305   C     0.50045   0.57930   0.24899   0.00000  Uiso   1.00
C306   C     0.45773   0.49911   0.40769   0.00000  Uiso   1.00
C307   C     0.54506   0.64571   0.22482   0.00000  Uiso   1.00
C308   C     0.47371   0.49855   0.35017   0.00000  Uiso   1.00
C309   C     0.54386   0.35536   0.22477   0.00000  Uiso   1.00
C310   C     0.50008   0.37622   0.24893   0.00000  Uiso   1.00
C311   C     0.45657   0.35448   0.27165   0.00000  Uiso   1.00
C312   C     0.45706   0.64514   0.27122   0.00000  Uiso   1.00
C313   C     0.50105   0.62398   0.24810   0.00000  Uiso   1.00
C314   C     0.63215   0.52381   0.28476   0.00000  Uiso   1.00
C315   C     0.34846   0.52386   0.28470   0.00000  Uiso   1.00
C316   C     0.47833   0.49757   0.48959   0.00000  Uiso   1.00
C317   C     0.36777   0.47594   0.21549   0.00000  Uiso   1.00
C318   C     0.65147   0.47595   0.21550   0.00000  Uiso   1.00
C319   C     0.49995   0.42074   0.24974   0.00000  Uiso   1.00
C320   C     0.52626   0.49923   0.15001   0.00000  Uiso   1.00
C321   C     0.59314   0.46073   0.01548   0.00000  Uiso   1.00
C322   C     0.54103   0.49326   0.09354   0.00000  Uiso   1.00
C323   C     0.41216   0.51704   0.43377   0.00000  Uiso   1.00
C324   C     0.39857   0.52506   0.48789   0.00000  Uiso   1.00
C325   C     0.43187   0.51534   0.01477   0.00000  Uiso   1.00
C326   C     0.65952   0.56010   0.48793   0.00000  Uiso   1.00
C327   C     0.48937   0.48627   0.43632   0.00000  Uiso   1.00
C328   C     0.61682   0.58413   0.02463   0.00000  Uiso   1.00
C329   C     0.58151   0.59959   0.49612   0.00000  Uiso   1.00
C330   C     0.62553   0.63007   0.21761   0.00000  Uiso   1.00
C331   C     0.34162   0.62565   0.17506   0.00000  Uiso   1.00
C332   C     0.34788   0.58316   0.14900   0.00000  Uiso   1.00
C333   C     0.51396   0.49008   0.01586   0.00000  Uiso   1.00
C334   C     0.55783   0.46846   0.48995   0.00000  Uiso   1.00
C335   C     0.56541   0.45381   0.43935   0.00000  Uiso   1.00
C336   C     0.53137   0.46193   0.41323   0.00000  Uiso   1.00
C337   C     0.50747   0.50352   0.06720   0.00000  Uiso   1.00
C338   C     0.58461   0.47281   0.06727   0.00000  Uiso   1.00
Cu339  Cu    0.45311   0.49999   0.25000   0.00000  Uiso   1.00
Cu340  Cu    0.54689   0.50001   0.25000   0.00000  Uiso   1.00
H341   H     0.42314   0.62865   0.28947   0.00000  Uiso   1.00
H342   H     0.57683   0.37242   0.20465   0.00000  Uiso   1.00
H343   H     0.42244   0.37046   0.29023   0.00000  Uiso   1.00
H344   H     0.60570   0.54297   0.31253   0.00000  Uiso   1.00
H345   H     0.64046   0.45675   0.18784   0.00000  Uiso   1.00
H346   H     0.38814   0.52536   0.41113   0.00000  Uiso   1.00
H347   H     0.64435   0.53552   0.46801   0.00000  Uiso   1.00
H348   H     0.34899   0.58221   0.45890   0.00000  Uiso   1.00
H349   H     0.59633   0.56408   0.05733   0.00000  Uiso   1.00
H350   H     0.63149   0.61089   0.04144   0.00000  Uiso   1.00
H351   H     0.60102   0.62039   0.46374   0.00000  Uiso   1.00
H352   H     0.35945   0.54304   0.31239   0.00000  Uiso   1.00
H353   H     0.55109   0.61695   0.02381   0.00000  Uiso   1.00
H354   H     0.56555   0.57318   0.48008   0.00000  Uiso   1.00
H355   H     0.62238   0.60611   0.24779   0.00000  Uiso   1.00
H356   H     0.62574   0.66074   0.23661   0.00000  Uiso   1.00
H357   H     0.34465   0.64970   0.14496   0.00000  Uiso   1.00
H358   H     0.37181   0.63071   0.19268   0.00000  Uiso   1.00
H359   H     0.34667   0.55889   0.17819   0.00000  Uiso   1.00
H360   H     0.38407   0.58165   0.11839   0.00000  Uiso   1.00
H361   H     0.65191   0.57722   0.13044   0.00000  Uiso   1.00
H362   H     0.39419   0.45666   0.18785   0.00000  Uiso   1.00
H363   H     0.59773   0.43579   0.41987   0.00000  Uiso   1.00
H364   H     0.62671   0.44432   0.49582   0.00000  Uiso   1.00
H365   H     0.47617   0.52163   0.08830   0.00000  Uiso   1.00
H366   H     0.41942   0.52142   0.05613   0.00000  Uiso   1.00
H367   H     0.53801   0.44784   0.37518   0.00000  Uiso   1.00
H368   H     0.61101   0.46475   0.08729   0.00000  Uiso   1.00
N369   N     0.38265   0.49999   0.24998   0.00000  Uiso   1.00
N370   N     0.61735   0.50002   0.24999   0.00000  Uiso   1.00
O371   O     0.46042   0.56011   0.25000   0.00000  Uiso   1.00
O372   O     0.58676   0.62511   0.19529   0.00000  Uiso   1.00
O373   O     0.53961   0.56012   0.25000   0.00000  Uiso   1.00
O374   O     0.44108   0.49998   0.32549   0.00000  Uiso   1.00
O375   O     0.52027   0.49999   0.32549   0.00000  Uiso   1.00
O376   O     0.46039   0.43988   0.24999   0.00000  Uiso   1.00
O377   O     0.53958   0.43989   0.24999   0.00000  Uiso   1.00
O378   O     0.47973   0.50001   0.17451   0.00000  Uiso   1.00
O379   O     0.55892   0.50002   0.17451   0.00000  Uiso   1.00
O380   O     0.35387   0.54208   0.01761   0.00000  Uiso   1.00
C381   C     0.83379   0.57930   0.24899   0.00000  Uiso   1.00
C382   C     0.79106   0.49911   0.40769   0.00000  Uiso   1.00
C383   C     0.87840   0.64571   0.22482   0.00000  Uiso   1.00
C384   C     0.80704   0.49855   0.35017   0.00000  Uiso   1.00
C385   C     0.87719   0.35536   0.22477   0.00000  Uiso   1.00
C386   C     0.83341   0.37622   0.24893   0.00000  Uiso   1.00
C387   C     0.78991   0.35448   0.27165   0.00000  Uiso   1.00
C388   C     0.79039   0.64514   0.27122   0.00000  Uiso   1.00
C389   C     0.83439   0.62398   0.24810   0.00000  Uiso   1.00
C390   C     0.96549   0.52381   0.28476   0.00000  Uiso   1.00
C391   C     0.68179   0.52386   0.28470   0.00000  Uiso   1.00
C392   C     0.81167   0.49757   0.48959   0.00000  Uiso   1.00
C393   C     0.70110   0.47594   0.21549   0.00000  Uiso   1.00
C394   C     0.98480   0.47595   0.21550   0.00000  Uiso   1.00
C395   C     0.83329   0.42074   0.24974   0.00000  Uiso   1.00
C396   C     0.85959   0.49923   0.15001   0.00000  Uiso   1.00
C397   C     0.92647   0.46073   0.01548   0.00000  Uiso   1.00
C398   C     0.87437   0.49326   0.09354   0.00000  Uiso   1.00
C399   C     0.74549   0.51704   0.43377   0.00000  Uiso   1.00
C400   C     0.73190   0.52506   0.48789   0.00000  Uiso   1.00
C401   C     0.76520   0.51534   0.01477   0.00000  Uiso   1.00
C402   C     0.99285   0.56010   0.48793   0.00000  Uiso   1.00
C403   C     0.82270   0.48627   0.43632   0.00000  Uiso   1.00
C404   C     0.95015   0.58413   0.02463   0.00000  Uiso   1.00
C405   C     0.91484   0.59959   0.49612   0.00000  Uiso   1.00
C406   C     0.95886   0.63007   0.21761   0.00000  Uiso   1.00
C407   C     0.67495   0.62565   0.17506   0.00000  Uiso   1.00
C408   C     0.68122   0.58316   0.14900   0.00000  Uiso   1.00
C409   C     0.84729   0.49008   0.01586   0.00000  Uiso   1.00
C410   C     0.89116   0.46846   0.48995   0.00000  Uiso   1.00
C411   C     0.89874   0.45381   0.43935   0.00000  Uiso   1.00
C412   C     0.86471   0.46193   0.41323   0.00000  Uiso   1.00
C413   C     0.84080   0.50352   0.06720   0.00000  Uiso   1.00
C414   C     0.91794   0.47281   0.06727   0.00000  Uiso   1.00
Cu415  Cu    0.78645   0.49999   0.25000   0.00000  Uiso   1.00
Cu416  Cu    0.88022   0.50001   0.25000   0.00000  Uiso   1.00
H417   H     0.75648   0.62865   0.28947   0.00000  Uiso   1.00
H418   H     0.91016   0.37242   0.20465   0.00000  Uiso   1.00
H419   H     0.75577   0.37046   0.29023   0.00000  Uiso   1.00
H420   H     0.93904   0.54297   0.31253   0.00000  Uiso   1.00
H421   H     0.97379   0.45675   0.18784   0.00000  Uiso   1.00
H422   H     0.72147   0.52536   0.41113   0.00000  Uiso   1.00
H423   H     0.97768   0.53552   0.46801   0.00000  Uiso   1.00
H424   H     0.68232   0.58221   0.45890   0.00000  Uiso   1.00
H425   H     0.92966   0.56408   0.05733   0.00000  Uiso   1.00
H426   H     0.96483   0.61089   0.04144   0.00000  Uiso   1.00
H427   H     0.93435   0.62039   0.46374   0.00000  Uiso   1.00
H428   H     0.69278   0.54304   0.31239   0.00000  Uiso   1.00
H429   H     0.88443   0.61695   0.02381   0.00000  Uiso   1.00
H430   H     0.89888   0.57318   0.48008   0.00000  Uiso   1.00
H431   H     0.95571   0.60611   0.24779   0.00000  Uiso   1.00
H432   H     0.95908   0.66074   0.23661   0.00000  Uiso   1.00
H433   H     0.67798   0.64970   0.14496   0.00000  Uiso   1.00
H434   H     0.70515   0.63071   0.19268   0.00000  Uiso   1.00
H435   H     0.68000   0.55889   0.17819   0.00000  Uiso   1.00
H436   H     0.71740   0.58165   0.11839   0.00000  Uiso   1.00
H437   H     0.98524   0.57722   0.13044   0.00000  Uiso   1.00
H438   H     0.72752   0.45666   0.18785   0.00000  Uiso   1.00
H439   H     0.93107   0.43579   0.41987   0.00000  Uiso   1.00
H440   H     0.96004   0.44432   0.49582   0.00000  Uiso   1.00
H441   H     0.80950   0.52163   0.08830   0.00000  Uiso   1.00
H442   H     0.75275   0.52142   0.05613   0.00000  Uiso   1.00
H443   H     0.87135   0.44784   0.37518   0.00000  Uiso   1.00
H444   H     0.94434   0.46475   0.08729   0.00000  Uiso   1.00
N445   N     0.71598   0.49999   0.24998   0.00000  Uiso   1.00
N446   N     0.95069   0.50002   0.24999   0.00000  Uiso   1.00
O447   O     0.79375   0.56011   0.25000   0.00000  Uiso   1.00
O448   O     0.92009   0.62511   0.19529   0.00000  Uiso   1.00
O449   O     0.87294   0.56012   0.25000   0.00000  Uiso   1.00
O450   O     0.77441   0.49998   0.32549   0.00000  Uiso   1.00
O451   O     0.85360   0.49999   0.32549   0.00000  Uiso   1.00
O452   O     0.79373   0.43988   0.24999   0.00000  Uiso   1.00
O453   O     0.87292   0.43989   0.24999   0.00000  Uiso   1.00
O454   O     0.81306   0.50001   0.17451   0.00000  Uiso   1.00
O455   O     0.89225   0.50002   0.17451   0.00000  Uiso   1.00
O456   O     0.68720   0.54208   0.01761   0.00000  Uiso   1.00
C457   C     0.16712   0.91264   0.24899   0.00000  Uiso   1.00
C458   C     0.12440   0.83244   0.40769   0.00000  Uiso   1.00
C459   C     0.21173   0.97904   0.22482   0.00000  Uiso   1.00
C460   C     0.14037   0.83188   0.35017   0.00000  Uiso   1.00
C461   C     0.21053   0.68869   0.22477   0.00000  Uiso   1.00
C462   C     0.16674   0.70955   0.24893   0.00000  Uiso   1.00
C463   C     0.12324   0.68781   0.27165   0.00000  Uiso   1.00
C464   C     0.12373   0.97847   0.27122   0.00000  Uiso   1.00
C465   C     0.16772   0.95731   0.24810   0.00000  Uiso   1.00
C466   C     0.29882   0.85715   0.28476   0.00000  Uiso   1.00
C467   C     0.01513   0.85719   0.28470   0.00000  Uiso   1.00
C468   C     0.14500   0.83090   0.48959   0.00000  Uiso   1.00
C469   C     0.03444   0.80927   0.21549   0.00000  Uiso   1.00
C470   C     0.31814   0.80929   0.21550   0.00000  Uiso   1.00
C471   C     0.16662   0.75407   0.24974   0.00000  Uiso   1.00
C472   C     0.19292   0.83256   0.15001   0.00000  Uiso   1.00
C473   C     0.25980   0.79406   0.01548   0.00000  Uiso   1.00
C474   C     0.20770   0.82659   0.09354   0.00000  Uiso   1.00
C475   C     0.07882   0.85037   0.43377   0.00000  Uiso   1.00
C476   C     0.06523   0.85839   0.48789   0.00000  Uiso   1.00
C477   C     0.09854   0.84868   0.01477   0.00000  Uiso   1.00
C478   C     0.32618   0.89344   0.48793   0.00000  Uiso   1.00
C479   C     0.15604   0.81961   0.43632   0.00000  Uiso   1.00
C480   C     0.28348   0.91747   0.02463   0.00000  Uiso   1.00
C481   C     0.24818   0.93292   0.49612   0.00000  Uiso   1.00
C482   C     0.29220   0.96341   0.21761   0.00000  Uiso   1.00
C483   C     0.00829   0.95898   0.17506   0.00000  Uiso   1.00
C484   C     0.01455   0.91649   0.14900   0.00000  Uiso   1.00
C485   C     0.18063   0.82341   0.01586   0.00000  Uiso   1.00
C486   C     0.22449   0.80180   0.48995   0.00000  Uiso   1.00
C487   C     0.23207   0.78715   0.43935   0.00000  Uiso   1.00
C488   C     0.19804   0.79526   0.41323   0.00000  Uiso   1.00
C489   C     0.17413   0.83685   0.06720   0.00000  Uiso   1.00
C490   C     0.25128   0.80614   0.06727   0.00000  Uiso   1.00
Cu491  Cu    0.11978   0.83333   0.25000   0.00000  Uiso   1.00
Cu492  Cu    0.21355   0.83334   0.25000   0.00000  Uiso   1.00
H493   H     0.08981   0.96199   0.28947   0.00000  Uiso   1.00
H494   H     0.24350   0.70576   0.20465   0.00000  Uiso   1.00
H495   H     0.08911   0.70380   0.29023   0.00000  Uiso   1.00
H496   H     0.27237   0.87631   0.31253   0.00000  Uiso   1.00
H497   H     0.30712   0.79008   0.18784   0.00000  Uiso   1.00
H498   H     0.05481   0.85869   0.41113   0.00000  Uiso   1.00
H499   H     0.31101   0.86885   0.46801   0.00000  Uiso   1.00
H500   H     0.01566   0.91554   0.45890   0.00000  Uiso   1.00
H501   H     0.26300   0.89741   0.05733   0.00000  Uiso   1.00
H502   H     0.29816   0.94422   0.04144   0.00000  Uiso   1.00
H503   H     0.26769   0.95372   0.46374   0.00000  Uiso   1.00
H504   H     0.02611   0.87637   0.31239   0.00000  Uiso   1.00
H505   H     0.21776   0.95029   0.02381   0.00000  Uiso   1.00
H506   H     0.23221   0.90651   0.48008   0.00000  Uiso   1.00
H507   H     0.28905   0.93944   0.24779   0.00000  Uiso   1.00
H508   H     0.29241   0.99407   0.23661   0.00000  Uiso   1.00
H509   H     0.01132   0.98303   0.14496   0.00000  Uiso   1.00
H510   H     0.03848   0.96404   0.19268   0.00000  Uiso   1.00
H511   H     0.01334   0.89223   0.17819   0.00000  Uiso   1.00
H512   H     0.05074   0.91498   0.11839   0.00000  Uiso   1.00
H513   H     0.31857   0.91055   0.13044   0.00000  Uiso   1.00
H514   H     0.06085   0.79000   0.18785   0.00000  Uiso   1.00
H515   H     0.26440   0.76913   0.41987   0.00000  Uiso   1.00
H516   H     0.29337   0.77766   0.49582   0.00000  Uiso   1.00
H517   H     0.14283   0.85497   0.08830   0.00000  Uiso   1.00
H518   H     0.08608   0.85475   0.05613   0.00000  Uiso   1.00
H519   H     0.20468   0.78118   0.37518   0.00000  Uiso   1.00
H520   H     0.27768   0.79809   0.08729   0.00000  Uiso   1.00
N521   N     0.04931   0.83332   0.24998   0.00000  Uiso   1.00
N522   N     0.28402   0.83335   0.24999   0.00000  Uiso   1.00
O523   O     0.12708   0.89345   0.25000   0.00000  Uiso   1.00
O524   O     0.25342   0.95845   0.19529   0.00000  Uiso   1.00
O525   O     0.20627   0.89346   0.25000   0.00000  Uiso   1.00
O526   O     0.10775   0.83332   0.32549   0.00000  Uiso   1.00
O527   O     0.18694   0.83333   0.32549   0.00000  Uiso   1.00
O528   O     0.12706   0.77321   0.24999   0.00000  Uiso   1.00
O529   O     0.20625   0.77322   0.24999   0.00000  Uiso   1.00
O530   O     0.14640   0.83334   0.17451   0.00000  Uiso   1.00
O531   O     0.22559   0.83335   0.17451   0.00000  Uiso   1.00
O532   O     0.02054   0.87541   0.01761   0.00000  Uiso   1.00
C533   C     0.50045   0.91264   0.24899   0.00000  Uiso   1.00
C534   C     0.45773   0.83244   0.40769   0.00000  Uiso   1.00
C535   C     0.54506   0.97904   0.22482   0.00000  Uiso   1.00
C536   C     0.47371   0.83188   0.35017   0.00000  Uiso   1.00
C537   C     0.54386   0.68869   0.22477   0.00000  Uiso   1.00
C538   C     0.50008   0.70955   0.24893   0.00000  Uiso   1.00
C539   C     0.45657   0.68781   0.27165   0.00000  Uiso   1.00
C540   C     0.45706   0.97847   0.27122   0.00000  Uiso   1.00
C541   C     0.50105   0.95731   0.24810   0.00000  Uiso   1.00
C542   C     0.63215   0.85715   0.28476   0.00000  Uiso   1.00
C543   C     0.34846   0.85719   0.28470   0.00000  Uiso   1.00
C544   C     0.47833   0.83090   0.48959   0.00000  Uiso   1.00
C545   C     0.36777   0.80927   0.21549   0.00000  Uiso   1.00
C546   C     0.65147   0.80929   0.21550   0.00000  Uiso   1.00
C547   C     0.49995   0.75407   0.24974   0.00000  Uiso   1.00
C548   C     0.52626   0.83256   0.15001   0.00000  Uiso   1.00
C549   C     0.59314   0.79406   0.01548   0.00000  Uiso   1.00
C550   C     0.54103   0.82659   0.09354   0.00000  Uiso   1.00
C551   C     0.41216   0.85037   0.43377   0.00000  Uiso   1.00
C552   C     0.39857   0.85839   0.48789   0.00000  Uiso   1.00
C553   C     0.43187   0.84868   0.01477   0.00000  Uiso   1.00
C554   C     0.65952   0.89344   0.48793   0.00000  Uiso   1.00
C555   C     0.48937   0.81961   0.43632   0.00000  Uiso   1.00
C556   C     0.61682   0.91747   0.02463   0.00000  Uiso   1.00
C557   C     0.58151   0.93292   0.49612   0.00000  Uiso   1.00
C558   C     0.62553   0.96341   0.21761   0.00000  Uiso   1.00
C559   C     0.34162   0.95898   0.17506   0.00000  Uiso   1.00
C560   C     0.34788   0.91649   0.14900   0.00000  Uiso   1.00
C561   C     0.51396   0.82341   0.01586   0.00000  Uiso   1.00
C562   C     0.55783   0.80180   0.48995   0.00000  Uiso   1.00
C563   C     0.56541   0.78715   0.43935   0.00000  Uiso   1.00
C564   C     0.53137   0.79526   0.41323   0.00000  Uiso   1.00
C565   C     0.50747   0.83685   0.06720   0.00000  Uiso   1.00
C566   C     0.58461   0.80614   0.06727   0.00000  Uiso   1.00
Cu567  Cu    0.45311   0.83333   0.25000   0.00000  Uiso   1.00
Cu568  Cu    0.54689   0.83334   0.25000   0.00000  Uiso   1.00
H569   H     0.42314   0.96199   0.28947   0.00000  Uiso   1.00
H570   H     0.57683   0.70576   0.20465   0.00000  Uiso   1.00
H571   H     0.42244   0.70380   0.29023   0.00000  Uiso   1.00
H572   H     0.60570   0.87631   0.31253   0.00000  Uiso   1.00
H573   H     0.64046   0.79008   0.18784   0.00000  Uiso   1.00
H574   H     0.38814   0.85869   0.41113   0.00000  Uiso   1.00
H575   H     0.64435   0.86885   0.46801   0.00000  Uiso   1.00
H576   H     0.34899   0.91554   0.45890   0.00000  Uiso   1.00
H577   H     0.59633   0.89741   0.05733   0.00000  Uiso   1.00
H578   H     0.63149   0.94422   0.04144   0.00000  Uiso   1.00
H579   H     0.60102   0.95372   0.46374   0.00000  Uiso   1.00
H580   H     0.35945   0.87637   0.31239   0.00000  Uiso   1.00
H581   H     0.55109   0.95029   0.02381   0.00000  Uiso   1.00
H582   H     0.56555   0.90651   0.48008   0.00000  Uiso   1.00
H583   H     0.62238   0.93944   0.24779   0.00000  Uiso   1.00
H584   H     0.62574   0.99407   0.23661   0.00000  Uiso   1.00
H585   H     0.34465   0.98303   0.14496   0.00000  Uiso   1.00
H586   H     0.37181   0.96404   0.19268   0.00000  Uiso   1.00
H587   H     0.34667   0.89223   0.17819   0.00000  Uiso   1.00
H588   H     0.38407   0.91498   0.11839   0.00000  Uiso   1.00
H589   H     0.65191   0.91055   0.13044   0.00000  Uiso   1.00
H590   H     0.39419   0.79000   0.18785   0.00000  Uiso   1.00
H591   H     0.59773   0.76913   0.41987   0.00000  Uiso   1.00
H592   H     0.62671   0.77766   0.49582   0.00000  Uiso   1.00
H593   H     0.47617   0.85497   0.08830   0.00000  Uiso   1.00
H594   H     0.41942   0.85475   0.05613   0.00000  Uiso   1.00
H595   H     0.53801   0.78118   0.37518   0.00000  Uiso   1.00
H596   H     0.61101   0.79809   0.08729   0.00000  Uiso   1.00
N597   N     0.38265   0.83332   0.24998   0.00000  Uiso   1.00
N598   N     0.61735   0.83335   0.24999   0.00000  Uiso   1.00
O599   O     0.46042   0.89345   0.25000   0.00000  Uiso   1.00
O600   O     0.58676   0.95845   0.19529   0.00000  Uiso   1.00
O601   O     0.53961   0.89346   0.25000   0.00000  Uiso   1.00
O602   O     0.44108   0.83332   0.32549   0.00000  Uiso   1.00
O603   O     0.52027   0.83333   0.32549   0.00000  Uiso   1.00
O604   O     0.46039   0.77321   0.24999   0.00000  Uiso   1.00
O605   O     0.53958   0.77322   0.24999   0.00000  Uiso   1.00
O606   O     0.47973   0.83334   0.17451   0.00000  Uiso   1.00
O607   O     0.55892   0.83335   0.17451   0.00000  Uiso   1.00
O608   O     0.35387   0.87541   0.01761   0.00000  Uiso   1.00
C609   C     0.83379   0.91264   0.24899   0.00000  Uiso   1.00
C610   C     0.79106   0.83244   0.40769   0.00000  Uiso   1.00
C611   C     0.87840   0.97904   0.22482   0.00000  Uiso   1.00
C612   C     0.80704   0.83188   0.35017   0.00000  Uiso   1.00
C613   C     0.87719   0.68869   0.22477   0.00000  Uiso   1.00
C614   C     0.83341   0.70955   0.24893   0.00000  Uiso   1.00
C615   C     0.78991   0.68781   0.27165   0.00000  Uiso   1.00
C616   C     0.79039   0.97847   0.27122   0.00000  Uiso   1.00
C617   C     0.83439   0.95731   0.24810   0.00000  Uiso   1.00
C618   C     0.96549   0.85715   0.28476   0.00000  Uiso   1.00
C619   C     0.68179   0.85719   0.28470   0.00000  Uiso   1.00
C620   C     0.81167   0.83090   0.48959   0.00000  Uiso   1.00
C621   C     0.70110   0.80927   0.21549   0.00000  Uiso   1.00
C622   C     0.98480   0.80929   0.21550   0.00000  Uiso   1.00
C623   C     0.83329   0.75407   0.24974   0.00000  Uiso   1.00
C624   C     0.85959   0.83256   0.15001   0.00000  Uiso   1.00
C625   C     0.92647   0.79406   0.01548   0.00000  Uiso   1.00
C626   C     0.87437   0.82659   0.09354   0.00000  Uiso   1.00
C627   C     0.74549   0.85037   0.43377   0.00000  Uiso   1.00
C628   C     0.73190   0.85839   0.48789   0.00000  Uiso   1.00
C629   C     0.76520   0.84868   0.01477   0.00000  Uiso   1.00
C630   C     0.99285   0.89344   0.48793   0.00000  Uiso   1.00
C631   C     0.82270   0.81961   0.43632   0.00000  Uiso   1.00
C632   C     0.95015   0.91747   0.02463   0.00000  Uiso   1.00
C633   C     0.91484   0.93292   0.49612   0.00000  Uiso   1.00
C634   C     0.95886   0.96341   0.21761   0.00000  Uiso   1.00
C635   C     0.67495   0.95898   0.17506   0.00000  Uiso   1.00
C636   C     0.68122   0.91649   0.14900   0.00000  Uiso   1.00
C637   C     0.84729   0.82341   0.01586   0.00000  Uiso   1.00
C638   C     0.89116   0.80180   0.48995   0.00000  Uiso   1.00
C639   C     0.89874   0.78715   0.43935   0.00000  Uiso   1.00
C640   C     0.86471   0.79526   0.41323   0.00000  Uiso   1.00
C641   C     0.84080   0.83685   0.06720   0.00000  Uiso   1.00
C642   C     0.91794   0.80614   0.06727   0.00000  Uiso   1.00
Cu643  Cu    0.78645   0.83333   0.25000   0.00000  Uiso   1.00
Cu644  Cu    0.88022   0.83334   0.25000   0.00000  Uiso   1.00
H645   H     0.75648   0.96199   0.28947   0.00000  Uiso   1.00
H646   H     0.91016   0.70576   0.20465   0.00000  Uiso   1.00
H647   H     0.75577   0.70380   0.29023   0.00000  Uiso   1.00
H648   H     0.93904   0.87631   0.31253   0.00000  Uiso   1.00
H649   H     0.97379   0.79008   0.18784   0.00000  Uiso   1.00
H650   H     0.72147   0.85869   0.41113   0.00000  Uiso   1.00
H651   H     0.97768   0.86885   0.46801   0.00000  Uiso   1.00
H652   H     0.68232   0.91554   0.45890   0.00000  Uiso   1.00
H653   H     0.92966   0.89741   0.05733   0.00000  Uiso   1.00
H654   H     0.96483   0.94422   0.04144   0.00000  Uiso   1.00
H655   H     0.93435   0.95372   0.46374   0.00000  Uiso   1.00
H656   H     0.69278   0.87637   0.31239   0.00000  Uiso   1.00
H657   H     0.88443   0.95029   0.02381   0.00000  Uiso   1.00
H658   H     0.89888   0.90651   0.48008   0.00000  Uiso   1.00
H659   H     0.95571   0.93944   0.24779   0.00000  Uiso   1.00
H660   H     0.95908   0.99407   0.23661   0.00000  Uiso   1.00
H661   H     0.67798   0.98303   0.14496   0.00000  Uiso   1.00
H662   H     0.70515   0.96404   0.19268   0.00000  Uiso   1.00
H663   H     0.68000   0.89223   0.17819   0.00000  Uiso   1.00
H664   H     0.71740   0.91498   0.11839   0.00000  Uiso   1.00
H665   H     0.98524   0.91055   0.13044   0.00000  Uiso   1.00
H666   H     0.72752   0.79000   0.18785   0.00000  Uiso   1.00
H667   H     0.93107   0.76913   0.41987   0.00000  Uiso   1.00
H668   H     0.96004   0.77766   0.49582   0.00000  Uiso   1.00
H669   H     0.80950   0.85497   0.08830   0.00000  Uiso   1.00
H670   H     0.75275   0.85475   0.05613   0.00000  Uiso   1.00
H671   H     0.87135   0.78118   0.37518   0.00000  Uiso   1.00
H672   H     0.94434   0.79809   0.08729   0.00000  Uiso   1.00
N673   N     0.71598   0.83332   0.24998   0.00000  Uiso   1.00
N674   N     0.95069   0.83335   0.24999   0.00000  Uiso   1.00
O675   O     0.79375   0.89345   0.25000   0.00000  Uiso   1.00
O676   O     0.92009   0.95845   0.19529   0.00000  Uiso   1.00
O677   O     0.87294   0.89346   0.25000   0.00000  Uiso   1.00
O678   O     0.77441   0.83332   0.32549   0.00000  Uiso   1.00
O679   O     0.85360   0.83333   0.32549   0.00000  Uiso   1.00
O680   O     0.79373   0.77321   0.24999   0.00000  Uiso   1.00
O681   O     0.87292   0.77322   0.24999   0.00000  Uiso   1.00
O682   O     0.81306   0.83334   0.17451   0.00000  Uiso   1.00
O683   O     0.89225   0.83335   0.17451   0.00000  Uiso   1.00
O684   O     0.68720   0.87541   0.01761   0.00000  Uiso   1.00
C685   C     0.16712   0.24597   0.74899   0.00000  Uiso   1.00
C686   C     0.12440   0.16577   0.90769   0.00000  Uiso   1.00
C687   C     0.21173   0.31238   0.72482   0.00000  Uiso   1.00
C688   C     0.14037   0.16522   0.85017   0.00000  Uiso   1.00
C689   C     0.21053   0.02203   0.72477   0.00000  Uiso   1.00
C690   C     0.16674   0.04289   0.74893   0.00000  Uiso   1.00
C691   C     0.12324   0.02114   0.77165   0.00000  Uiso   1.00
C692   C     0.12373   0.31181   0.77122   0.00000  Uiso   1.00
C693   C     0.16772   0.29065   0.74810   0.00000  Uiso   1.00
C694   C     0.29882   0.19048   0.78476   0.00000  Uiso   1.00
C695   C     0.01513   0.19052   0.78470   0.00000  Uiso   1.00
C696   C     0.14500   0.16423   0.98959   0.00000  Uiso   1.00
C697   C     0.03444   0.14261   0.71549   0.00000  Uiso   1.00
C698   C     0.31814   0.14262   0.71550   0.00000  Uiso   1.00
C699   C     0.16662   0.08741   0.74974   0.00000  Uiso   1.00
C700   C     0.19292   0.16590   0.65001   0.00000  Uiso   1.00
C701   C     0.25980   0.12739   0.51548   0.00000  Uiso   1.00
C702   C     0.20770   0.15993   0.59354   0.00000  Uiso   1.00
C703   C     0.07882   0.18370   0.93377   0.00000  Uiso   1.00
C704   C     0.06523   0.19172   0.98789   0.00000  Uiso   1.00
C705   C     0.09854   0.18201   0.51477   0.00000  Uiso   1.00
C706   C     0.32618   0.22677   0.98793   0.00000  Uiso   1.00
C707   C     0.15604   0.15294   0.93632   0.00000  Uiso   1.00
C708   C     0.28348   0.25080   0.52463   0.00000  Uiso   1.00
C709   C     0.24818   0.26625   0.99612   0.00000  Uiso   1.00
C710   C     0.29220   0.29674   0.71761   0.00000  Uiso   1.00
C711   C     0.00829   0.29232   0.67506   0.00000  Uiso   1.00
C712   C     0.01455   0.24982   0.64900   0.00000  Uiso   1.00
C713   C     0.18063   0.15674   0.51586   0.00000  Uiso   1.00
C714   C     0.22449   0.13513   0.98995   0.00000  Uiso   1.00
C715   C     0.23207   0.12048   0.93935   0.00000  Uiso   1.00
C716   C     0.19804   0.12860   0.91323   0.00000  Uiso   1.00
C717   C     0.17413   0.17018   0.56720   0.00000  Uiso   1.00
C718   C     0.25128   0.13948   0.56727   0.00000  Uiso   1.00
Cu719  Cu    0.11978   0.16666   0.75000   0.00000  Uiso   1.00
Cu720  Cu    0.21355   0.16667   0.75000   0.00000  Uiso   1.00
H721   H     0.08981   0.29532   0.78947   0.00000  Uiso   1.00
H722   H     0.24350   0.03909   0.70465   0.00000  Uiso   1.00
H723   H     0.08911   0.03713   0.79023   0.00000  Uiso   1.00
H724   H     0.27237   0.20964   0.81253   0.00000  Uiso   1.00
H725   H     0.30712   0.12342   0.68784   0.00000  Uiso   1.00
H726   H     0.05481   0.19203   0.91113   0.00000  Uiso   1.00
H727   H     0.31101   0.20219   0.96801   0.00000  Uiso   1.00
H728   H     0.01566   0.24887   0.95890   0.00000  Uiso   1.00
H729   H     0.26300   0.23075   0.55733   0.00000  Uiso   1.00
H730   H     0.29816   0.27756   0.54144   0.00000  Uiso   1.00
H731   H     0.26769   0.28705   0.96374   0.00000  Uiso   1.00
H732   H     0.02611   0.20970   0.81239   0.00000  Uiso   1.00
H733   H     0.21776   0.28362   0.52381   0.00000  Uiso   1.00
H734   H     0.23221   0.23985   0.98008   0.00000  Uiso   1.00
H735   H     0.28905   0.27278   0.74779   0.00000  Uiso   1.00
H736   H     0.29241   0.32740   0.73661   0.00000  Uiso   1.00
H737   H     0.01132   0.31636   0.64496   0.00000  Uiso   1.00
H738   H     0.03848   0.29738   0.69268   0.00000  Uiso   1.00
H739   H     0.01334   0.22556   0.67819   0.00000  Uiso   1.00
H740   H     0.05074   0.24831   0.61839   0.00000  Uiso   1.00
H741   H     0.31857   0.24388   0.63044   0.00000  Uiso   1.00
H742   H     0.06085   0.12333   0.68785   0.00000  Uiso   1.00
H743   H     0.26440   0.10246   0.91987   0.00000  Uiso   1.00
H744   H     0.29337   0.11099   0.99582   0.00000  Uiso   1.00
H745   H     0.14283   0.18830   0.58830   0.00000  Uiso   1.00
H746   H     0.08608   0.18809   0.55613   0.00000  Uiso   1.00
H747   H     0.20468   0.11451   0.87518   0.00000  Uiso   1.00
H748   H     0.27768   0.13142   0.58729   0.00000  Uiso   1.00
N749   N     0.04931   0.16666   0.74998   0.00000  Uiso   1.00
N750   N     0.28402   0.16669   0.74999   0.00000  Uiso   1.00
O751   O     0.12708   0.22678   0.75000   0.00000  Uiso   1.00
O752   O     0.25342   0.29178   0.69529   0.00000  Uiso   1.00
O753   O     0.20627   0.22679   0.75000   0.00000  Uiso   1.00
O754   O     0.10775   0.16665   0.82549   0.00000  Uiso   1.00
O755   O     0.18694   0.16666   0.82549   0.00000  Uiso   1.00
O756   O     0.12706   0.10654   0.74999   0.00000  Uiso   1.00
O757   O     0.20625   0.10655   0.74999   0.00000  Uiso   1.00
O758   O     0.14640   0.16667   0.67451   0.00000  Uiso   1.00
O759   O     0.22559   0.16668   0.67451   0.00000  Uiso   1.00
O760   O     0.02054   0.20875   0.51761   0.00000  Uiso   1.00
C761   C     0.50045   0.24597   0.74899   0.00000  Uiso   1.00
C762   C     0.45773   0.16577   0.90769   0.00000  Uiso   1.00
C763   C     0.54506   0.31238   0.72482   0.00000  Uiso   1.00
C764   C     0.47371   0.16522   0.85017   0.00000  Uiso   1.00
C765   C     0.54386   0.02203   0.72477   0.00000  Uiso   1.00
C766   C     0.50008   0.04289   0.74893   0.00000  Uiso   1.00
C767   C     0.45657   0.02114   0.77165   0.00000  Uiso   1.00
C768   C     0.45706   0.31181   0.77122   0.00000  Uiso   1.00
C769   C     0.50105   0.29065   0.74810   0.00000  Uiso   1.00
C770   C     0.63215   0.19048   0.78476   0.00000  Uiso   1.00
C771   C     0.34846   0.19052   0.78470   0.00000  Uiso   1.00
C772   C     0.47833   0.16423   0.98959   0.00000  Uiso   1.00
C773   C     0.36777   0.14261   0.71549   0.00000  Uiso   1.00
C774   C     0.65147   0.14262   0.71550   0.00000  Uiso   1.00
C775   C     0.49995   0.08741   0.74974   0.00000  Uiso   1.00
C776   C     0.52626   0.16590   0.65001   0.00000  Uiso   1.00
C777   C     0.59314   0.12739   0.51548   0.00000  Uiso   1.00
C778   C     0.54103   0.15993   0.59354   0.00000  Uiso   1.00
C779   C     0.41216   0.18370   0.93377   0.00000  Uiso   1.00
C780   C     0.39857   0.19172   0.98789   0.00000  Uiso   1.00
C781   C     0.43187   0.18201   0.51477   0.00000  Uiso   1.00
C782   C     0.65952   0.22677   0.98793   0.00000  Uiso   1.00
C783   C     0.48937   0.15294   0.93632   0.00000  Uiso   1.00
C784   C     0.61682   0.25080   0.52463   0.00000  Uiso   1.00
C785   C     0.58151   0.26625   0.99612   0.00000  Uiso   1.00
C786   C     0.62553   0.29674   0.71761   0.00000  Uiso   1.00
C787   C     0.34162   0.29232   0.67506   0.00000  Uiso   1.00
C788   C     0.34788   0.24982   0.64900   0.00000  Uiso   1.00
C789   C     0.51396   0.15674   0.51586   0.00000  Uiso   1.00
C790   C     0.55783   0.13513   0.98995   0.00000  Uiso   1.00
C791   C     0.56541   0.12048   0.93935   0.00000  Uiso   1.00
C792   C     0.53137   0.12860   0.91323   0.00000  Uiso   1.00
C793   C     0.50747   0.17018   0.56720   0.00000  Uiso   1.00
C794   C     0.58461   0.13948   0.56727   0.00000  Uiso   1.00
Cu795  Cu    0.45311   0.16666   0.75000   0.00000  Uiso   1.00
Cu796  Cu    0.54689   0.16667   0.75000   0.00000  Uiso   1.00
H797   H     0.42314   0.29532   0.78947   0.00000  Uiso   1.00
H798   H     0.57683   0.03909   0.70465   0.00000  Uiso   1.00
H799   H     0.42244   0.03713   0.79023   0.00000  Uiso   1.00
H800   H     0.60570   0.20964   0.81253   0.00000  Uiso   1.00
H801   H     0.64046   0.12342   0.68784   0.00000  Uiso   1.00
H802   H     0.38814   0.19203   0.91113   0.00000  Uiso   1.00
H803   H     0.64435   0.20219   0.96801   0.00000  Uiso   1.00
H804   H     0.34899   0.24887   0.95890   0.00000  Uiso   1.00
H805   H     0.59633   0.23075   0.55733   0.00000  Uiso   1.00
H806   H     0.63149   0.27756   0.54144   0.00000  Uiso   1.00
H807   H     0.60102   0.28705   0.96374   0.00000  Uiso   1.00
H808   H     0.35945   0.20970   0.81239   0.00000  Uiso   1.00
H809   H     0.55109   0.28362   0.52381   0.00000  Uiso   1.00
H810   H     0.56555   0.23985   0.98008   0.00000  Uiso   1.00
H811   H     0.62238   0.27278   0.74779   0.00000  Uiso   1.00
H812   H     0.62574   0.32740   0.73661   0.00000  Uiso   1.00
H813   H     0.34465   0.31636   0.64496   0.00000  Uiso   1.00
H814   H     0.37181   0.29738   0.69268   0.00000  Uiso   1.00
H815   H     0.34667   0.22556   0.67819   0.00000  Uiso   1.00
H816   H     0.38407   0.24831   0.61839   0.00000  Uiso   1.00
H817   H     0.65191   0.24388   0.63044   0.00000  Uiso   1.00
H818   H     0.39419   0.12333   0.68785   0.00000  Uiso   1.00
H819   H     0.59773   0.10246   0.91987   0.00000  Uiso   1.00
H820   H     0.62671   0.11099   0.99582   0.00000  Uiso   1.00
H821   H     0.47617   0.18830   0.58830   0.00000  Uiso   1.00
H822   H     0.41942   0.18809   0.55613   0.00000  Uiso   1.00
H823   H     0.53801   0.11451   0.87518   0.00000  Uiso   1.00
H824   H     0.61101   0.13142   0.58729   0.00000  Uiso   1.00
N825   N     0.38265   0.16666   0.74998   0.00000  Uiso   1.00
N826   N     0.61735   0.16669   0.74999   0.00000  Uiso   1.00
O827   O     0.46042   0.22678   0.75000   0.00000  Uiso   1.00
O828   O     0.58676   0.29178   0.69529   0.00000  Uiso   1.00
O829   O     0.53961   0.22679   0.75000   0.00000  Uiso   1.00
O830   O     0.44108   0.16665   0.82549   0.00000  Uiso   1.00
O831   O     0.52027   0.16666   0.82549   0.00000  Uiso   1.00
O832   O     0.46039   0.10654   0.74999   0.00000  Uiso   1.00
O833   O     0.53958   0.10655   0.74999   0.00000  Uiso   1.00
O834   O     0.47973   0.16667   0.67451   0.00000  Uiso   1.00
O835   O     0.55892   0.16668   0.67451   0.00000  Uiso   1.00
O836   O     0.35387   0.20875   0.51761   0.00000  Uiso   1.00
C837   C     0.83379   0.24597   0.74899   0.00000  Uiso   1.00
C838   C     0.79106   0.16577   0.90769   0.00000  Uiso   1.00
C839   C     0.87840   0.31238   0.72482   0.00000  Uiso   1.00
C840   C     0.80704   0.16522   0.85017   0.00000  Uiso   1.00
C841   C     0.87719   0.02203   0.72477   0.00000  Uiso   1.00
C842   C     0.83341   0.04289   0.74893   0.00000  Uiso   1.00
C843   C     0.78991   0.02114   0.77165   0.00000  Uiso   1.00
C844   C     0.79039   0.31181   0.77122   0.00000  Uiso   1.00
C845   C     0.83439   0.29065   0.74810   0.00000  Uiso   1.00
C846   C     0.96549   0.19048   0.78476   0.00000  Uiso   1.00
C847   C     0.68179   0.19052   0.78470   0.00000  Uiso   1.00
C848   C     0.81167   0.16423   0.98959   0.00000  Uiso   1.00
C849   C     0.70110   0.14261   0.71549   0.00000  Uiso   1.00
C850   C     0.98480   0.14262   0.71550   0.00000  Uiso   1.00
C851   C     0.83329   0.08741   0.74974   0.00000  Uiso   1.00
C852   C     0.85959   0.16590   0.65001   0.00000  Uiso   1.00
C853   C     0.92647   0.12739   0.51548   0.00000  Uiso   1.00
C854   C     0.87437   0.15993   0.59354   0.00000  Uiso   1.00
C855   C     0.74549   0.18370   0.93377   0.00000  Uiso   1.00
C856   C     0.73190   0.19172   0.98789   0.00000  Uiso   1.00
C857   C     0.76520   0.18201   0.51477   0.00000  Uiso   1.00
C858   C     0.99285   0.22677   0.98793   0.00000  Uiso   1.00
C859   C     0.82270   0.15294   0.93632   0.00000  Uiso   1.00
C860   C     0.95015   0.25080   0.52463   0.00000  Uiso   1.00
C861   C     0.91484   0.26625   0.99612   0.00000  Uiso   1.00
C862   C     0.95886   0.29674   0.71761   0.00000  Uiso   1.00
C863   C     0.67495   0.29232   0.67506   0.00000  Uiso   1.00
C864   C     0.68122   0.24982   0.64900   0.00000  Uiso   1.00
C865   C     0.84729   0.15674   0.51586   0.00000  Uiso   1.00
C866   C     0.89116   0.13513   0.98995   0.00000  Uiso   1.00
C867   C     0.89874   0.12048   0.93935   0.00000  Uiso   1.00
C868   C     0.86471   0.12860   0.91323   0.00000  Uiso   1.00
C869   C     0.84080   0.17018   0.56720   0.00000  Uiso   1.00
C870   C     0.91794   0.13948   0.56727   0.00000  Uiso   1.00
Cu871  Cu    0.78645   0.16666   0.75000   0.00000  Uiso   1.00
Cu872  Cu    0.88022   0.16667   0.75000   0.00000  Uiso   1.00
H873   H     0.75648   0.29532   0.78947   0.00000  Uiso   1.00
H874   H     0.91016   0.03909   0.70465   0.00000  Uiso   1.00
H875   H     0.75577   0.03713   0.79023   0.00000  Uiso   1.00
H876   H     0.93904   0.20964   0.81253   0.00000  Uiso   1.00
H877   H     0.97379   0.12342   0.68784   0.00000  Uiso   1.00
H878   H     0.72147   0.19203   0.91113   0.00000  Uiso   1.00
H879   H     0.97768   0.20219   0.96801   0.00000  Uiso   1.00
H880   H     0.68232   0.24887   0.95890   0.00000  Uiso   1.00
H881   H     0.92966   0.23075   0.55733   0.00000  Uiso   1.00
H882   H     0.96483   0.27756   0.54144   0.00000  Uiso   1.00
H883   H     0.93435   0.28705   0.96374   0.00000  Uiso   1.00
H884   H     0.69278   0.20970   0.81239   0.00000  Uiso   1.00
H885   H     0.88443   0.28362   0.52381   0.00000  Uiso   1.00
H886   H     0.89888   0.23985   0.98008   0.00000  Uiso   1.00
H887   H     0.95571   0.27278   0.74779   0.00000  Uiso   1.00
H888   H     0.95908   0.32740   0.73661   0.00000  Uiso   1.00
H889   H     0.67798   0.31636   0.64496   0.00000  Uiso   1.00
H890   H     0.70515   0.29738   0.69268   0.00000  Uiso   1.00
H891   H     0.68000   0.22556   0.67819   0.00000  Uiso   1.00
H892   H     0.71740   0.24831   0.61839   0.00000  Uiso   1.00
H893   H     0.98524   0.24388   0.63044   0.00000  Uiso   1.00
H894   H     0.72752   0.12333   0.68785   0.00000  Uiso   1.00
H895   H     0.93107   0.10246   0.91987   0.00000  Uiso   1.00
H896   H     0.96004   0.11099   0.99582   0.00000  Uiso   1.00
H897   H     0.80950   0.18830   0.58830   0.00000  Uiso   1.00
H898   H     0.75275   0.18809   0.55613   0.00000  Uiso   1.00
H899   H     0.87135   0.11451   0.87518   0.00000  Uiso   1.00
H900   H     0.94434   0.13142   0.58729   0.00000  Uiso   1.00
N901   N     0.71598   0.16666   0.74998   0.00000  Uiso   1.00
N902   N     0.95069   0.16669   0.74999   0.00000  Uiso   1.00
O903   O     0.79375   0.22678   0.75000   0.00000  Uiso   1.00
O904   O     0.92009   0.29178   0.69529   0.00000  Uiso   1.00
O905   O     0.87294   0.22679   0.75000   0.00000  Uiso   1.00
O906   O     0.77441   0.16665   0.82549   0.00000  Uiso   1.00
O907   O     0.85360   0.16666   0.82549   0.00000  Uiso   1.00
O908   O     0.79373   0.10654   0.74999   0.00000  Uiso   1.00
O909   O     0.87292   0.10655   0.74999   0.00000  Uiso   1.00
O910   O     0.81306   0.16667   0.67451   0.00000  Uiso   1.00
O911   O     0.89225   0.16668   0.67451   0.00000  Uiso   1.00
O912   O     0.68720   0.20875   0.51761   0.00000  Uiso   1.00
C913   C     0.16712   0.57930   0.74899   0.00000  Uiso   1.00
C914   C     0.12440   0.49911   0.90769   0.00000  Uiso   1.00
C915   C     0.21173   0.64571   0.72482   0.00000  Uiso   1.00
C916   C     0.14037   0.49855   0.85017   0.00000  Uiso   1.00
C917   C     0.21053   0.35536   0.72477   0.00000  Uiso   1.00
C918   C     0.16674   0.37622   0.74893   0.00000  Uiso   1.00
C919   C     0.12324   0.35448   0.77165   0.00000  Uiso   1.00
C920   C     0.12373   0.64514   0.77122   0.00000  Uiso   1.00
C921   C     0.16772   0.62398   0.74810   0.00000  Uiso   1.00
C922   C     0.29882   0.52381   0.78476   0.00000  Uiso   1.00
C923   C     0.01513   0.52386   0.78470   0.00000  Uiso   1.00
C924   C     0.14500   0.49757   0.98959   0.00000  Uiso   1.00
C925   C     0.03444   0.47594   0.71549   0.00000  Uiso   1.00
C926   C     0.31814   0.47595   0.71550   0.00000  Uiso   1.00
C927   C     0.16662   0.42074   0.74974   0.00000  Uiso   1.00
C928   C     0.19292   0.49923   0.65001   0.00000  Uiso   1.00
C929   C     0.25980   0.46073   0.51548   0.00000  Uiso   1.00
C930   C     0.20770   0.49326   0.59354   0.00000  Uiso   1.00
C931   C     0.07882   0.51704   0.93377   0.00000  Uiso   1.00
C932   C     0.06523   0.52506   0.98789   0.00000  Uiso   1.00
C933   C     0.09854   0.51534   0.51477   0.00000  Uiso   1.00
C934   C     0.32618   0.56010   0.98793   0.00000  Uiso   1.00
C935   C     0.15604   0.48627   0.93632   0.00000  Uiso   1.00
C936   C     0.28348   0.58413   0.52463   0.00000  Uiso   1.00
C937   C     0.24818   0.59959   0.99612   0.00000  Uiso   1.00
C938   C     0.29220   0.63007   0.71761   0.00000  Uiso   1.00
C939   C     0.00829   0.62565   0.67506   0.00000  Uiso   1.00
C940   C     0.01455   0.58316   0.64900   0.00000  Uiso   1.00
C941   C     0.18063   0.49008   0.51586   0.00000  Uiso   1.00
C942   C     0.22449   0.46846   0.98995   0.00000  Uiso   1.00
C943   C     0.23207   0.45381   0.93935   0.00000  Uiso   1.00
C944   C     0.19804   0.46193   0.91323   0.00000  Uiso   1.00
C945   C     0.17413   0.50352   0.56720   0.00000  Uiso   1.00
C946   C     0.25128   0.47281   0.56727   0.00000  Uiso   1.00
Cu947  Cu    0.11978   0.49999   0.75000   0.00000  Uiso   1.00
Cu948  Cu    0.21355   0.50001   0.75000   0.00000  Uiso   1.00
H949   H     0.08981   0.62865   0.78947   0.00000  Uiso   1.00
H950   H     0.24350   0.37242   0.70465   0.00000  Uiso   1.00
H951   H     0.08911   0.37046   0.79023   0.00000  Uiso   1.00
H952   H     0.27237   0.54297   0.81253   0.00000  Uiso   1.00
H953   H     0.30712   0.45675   0.68784   0.00000  Uiso   1.00
H954   H     0.05481   0.52536   0.91113   0.00000  Uiso   1.00
H955   H     0.31101   0.53552   0.96801   0.00000  Uiso   1.00
H956   H     0.01566   0.58221   0.95890   0.00000  Uiso   1.00
H957   H     0.26300   0.56408   0.55733   0.00000  Uiso   1.00
H958   H     0.29816   0.61089   0.54144   0.00000  Uiso   1.00
H959   H     0.26769   0.62039   0.96374   0.00000  Uiso   1.00
H960   H     0.02611   0.54304   0.81239   0.00000  Uiso   1.00
H961   H     0.21776   0.61695   0.52381   0.00000  Uiso   1.00
H962   H     0.23221   0.57318   0.98008   0.00000  Uiso   1.00
H963   H     0.28905   0.60611   0.74779   0.00000  Uiso   1.00
H964   H     0.29241   0.66074   0.73661   0.00000  Uiso   1.00
H965   H     0.01132   0.64970   0.64496   0.00000  Uiso   1.00
H966   H     0.03848   0.63071   0.69268   0.00000  Uiso   1.00
H967   H     0.01334   0.55889   0.67819   0.00000  Uiso   1.00
H968   H     0.05074   0.58165   0.61839   0.00000  Uiso   1.00
H969   H     0.31857   0.57722   0.63044   0.00000  Uiso   1.00
H970   H     0.06085   0.45666   0.68785   0.00000  Uiso   1.00
H971   H     0.26440   0.43579   0.91987   0.00000  Uiso   1.00
H972   H     0.29337   0.44432   0.99582   0.00000  Uiso   1.00
H973   H     0.14283   0.52163   0.58830   0.00000  Uiso   1.00
H974   H     0.08608   0.52142   0.55613   0.00000  Uiso   1.00
H975   H     0.20468   0.44784   0.87518   0.00000  Uiso   1.00
H976   H     0.27768   0.46475   0.58729   0.00000  Uiso   1.00
N977   N     0.04931   0.49999   0.74998   0.00000  Uiso   1.00
N978   N     0.28402   0.50002   0.74999   0.00000  Uiso   1.00
O979   O     0.12708   0.56011   0.75000   0.00000  Uiso   1.00
O980   O     0.25342   0.62511   0.69529   0.00000  Uiso   1.00
O981   O     0.20627   0.56012   0.75000   0.00000  Uiso   1.00
O982   O     0.10775   0.49998   0.82549   0.00000  Uiso   1.00
O983   O     0.18694   0.49999   0.82549   0.00000  Uiso   1.00
O984   O     0.12706   0.43988   0.74999   0.00000  Uiso   1.00
O985   O     0.20625   0.43989   0.74999   0.00000  Uiso   1.00
O986   O     0.14640   0.50001   0.67451   0.00000  Uiso   1.00
O987   O     0.22559   0.50002   0.67451   0.00000  Uiso   1.00
O988   O     0.02054   0.54208   0.51761   0.00000  Uiso   1.00
C989   C     0.50045   0.57930   0.74899   0.00000  Uiso   1.00
C990   C     0.45773   0.49911   0.90769   0.00000  Uiso   1.00
C991   C     0.54506   0.64571   0.72482   0.00000  Uiso   1.00
C992   C     0.47371   0.49855   0.85017   0.00000  Uiso   1.00
C993   C     0.54386   0.35536   0.72477   0.00000  Uiso   1.00
C994   C     0.50008   0.37622   0.74893   0.00000  Uiso   1.00
C995   C     0.45657   0.35448   0.77165   0.00000  Uiso   1.00
C996   C     0.45706   0.64514   0.77122   0.00000  Uiso   1.00
C997   C     0.50105   0.62398   0.74810   0.00000  Uiso   1.00
C998   C     0.63215   0.52381   0.78476   0.00000  Uiso   1.00
C999   C     0.34846   0.52386   0.78470   0.00000  Uiso   1.00
C1000  C     0.47833   0.49757   0.98959   0.00000  Uiso   1.00
C1001  C     0.36777   0.47594   0.71549   0.00000  Uiso   1.00
C1002  C     0.65147   0.47595   0.71550   0.00000  Uiso   1.00
C1003  C     0.49995   0.42074   0.74974   0.00000  Uiso   1.00
C1004  C     0.52626   0.49923   0.65001   0.00000  Uiso   1.00
C1005  C     0.59314   0.46073   0.51548   0.00000  Uiso   1.00
C1006  C     0.54103   0.49326   0.59354   0.00000  Uiso   1.00
C1007  C     0.41216   0.51704   0.93377   0.00000  Uiso   1.00
C1008  C     0.39857   0.52506   0.98789   0.00000  Uiso   1.00
C1009  C     0.43187   0.51534   0.51477   0.00000  Uiso   1.00
C1010  C     0.65952   0.56010   0.98793   0.00000  Uiso   1.00
C1011  C     0.48937   0.48627   0.93632   0.00000  Uiso   1.00
C1012  C     0.61682   0.58413   0.52463   0.00000  Uiso   1.00
C1013  C     0.58151   0.59959   0.99612   0.00000  Uiso   1.00
C1014  C     0.62553   0.63007   0.71761   0.00000  Uiso   1.00
C1015  C     0.34162   0.62565   0.67506   0.00000  Uiso   1.00
C1016  C     0.34788   0.58316   0.64900   0.00000  Uiso   1.00
C1017  C     0.51396   0.49008   0.51586   0.00000  Uiso   1.00
C1018  C     0.55783   0.46846   0.98995   0.00000  Uiso   1.00
C1019  C     0.56541   0.45381   0.93935   0.00000  Uiso   1.00
C1020  C     0.53137   0.46193   0.91323   0.00000  Uiso   1.00
C1021  C     0.50747   0.50352   0.56720   0.00000  Uiso   1.00
C1022  C     0.58461   0.47281   0.56727   0.00000  Uiso   1.00
Cu1023 Cu    0.45311   0.49999   0.75000   0.00000  Uiso   1.00
Cu1024 Cu    0.54689   0.50001   0.75000   0.00000  Uiso   1.00
H1025  H     0.42314   0.62865   0.78947   0.00000  Uiso   1.00
H1026  H     0.57683   0.37242   0.70465   0.00000  Uiso   1.00
H1027  H     0.42244   0.37046   0.79023   0.00000  Uiso   1.00
H1028  H     0.60570   0.54297   0.81253   0.00000  Uiso   1.00
H1029  H     0.64046   0.45675   0.68784   0.00000  Uiso   1.00
H1030  H     0.38814   0.52536   0.91113   0.00000  Uiso   1.00
H1031  H     0.64435   0.53552   0.96801   0.00000  Uiso   1.00
H1032  H     0.34899   0.58221   0.95890   0.00000  Uiso   1.00
H1033  H     0.59633   0.56408   0.55733   0.00000  Uiso   1.00
H1034  H     0.63149   0.61089   0.54144   0.00000  Uiso   1.00
H1035  H     0.60102   0.62039   0.96374   0.00000  Uiso   1.00
H1036  H     0.35945   0.54304   0.81239   0.00000  Uiso   1.00
H1037  H     0.55109   0.61695   0.52381   0.00000  Uiso   1.00
H1038  H     0.56555   0.57318   0.98008   0.00000  Uiso   1.00
H1039  H     0.62238   0.60611   0.74779   0.00000  Uiso   1.00
H1040  H     0.62574   0.66074   0.73661   0.00000  Uiso   1.00
H1041  H     0.34465   0.64970   0.64496   0.00000  Uiso   1.00
H1042  H     0.37181   0.63071   0.69268   0.00000  Uiso   1.00
H1043  H     0.34667   0.55889   0.67819   0.00000  Uiso   1.00
H1044  H     0.38407   0.58165   0.61839   0.00000  Uiso   1.00
H1045  H     0.65191   0.57722   0.63044   0.00000  Uiso   1.00
H1046  H     0.39419   0.45666   0.68785   0.00000  Uiso   1.00
H1047  H     0.59773   0.43579   0.91987   0.00000  Uiso   1.00
H1048  H     0.62671   0.44432   0.99582   0.00000  Uiso   1.00
H1049  H     0.47617   0.52163   0.58830   0.00000  Uiso   1.00
H1050  H     0.41942   0.52142   0.55613   0.00000  Uiso   1.00
H1051  H     0.53801   0.44784   0.87518   0.00000  Uiso   1.00
H1052  H     0.61101   0.46475   0.58729   0.00000  Uiso   1.00
N1053  N     0.38265   0.49999   0.74998   0.00000  Uiso   1.00
N1054  N     0.61735   0.50002   0.74999   0.00000  Uiso   1.00
O1055  O     0.46042   0.56011   0.75000   0.00000  Uiso   1.00
O1056  O     0.58676   0.62511   0.69529   0.00000  Uiso   1.00
O1057  O     0.53961   0.56012   0.75000   0.00000  Uiso   1.00
O1058  O     0.44108   0.49998   0.82549   0.00000  Uiso   1.00
O1059  O     0.52027   0.49999   0.82549   0.00000  Uiso   1.00
O1060  O     0.46039   0.43988   0.74999   0.00000  Uiso   1.00
O1061  O     0.53958   0.43989   0.74999   0.00000  Uiso   1.00
O1062  O     0.47973   0.50001   0.67451   0.00000  Uiso   1.00
O1063  O     0.55892   0.50002   0.67451   0.00000  Uiso   1.00
O1064  O     0.35387   0.54208   0.51761   0.00000  Uiso   1.00
C1065  C     0.83379   0.57930   0.74899   0.00000  Uiso   1.00
C1066  C     0.79106   0.49911   0.90769   0.00000  Uiso   1.00
C1067  C     0.87840   0.64571   0.72482   0.00000  Uiso   1.00
C1068  C     0.80704   0.49855   0.85017   0.00000  Uiso   1.00
C1069  C     0.87719   0.35536   0.72477   0.00000  Uiso   1.00
C1070  C     0.83341   0.37622   0.74893   0.00000  Uiso   1.00
C1071  C     0.78991   0.35448   0.77165   0.00000  Uiso   1.00
C1072  C     0.79039   0.64514   0.77122   0.00000  Uiso   1.00
C1073  C     0.83439   0.62398   0.74810   0.00000  Uiso   1.00
C1074  C     0.96549   0.52381   0.78476   0.00000  Uiso   1.00
C1075  C     0.68179   0.52386   0.78470   0.00000  Uiso   1.00
C1076  C     0.81167   0.49757   0.98959   0.00000  Uiso   1.00
C1077  C     0.70110   0.47594   0.71549   0.00000  Uiso   1.00
C1078  C     0.98480   0.47595   0.71550   0.00000  Uiso   1.00
C1079  C     0.83329   0.42074   0.74974   0.00000  Uiso   1.00
C1080  C     0.85959   0.49923   0.65001   0.00000  Uiso   1.00
C1081  C     0.92647   0.46073   0.51548   0.00000  Uiso   1.00
C1082  C     0.87437   0.49326   0.59354   0.00000  Uiso   1.00
C1083  C     0.74549   0.51704   0.93377   0.00000  Uiso   1.00
C1084  C     0.73190   0.52506   0.98789   0.00000  Uiso   1.00
C1085  C     0.76520   0.51534   0.51477   0.00000  Uiso   1.00
C1086  C     0.99285   0.56010   0.98793   0.00000  Uiso   1.00
C1087  C     0.82270   0.48627   0.93632   0.00000  Uiso   1.00
C1088  C     0.95015   0.58413   0.52463   0.00000  Uiso   1.00
C1089  C     0.91484   0.59959   0.99612   0.00000  Uiso   1.00
C1090  C     0.95886   0.63007   0.71761   0.00000  Uiso   1.00
C1091  C     0.67495   0.62565   0.67506   0.00000  Uiso   1.00
C1092  C     0.68122   0.58316   0.64900   0.00000  Uiso   1.00
C1093  C     0.84729   0.49008   0.51586   0.00000  Uiso   1.00
C1094  C     0.89116   0.46846   0.98995   0.00000  Uiso   1.00
C1095  C     0.89874   0.45381   0.93935   0.00000  Uiso   1.00
C1096  C     0.86471   0.46193   0.91323   0.00000  Uiso   1.00
C1097  C     0.84080   0.50352   0.56720   0.00000  Uiso   1.00
C1098  C     0.91794   0.47281   0.56727   0.00000  Uiso   1.00
Cu1099 Cu    0.78645   0.49999   0.75000   0.00000  Uiso   1.00
Cu1100 Cu    0.88022   0.50001   0.75000   0.00000  Uiso   1.00
H1101  H     0.75648   0.62865   0.78947   0.00000  Uiso   1.00
H1102  H     0.91016   0.37242   0.70465   0.00000  Uiso   1.00
H1103  H     0.75577   0.37046   0.79023   0.00000  Uiso   1.00
H1104  H     0.93904   0.54297   0.81253   0.00000  Uiso   1.00
H1105  H     0.97379   0.45675   0.68784   0.00000  Uiso   1.00
H1106  H     0.72147   0.52536   0.91113   0.00000  Uiso   1.00
H1107  H     0.97768   0.53552   0.96801   0.00000  Uiso   1.00
H1108  H     0.68232   0.58221   0.95890   0.00000  Uiso   1.00
H1109  H     0.92966   0.56408   0.55733   0.00000  Uiso   1.00
H1110  H     0.96483   0.61089   0.54144   0.00000  Uiso   1.00
H1111  H     0.93435   0.62039   0.96374   0.00000  Uiso   1.00
H1112  H     0.69278   0.54304   0.81239   0.00000  Uiso   1.00
H1113  H     0.88443   0.61695   0.52381   0.00000  Uiso   1.00
H1114  H     0.89888   0.57318   0.98008   0.00000  Uiso   1.00
H1115  H     0.95571   0.60611   0.74779   0.00000  Uiso   1.00
H1116  H     0.95908   0.66074   0.73661   0.00000  Uiso   1.00
H1117  H     0.67798   0.64970   0.64496   0.00000  Uiso   1.00
H1118  H     0.70515   0.63071   0.69268   0.00000  Uiso   1.00
H1119  H     0.68000   0.55889   0.67819   0.00000  Uiso   1.00
H1120  H     0.71740   0.58165   0.61839   0.00000  Uiso   1.00
H1121  H     0.98524   0.57722   0.63044   0.00000  Uiso   1.00
H1122  H     0.72752   0.45666   0.68785   0.00000  Uiso   1.00
H1123  H     0.93107   0.43579   0.91987   0.00000  Uiso   1.00
H1124  H     0.96004   0.44432   0.99582   0.00000  Uiso   1.00
H1125  H     0.80950   0.52163   0.58830   0.00000  Uiso   1.00
H1126  H     0.75275   0.52142   0.55613   0.00000  Uiso   1.00
H1127  H     0.87135   0.44784   0.87518   0.00000  Uiso   1.00
H1128  H     0.94434   0.46475   0.58729   0.00000  Uiso   1.00
N1129  N     0.71598   0.49999   0.74998   0.00000  Uiso   1.00
N1130  N     0.95069   0.50002   0.74999   0.00000  Uiso   1.00
O1131  O     0.79375   0.56011   0.75000   0.00000  Uiso   1.00
O1132  O     0.92009   0.62511   0.69529   0.00000  Uiso   1.00
O1133  O     0.87294   0.56012   0.75000   0.00000  Uiso   1.00
O1134  O     0.77441   0.49998   0.82549   0.00000  Uiso   1.00
O1135  O     0.85360   0.49999   0.82549   0.00000  Uiso   1.00
O1136  O     0.79373   0.43988   0.74999   0.00000  Uiso   1.00
O1137  O     0.87292   0.43989   0.74999   0.00000  Uiso   1.00
O1138  O     0.81306   0.50001   0.67451   0.00000  Uiso   1.00
O1139  O     0.89225   0.50002   0.67451   0.00000  Uiso   1.00
O1140  O     0.68720   0.54208   0.51761   0.00000  Uiso   1.00
C1141  C     0.16712   0.91264   0.74899   0.00000  Uiso   1.00
C1142  C     0.12440   0.83244   0.90769   0.00000  Uiso   1.00
C1143  C     0.21173   0.97904   0.72482   0.00000  Uiso   1.00
C1144  C     0.14037   0.83188   0.85017   0.00000  Uiso   1.00
C1145  C     0.21053   0.68869   0.72477   0.00000  Uiso   1.00
C1146  C     0.16674   0.70955   0.74893   0.00000  Uiso   1.00
C1147  C     0.12324   0.68781   0.77165   0.00000  Uiso   1.00
C1148  C     0.12373   0.97847   0.77122   0.00000  Uiso   1.00
C1149  C     0.16772   0.95731   0.74810   0.00000  Uiso   1.00
C1150  C     0.29882   0.85715   0.78476   0.00000  Uiso   1.00
C1151  C     0.01513   0.85719   0.78470   0.00000  Uiso   1.00
C1152  C     0.14500   0.83090   0.98959   0.00000  Uiso   1.00
C1153  C     0.03444   0.80927   0.71549   0.00000  Uiso   1.00
C1154  C     0.31814   0.80929   0.71550   0.00000  Uiso   1.00
C1155  C     0.16662   0.75407   0.74974   0.00000  Uiso   1.00
C1156  C     0.19292   0.83256   0.65001   0.00000  Uiso   1.00
C1157  C     0.25980   0.79406   0.51548   0.00000  Uiso   1.00
C1158  C     0.20770   0.82659   0.59354   0.00000  Uiso   1.00
C1159  C     0.07882   0.85037   0.93377   0.00000  Uiso   1.00
C1160  C     0.06523   0.85839   0.98789   0.00000  Uiso   1.00
C1161  C     0.09854   0.84868   0.51477   0.00000  Uiso   1.00
C1162  C     0.32618   0.89344   0.98793   0.00000  Uiso   1.00
C1163  C     0.15604   0.81961   0.93632   0.00000  Uiso   1.00
C1164  C     0.28348   0.91747   0.52463   0.00000  Uiso   1.00
C1165  C     0.24818   0.93292   0.99612   0.00000  Uiso   1.00
C1166  C     0.29220   0.96341   0.71761   0.00000  Uiso   1.00
C1167  C     0.00829   0.95898   0.67506   0.00000  Uiso   1.00
C1168  C     0.01455   0.91649   0.64900   0.00000  Uiso   1.00
C1169  C     0.18063   0.82341   0.51586   0.00000  Uiso   1.00
C1170  C     0.22449   0.80180   0.98995   0.00000  Uiso   1.00
C1171  C     0.23207   0.78715   0.93935   0.00000  Uiso   1.00
C1172  C     0.19804   0.79526   0.91323   0.00000  Uiso   1.00
C1173  C     0.17413   0.83685   0.56720   0.00000  Uiso   1.00
C1174  C     0.25128   0.80614   0.56727   0.00000  Uiso   1.00
Cu1175 Cu    0.11978   0.83333   0.75000   0.00000  Uiso   1.00
Cu1176 Cu    0.21355   0.83334   0.75000   0.00000  Uiso   1.00
H1177  H     0.08981   0.96199   0.78947   0.00000  Uiso   1.00
H1178  H     0.24350   0.70576   0.70465   0.00000  Uiso   1.00
H1179  H     0.08911   0.70380   0.79023   0.00000  Uiso   1.00
H1180  H     0.27237   0.87631   0.81253   0.00000  Uiso   1.00
H1181  H     0.30712   0.79008   0.68784   0.00000  Uiso   1.00
H1182  H     0.05481   0.85869   0.91113   0.00000  Uiso   1.00
H1183  H     0.31101   0.86885   0.96801   0.00000  Uiso   1.00
H1184  H     0.01566   0.91554   0.95890   0.00000  Uiso   1.00
H1185  H     0.26300   0.89741   0.55733   0.00000  Uiso   1.00
H1186  H     0.29816   0.94422   0.54144   0.00000  Uiso   1.00
H1187  H     0.26769   0.95372   0.96374   0.00000  Uiso   1.00
H1188  H     0.02611   0.87637   0.81239   0.00000  Uiso   1.00
H1189  H     0.21776   0.95029   0.52381   0.00000  Uiso   1.00
H1190  H     0.23221   0.90651   0.98008   0.00000  Uiso   1.00
H1191  H     0.28905   0.93944   0.74779   0.00000  Uiso   1.00
H1192  H     0.29241   0.99407   0.73661   0.00000  Uiso   1.00
H1193  H     0.01132   0.98303   0.64496   0.00000  Uiso   1.00
H1194  H     0.03848   0.96404   0.69268   0.00000  Uiso   1.00
H1195  H     0.01334   0.89223   0.67819   0.00000  Uiso   1.00
H1196  H     0.05074   0.91498   0.61839   0.00000  Uiso   1.00
H1197  H     0.31857   0.91055   0.63044   0.00000  Uiso   1.00
H1198  H     0.06085   0.79000   0.68785   0.00000  Uiso   1.00
H1199  H     0.26440   0.76913   0.91987   0.00000  Uiso   1.00
H1200  H     0.29337   0.77766   0.99582   0.00000  Uiso   1.00
H1201  H     0.14283   0.85497   0.58830   0.00000  Uiso   1.00
H1202  H     0.08608   0.85475   0.55613   0.00000  Uiso   1.00
H1203  H     0.20468   0.78118   0.87518   0.00000  Uiso   1.00
H1204  H     0.27768   0.79809   0.58729   0.00000  Uiso   1.00
N1205  N     0.04931   0.83332   0.74998   0.00000  Uiso   1.00
N1206  N     0.28402   0.83335   0.74999   0.00000  Uiso   1.00
O1207  O     0.12708   0.89345   0.75000   0.00000  Uiso   1.00
O1208  O     0.25342   0.95845   0.69529   0.00000  Uiso   1.00
O1209  O     0.20627   0.89346   0.75000   0.00000  Uiso   1.00
O1210  O     0.10775   0.83332   0.82549   0.00000  Uiso   1.00
O1211  O     0.18694   0.83333   0.82549   0.00000  Uiso   1.00
O1212  O     0.12706   0.77321   0.74999   0.00000  Uiso   1.00
O1213  O     0.20625   0.77322   0.74999   0.00000  Uiso   1.00
O1214  O     0.14640   0.83334   0.67451   0.00000  Uiso   1.00
O1215  O     0.22559   0.83335   0.67451   0.00000  Uiso   1.00
O1216  O     0.02054   0.87541   0.51761   0.00000  Uiso   1.00
C1217  C     0.50045   0.91264   0.74899   0.00000  Uiso   1.00
C1218  C     0.45773   0.83244   0.90769   0.00000  Uiso   1.00
C1219  C     0.54506   0.97904   0.72482   0.00000  Uiso   1.00
C1220  C     0.47371   0.83188   0.85017   0.00000  Uiso   1.00
C1221  C     0.54386   0.68869   0.72477   0.00000  Uiso   1.00
C1222  C     0.50008   0.70955   0.74893   0.00000  Uiso   1.00
C1223  C     0.45657   0.68781   0.77165   0.00000  Uiso   1.00
C1224  C     0.45706   0.97847   0.77122   0.00000  Uiso   1.00
C1225  C     0.50105   0.95731   0.74810   0.00000  Uiso   1.00
C1226  C     0.63215   0.85715   0.78476   0.00000  Uiso   1.00
C1227  C     0.34846   0.85719   0.78470   0.00000  Uiso   1.00
C1228  C     0.47833   0.83090   0.98959   0.00000  Uiso   1.00
C1229  C     0.36777   0.80927   0.71549   0.00000  Uiso   1.00
C1230  C     0.65147   0.80929   0.71550   0.00000  Uiso   1.00
C1231  C     0.49995   0.75407   0.74974   0.00000  Uiso   1.00
C1232  C     0.52626   0.83256   0.65001   0.00000  Uiso   1.00
C1233  C     0.59314   0.79406   0.51548   0.00000  Uiso   1.00
C1234  C     0.54103   0.82659   0.59354   0.00000  Uiso   1.00
C1235  C     0.41216   0.85037   0.93377   0.00000  Uiso   1.00
C1236  C     0.39857   0.85839   0.98789   0.00000  Uiso   1.00
C1237  C     0.43187   0.84868   0.51477   0.00000  Uiso   1.00
C1238  C     0.65952   0.89344   0.98793   0.00000  Uiso   1.00
C1239  C     0.48937   0.81961   0.93632   0.00000  Uiso   1.00
C1240  C     0.61682   0.91747   0.52463   0.00000  Uiso   1.00
C1241  C     0.58151   0.93292   0.99612   0.00000  Uiso   1.00
C1242  C     0.62553   0.96341   0.71761   0.00000  Uiso   1.00
C1243  C     0.34162   0.95898   0.67506   0.00000  Uiso   1.00
C1244  C     0.34788   0.91649   0.64900   0.00000  Uiso   1.00
C1245  C     0.51396   0.82341   0.51586   0.00000  Uiso   1.00
C1246  C     0.55783   0.80180   0.98995   0.00000  Uiso   1.00
C1247  C     0.56541   0.78715   0.93935   0.00000  Uiso   1.00
C1248  C     0.53137   0.79526   0.91323   0.00000  Uiso   1.00
C1249  C     0.50747   0.83685   0.56720   0.00000  Uiso   1.00
C1250  C     0.58461   0.80614   0.56727   0.00000  Uiso   1.00
Cu1251 Cu    0.45311   0.83333   0.75000   0.00000  Uiso   1.00
Cu1252 Cu    0.54689   0.83334   0.75000   0.00000  Uiso   1.00
H1253  H     0.42314   0.96199   0.78947   0.00000  Uiso   1.00
H1254  H     0.57683   0.70576   0.70465   0.00000  Uiso   1.00
H1255  H     0.42244   0.70380   0.79023   0.00000  Uiso   1.00
H1256  H     0.60570   0.87631   0.81253   0.00000  Uiso   1.00
H1257  H     0.64046   0.79008   0.68784   0.00000  Uiso   1.00
H1258  H     0.38814   0.85869   0.91113   0.00000  Uiso   1.00
H1259  H     0.64435   0.86885   0.96801   0.00000  Uiso   1.00
H1260  H     0.34899   0.91554   0.95890   0.00000  Uiso   1.00
H1261  H     0.59633   0.89741   0.55733   0.00000  Uiso   1.00
H1262  H     0.63149   0.94422   0.54144   0.00000  Uiso   1.00
H1263  H     0.60102   0.95372   0.96374   0.00000  Uiso   1.00
H1264  H     0.35945   0.87637   0.81239   0.00000  Uiso   1.00
H1265  H     0.55109   0.95029   0.52381   0.00000  Uiso   1.00
H1266  H     0.56555   0.90651   0.98008   0.00000  Uiso   1.00
H1267  H     0.62238   0.93944   0.74779   0.00000  Uiso   1.00
H1268  H     0.62574   0.99407   0.73661   0.00000  Uiso   1.00
H1269  H     0.34465   0.98303   0.64496   0.00000  Uiso   1.00
H1270  H     0.37181   0.96404   0.69268   0.00000  Uiso   1.00
H1271  H     0.34667   0.89223   0.67819   0.00000  Uiso   1.00
H1272  H     0.38407   0.91498   0.61839   0.00000  Uiso   1.00
H1273  H     0.65191   0.91055   0.63044   0.00000  Uiso   1.00
H1274  H     0.39419   0.79000   0.68785   0.00000  Uiso   1.00
H1275  H     0.59773   0.76913   0.91987   0.00000  Uiso   1.00
H1276  H     0.62671   0.77766   0.99582   0.00000  Uiso   1.00
H1277  H     0.47617   0.85497   0.58830   0.00000  Uiso   1.00
H1278  H     0.41942   0.85475   0.55613   0.00000  Uiso   1.00
H1279  H     0.53801   0.78118   0.87518   0.00000  Uiso   1.00
H1280  H     0.61101   0.79809   0.58729   0.00000  Uiso   1.00
N1281  N     0.38265   0.83332   0.74998   0.00000  Uiso   1.00
N1282  N     0.61735   0.83335   0.74999   0.00000  Uiso   1.00
O1283  O     0.46042   0.89345   0.75000   0.00000  Uiso   1.00
O1284  O     0.58676   0.95845   0.69529   0.00000  Uiso   1.00
O1285  O     0.53961   0.89346   0.75000   0.00000  Uiso   1.00
O1286  O     0.44108   0.83332   0.82549   0.00000  Uiso   1.00
O1287  O     0.52027   0.83333   0.82549   0.00000  Uiso   1.00
O1288  O     0.46039   0.77321   0.74999   0.00000  Uiso   1.00
O1289  O     0.53958   0.77322   0.74999   0.00000  Uiso   1.00
O1290  O     0.47973   0.83334   0.67451   0.00000  Uiso   1.00
O1291  O     0.55892   0.83335   0.67451   0.00000  Uiso   1.00
O1292  O     0.35387   0.87541   0.51761   0.00000  Uiso   1.00
C1293  C     0.83379   0.91264   0.74899   0.00000  Uiso   1.00
C1294  C     0.79106   0.83244   0.90769   0.00000  Uiso   1.00
C1295  C     0.87840   0.97904   0.72482   0.00000  Uiso   1.00
C1296  C     0.80704   0.83188   0.85017   0.00000  Uiso   1.00
C1297  C     0.87719   0.68869   0.72477   0.00000  Uiso   1.00
C1298  C     0.83341   0.70955   0.74893   0.00000  Uiso   1.00
C1299  C     0.78991   0.68781   0.77165   0.00000  Uiso   1.00
C1300  C     0.79039   0.97847   0.77122   0.00000  Uiso   1.00
C1301  C     0.83439   0.95731   0.74810   0.00000  Uiso   1.00
C1302  C     0.96549   0.85715   0.78476   0.00000  Uiso   1.00
C1303  C     0.68179   0.85719   0.78470   0.00000  Uiso   1.00
C1304  C     0.81167   0.83090   0.98959   0.00000  Uiso   1.00
C1305  C     0.70110   0.80927   0.71549   0.00000  Uiso   1.00
C1306  C     0.98480   0.80929   0.71550   0.00000  Uiso   1.00
C1307  C     0.83329   0.75407   0.74974   0.00000  Uiso   1.00
C1308  C     0.85959   0.83256   0.65001   0.00000  Uiso   1.00
C1309  C     0.92647   0.79406   0.51548   0.00000  Uiso   1.00
C1310  C     0.87437   0.82659   0.59354   0.00000  Uiso   1.00
C1311  C     0.74549   0.85037   0.93377   0.00000  Uiso   1.00
C1312  C     0.73190   0.85839   0.98789   0.00000  Uiso   1.00
C1313  C     0.76520   0.84868   0.51477   0.00000  Uiso   1.00
C1314  C     0.99285   0.89344   0.98793   0.00000  Uiso   1.00
C1315  C     0.82270   0.81961   0.93632   0.00000  Uiso   1.00
C1316  C     0.95015   0.91747   0.52463   0.00000  Uiso   1.00
C1317  C     0.91484   0.93292   0.99612   0.00000  Uiso   1.00
C1318  C     0.95886   0.96341   0.71761   0.00000  Uiso   1.00
C1319  C     0.67495   0.95898   0.67506   0.00000  Uiso   1.00
C1320  C     0.68122   0.91649   0.64900   0.00000  Uiso   1.00
C1321  C     0.84729   0.82341   0.51586   0.00000  Uiso   1.00
C1322  C     0.89116   0.80180   0.98995   0.00000  Uiso   1.00
C1323  C     0.89874   0.78715   0.93935   0.00000  Uiso   1.00
C1324  C     0.86471   0.79526   0.91323   0.00000  Uiso   1.00
C1325  C     0.84080   0.83685   0.56720   0.00000  Uiso   1.00
C1326  C     0.91794   0.80614   0.56727   0.00000  Uiso   1.00
Cu1327 Cu    0.78645   0.83333   0.75000   0.00000  Uiso   1.00
Cu1328 Cu    0.88022   0.83334   0.75000   0.00000  Uiso   1.00
H1329  H     0.75648   0.96199   0.78947   0.00000  Uiso   1.00
H1330  H     0.91016   0.70576   0.70465   0.00000  Uiso   1.00
H1331  H     0.75577   0.70380   0.79023   0.00000  Uiso   1.00
H1332  H     0.93904   0.87631   0.81253   0.00000  Uiso   1.00
H1333  H     0.97379   0.79008   0.68784   0.00000  Uiso   1.00
H1334  H     0.72147   0.85869   0.91113   0.00000  Uiso   1.00
H1335  H     0.97768   0.86885   0.96801   0.00000  Uiso   1.00
H1336  H     0.68232   0.91554   0.95890   0.00000  Uiso   1.00
H1337  H     0.92966   0.89741   0.55733   0.00000  Uiso   1.00
H1338  H     0.96483   0.94422   0.54144   0.00000  Uiso   1.00
H1339  H     0.93435   0.95372   0.96374   0.00000  Uiso   1.00
H1340  H     0.69278   0.87637   0.81239   0.00000  Uiso   1.00
H1341  H     0.88443   0.95029   0.52381   0.00000  Uiso   1.00
H1342  H     0.89888   0.90651   0.98008   0.00000  Uiso   1.00
H1343  H     0.95571   0.93944   0.74779   0.00000  Uiso   1.00
H1344  H     0.95908   0.99407   0.73661   0.00000  Uiso   1.00
H1345  H     0.67798   0.98303   0.64496   0.00000  Uiso   1.00
H1346  H     0.70515   0.96404   0.69268   0.00000  Uiso   1.00
H1347  H     0.68000   0.89223   0.67819   0.00000  Uiso   1.00
H1348  H     0.71740   0.91498   0.61839   0.00000  Uiso   1.00
H1349  H     0.98524   0.91055   0.63044   0.00000  Uiso   1.00
H1350  H     0.72752   0.79000   0.68785   0.00000  Uiso   1.00
H1351  H     0.93107   0.76913   0.91987   0.00000  Uiso   1.00
H1352  H     0.96004   0.77766   0.99582   0.00000  Uiso   1.00
H1353  H     0.80950   0.85497   0.58830   0.00000  Uiso   1.00
H1354  H     0.75275   0.85475   0.55613   0.00000  Uiso   1.00
H1355  H     0.87135   0.78118   0.87518   0.00000  Uiso   1.00
H1356  H     0.94434   0.79809   0.58729   0.00000  Uiso   1.00
N1357  N     0.71598   0.83332   0.74998   0.00000  Uiso   1.00
N1358  N     0.95069   0.83335   0.74999   0.00000  Uiso   1.00
O1359  O     0.79375   0.89345   0.75000   0.00000  Uiso   1.00
O1360  O     0.92009   0.95845   0.69529   0.00000  Uiso   1.00
O1361  O     0.87294   0.89346   0.75000   0.00000  Uiso   1.00
O1362  O     0.77441   0.83332   0.82549   0.00000  Uiso   1.00
O1363  O     0.85360   0.83333   0.82549   0.00000  Uiso   1.00
O1364  O     0.79373   0.77321   0.74999   0.00000  Uiso   1.00
O1365  O     0.87292   0.77322   0.74999   0.00000  Uiso   1.00
O1366  O     0.81306   0.83334   0.67451   0.00000  Uiso   1.00
O1367  O     0.89225   0.83335   0.67451   0.00000  Uiso   1.00
O1368  O     0.68720   0.87541   0.51761   0.00000  Uiso   1.00
loop_
_geom_bond_atom_site_label_1
_geom_bond_atom_site_label_2
_geom_bond_distance
_geom_bond_site_symmetry_2
_ccdc_geom_bond_type
C1     C9      1.448   .     S
C1     O69     1.289   .     A
C1     O67     1.291   .     A
C2     C4      1.473   .     S
C2     C19     1.404   .     A
C2     C23     1.417   .     A
C3     O68     1.386   .     S
C3     C9      1.410   .     A
C3     C233    1.394   .     S
C4     O70     1.297   .     A
C4     O71     1.294   .     A
C5     C6      1.397   .     A
C5     H38     1.084   .     S
C5     C459    1.394   1_545 S
C6     C15     1.443   .     S
C6     C7      1.396   .     A
C7     H39     1.084   .     S
C7     C464    1.383   1_545 S
C8     C9      1.401   .     A
C8     H37     1.084   .     S
C8     C235    1.383   .     S
C10    H40     1.082   .     S
C10    N66     1.367   .     A
C10    C87     1.416   .     S
C11    H48     1.082   .     S
C11    N65     1.367   .     A
C11    C162    1.416   1_455 S
C12    C23     1.415   .     A
C12    C705    1.417   .     S
C12    C713    1.424   .     S
C13    N65     1.367   .     A
C13    H58     1.082   .     S
C13    C166    1.416   1_455 S
C14    N66     1.367   .     A
C14    H41     1.082   .     S
C14    C89     1.416   .     S
C15    O72     1.289   .     A
C15    O73     1.289   .     A
C16    O75     1.293   .     A
C16    O74     1.292   .     A
C16    C18     1.459   .     S
C17    C34     1.392   .     A
C17    C714    1.404   1_554 S
C17    H744    1.084   1_554 S
C18    C34     1.398   .     A
C18    C33     1.394   .     A
C19    C20     1.410   .     A
C19    H42     1.081   .     S
C20    C705    1.394   .     S
C20    O760    1.398   .     S
C21    H62     1.076   .     S
C21    C704    1.394   1_554 S
C21    C696    1.417   1_554 S
C22    H43     1.113   .     S
C22    C708    1.529   .     S
C22    H120    1.115   .     S
C22    O836    1.412   .     S
C23    C32     1.413   .     A
C24    H45     1.109   .     S
C24    H46     1.112   .     S
C24    C706    1.529   1_554 S
C24    C709    1.526   1_554 S
C25    H50     1.111   .     S
C25    H47     1.111   .     S
C25    C708    1.526   .     S
C25    H733    1.110   .     S
C26    H52     1.115   .     S
C26    O68     1.417   .     S
C26    H51     1.111   .     S
C26    C103    1.531   .     S
C27    H54     1.112   .     S
C27    C28     1.527   .     S
C27    H53     1.112   .     S
C27    C178    1.531   1_455 S
C28    H56     1.110   .     S
C28    H55     1.108   .     S
C28    H209    1.111   1_455 S
C29    C33     1.401   .     A
C29    C696    1.424   1_554 S
C29    C714    1.421   1_554 S
C30    C31     1.391   .     A
C30    C701    1.404   .     S
C30    C713    1.421   .     S
C31    H59     1.084   .     S
C31    C32     1.386   .     A
C32    H63     1.080   .     S
C33    H61     1.076   .     S
C34    H64     1.083   .     S
Cu35   O74     1.939   .     S
Cu35   N65     2.011   .     S
Cu35   O70     1.952   .     S
Cu35   Cu36    2.675   .     S
Cu35   O67     1.959   .     S
Cu35   O72     1.961   .     S
Cu36   N66     2.010   .     S
Cu36   O71     1.939   .     S
Cu36   O73     1.959   .     S
Cu36   O75     1.952   .     S
Cu36   O69     1.961   .     S
H44    C174    1.115   1_455 S
H49    C709    1.110   1_554 S
H57    C104    1.111   .     S
H60    C701    1.084   .     S
O76    C704    1.398   1_554 S
O76    C858    1.412   1_454 S
C77    C85     1.448   .     S
C77    O145    1.289   .     A
C77    O143    1.291   .     A
C78    C80     1.473   .     S
C78    C95     1.404   .     A
C78    C99     1.417   .     A
C79    O144    1.386   .     S
C79    C85     1.410   .     A
C79    C309    1.394   .     S
C80    O146    1.297   .     A
C80    O147    1.294   .     A
C81    C82     1.397   .     A
C81    H114    1.084   .     S
C81    C535    1.394   1_545 S
C82    C91     1.443   .     S
C82    C83     1.396   .     A
C83    H115    1.084   .     S
C83    C540    1.383   1_545 S
C84    C85     1.401   .     A
C84    H113    1.084   .     S
C84    C311    1.383   .     S
C86    H116    1.082   .     S
C86    N142    1.367   .     A
C86    C163    1.416   .     S
C87    H124    1.082   .     S
C87    N141    1.367   .     A
C88    C99     1.415   .     A
C88    C781    1.417   .     S
C88    C789    1.424   .     S
C89    N141    1.367   .     A
C89    H134    1.082   .     S
C90    N142    1.367   .     A
C90    H117    1.082   .     S
C90    C165    1.416   .     S
C91    O148    1.289   .     A
C91    O149    1.289   .     A
C92    O151    1.293   .     A
C92    O150    1.292   .     A
C92    C94     1.459   .     S
C93    C110    1.392   .     A
C93    C790    1.404   1_554 S
C93    H820    1.084   1_554 S
C94    C110    1.398   .     A
C94    C109    1.394   .     A
C95    C96     1.410   .     A
C95    H118    1.081   .     S
C96    C781    1.394   .     S
C96    O836    1.398   .     S
C97    H138    1.076   .     S
C97    C780    1.394   1_554 S
C97    C772    1.417   1_554 S
C98    H119    1.113   .     S
C98    C784    1.529   .     S
C98    H196    1.115   .     S
C98    O912    1.412   .     S
C99    C108    1.413   .     A
C100   H121    1.109   .     S
C100   H122    1.112   .     S
C100   C782    1.529   1_554 S
C100   C785    1.526   1_554 S
C101   H126    1.111   .     S
C101   H123    1.111   .     S
C101   C784    1.526   .     S
C101   H809    1.110   .     S
C102   H128    1.115   .     S
C102   O144    1.417   .     S
C102   H127    1.111   .     S
C102   C179    1.531   .     S
C103   H130    1.112   .     S
C103   C104    1.527   .     S
C103   H129    1.112   .     S
C104   H132    1.110   .     S
C104   H131    1.108   .     S
C105   C109    1.401   .     A
C105   C772    1.424   1_554 S
C105   C790    1.421   1_554 S
C106   C107    1.391   .     A
C106   C777    1.404   .     S
C106   C789    1.421   .     S
C107   H135    1.084   .     S
C107   C108    1.386   .     A
C108   H139    1.080   .     S
C109   H137    1.076   .     S
C110   H140    1.083   .     S
Cu111  O150    1.939   .     S
Cu111  N141    2.011   .     S
Cu111  O146    1.952   .     S
Cu111  Cu112   2.675   .     S
Cu111  O143    1.959   .     S
Cu111  O148    1.961   .     S
Cu112  N142    2.010   .     S
Cu112  O147    1.939   .     S
Cu112  O149    1.959   .     S
Cu112  O151    1.952   .     S
Cu112  O145    1.961   .     S
H125   C785    1.110   1_554 S
H133   C180    1.111   .     S
H136   C777    1.084   .     S
O152   C780    1.398   1_554 S
O152   C706    1.412   1_554 S
C153   C161    1.448   .     S
C153   O221    1.289   .     A
C153   O219    1.291   .     A
C154   C156    1.473   .     S
C154   C171    1.404   .     A
C154   C175    1.417   .     A
C155   O220    1.386   .     S
C155   C161    1.410   .     A
C155   C385    1.394   .     S
C156   O222    1.297   .     A
C156   O223    1.294   .     A
C157   C158    1.397   .     A
C157   H190    1.084   .     S
C157   C611    1.394   1_545 S
C158   C167    1.443   .     S
C158   C159    1.396   .     A
C159   H191    1.084   .     S
C159   C616    1.383   1_545 S
C160   C161    1.401   .     A
C160   H189    1.084   .     S
C160   C387    1.383   .     S
C162   H192    1.082   .     S
C162   N218    1.367   .     A
C162   C11     1.416   1_655 S
C163   H200    1.082   .     S
C163   N217    1.367   .     A
C164   C175    1.415   .     A
C164   C857    1.417   .     S
C164   C865    1.424   .     S
C165   N217    1.367   .     A
C165   H210    1.082   .     S
C166   N218    1.367   .     A
C166   H193    1.082   .     S
C166   C13     1.416   1_655 S
C167   O224    1.289   .     A
C167   O225    1.289   .     A
C168   O227    1.293   .     A
C168   O226    1.292   .     A
C168   C170    1.459   .     S
C169   C186    1.392   .     A
C169   C866    1.404   1_554 S
C169   H896    1.084   1_554 S
C170   C186    1.398   .     A
C170   C185    1.394   .     A
C171   C172    1.410   .     A
C171   H194    1.081   .     S
C172   C857    1.394   .     S
C172   O912    1.398   .     S
C173   H214    1.076   .     S
C173   C856    1.394   1_554 S
C173   C848    1.417   1_554 S
C174   H195    1.113   .     S
C174   C860    1.529   .     S
C174   H44     1.115   1_655 S
C174   O760    1.412   1_655 S
C175   C184    1.413   .     A
C176   H197    1.109   .     S
C176   H198    1.112   .     S
C176   C858    1.529   1_554 S
C176   C861    1.526   1_554 S
C177   H202    1.111   .     S
C177   H199    1.111   .     S
C177   C860    1.526   .     S
C177   H885    1.110   .     S
C178   H204    1.115   .     S
C178   O220    1.417   .     S
C178   H203    1.111   .     S
C178   C27     1.531   1_655 S
C179   H206    1.112   .     S
C179   C180    1.527   .     S
C179   H205    1.112   .     S
C180   H208    1.110   .     S
C180   H207    1.108   .     S
C181   C185    1.401   .     A
C181   C848    1.424   1_554 S
C181   C866    1.421   1_554 S
C182   C183    1.391   .     A
C182   C853    1.404   .     S
C182   C865    1.421   .     S
C183   H211    1.084   .     S
C183   C184    1.386   .     A
C184   H215    1.080   .     S
C185   H213    1.076   .     S
C186   H216    1.083   .     S
Cu187  O226    1.939   .     S
Cu187  N217    2.011   .     S
Cu187  O222    1.952   .     S
Cu187  Cu188   2.675   .     S
Cu187  O219    1.959   .     S
Cu187  O224    1.961   .     S
Cu188  N218    2.010   .     S
Cu188  O223    1.939   .     S
Cu188  O225    1.959   .     S
Cu188  O227    1.952   .     S
Cu188  O221    1.961   .     S
H201   C861    1.110   1_554 S
H209   C28     1.111   1_655 S
H212   C853    1.084   .     S
O228   C856    1.398   1_554 S
O228   C782    1.412   1_554 S
C229   C237    1.448   .     S
C229   O297    1.289   .     A
C229   O295    1.291   .     A
C230   C232    1.473   .     S
C230   C247    1.404   .     A
C230   C251    1.417   .     A
C231   O296    1.386   .     S
C231   C237    1.410   .     A
C231   C461    1.394   .     S
C232   O298    1.297   .     A
C232   O299    1.294   .     A
C233   C234    1.397   .     A
C233   H266    1.084   .     S
C234   C243    1.443   .     S
C234   C235    1.396   .     A
C235   H267    1.084   .     S
C236   C237    1.401   .     A
C236   H265    1.084   .     S
C236   C463    1.383   .     S
C238   H268    1.082   .     S
C238   N294    1.367   .     A
C238   C315    1.416   .     S
C239   H276    1.082   .     S
C239   N293    1.367   .     A
C239   C390    1.416   1_455 S
C240   C251    1.415   .     A
C240   C933    1.417   .     S
C240   C941    1.424   .     S
C241   N293    1.367   .     A
C241   H286    1.082   .     S
C241   C394    1.416   1_455 S
C242   N294    1.367   .     A
C242   H269    1.082   .     S
C242   C317    1.416   .     S
C243   O300    1.289   .     A
C243   O301    1.289   .     A
C244   O303    1.293   .     A
C244   O302    1.292   .     A
C244   C246    1.459   .     S
C245   C262    1.392   .     A
C245   C942    1.404   1_554 S
C245   H972    1.084   1_554 S
C246   C262    1.398   .     A
C246   C261    1.394   .     A
C247   C248    1.410   .     A
C247   H270    1.081   .     S
C248   C933    1.394   .     S
C248   O988    1.398   .     S
C249   H290    1.076   .     S
C249   C932    1.394   1_554 S
C249   C924    1.417   1_554 S
C250   H271    1.113   .     S
C250   C936    1.529   .     S
C250   H348    1.115   .     S
C250   O1064   1.412   .     S
C251   C260    1.413   .     A
C252   H273    1.109   .     S
C252   H274    1.112   .     S
C252   C934    1.529   1_554 S
C252   C937    1.526   1_554 S
C253   H278    1.111   .     S
C253   H275    1.111   .     S
C253   C936    1.526   .     S
C253   H961    1.110   .     S
C254   H280    1.115   .     S
C254   O296    1.417   .     S
C254   H279    1.111   .     S
C254   C331    1.531   .     S
C255   H282    1.112   .     S
C255   C256    1.527   .     S
C255   H281    1.112   .     S
C255   C406    1.531   1_455 S
C256   H284    1.110   .     S
C256   H283    1.108   .     S
C256   H437    1.111   1_455 S
C257   C261    1.401   .     A
C257   C924    1.424   1_554 S
C257   C942    1.421   1_554 S
C258   C259    1.391   .     A
C258   C929    1.404   .     S
C258   C941    1.421   .     S
C259   H287    1.084   .     S
C259   C260    1.386   .     A
C260   H291    1.080   .     S
C261   H289    1.076   .     S
C262   H292    1.083   .     S
Cu263  O302    1.939   .     S
Cu263  N293    2.011   .     S
Cu263  O298    1.952   .     S
Cu263  Cu264   2.675   .     S
Cu263  O295    1.959   .     S
Cu263  O300    1.961   .     S
Cu264  N294    2.010   .     S
Cu264  O299    1.939   .     S
Cu264  O301    1.959   .     S
Cu264  O303    1.952   .     S
Cu264  O297    1.961   .     S
H272   C402    1.115   1_455 S
H277   C937    1.110   1_554 S
H285   C332    1.111   .     S
H288   C929    1.084   .     S
O304   C932    1.398   1_554 S
O304   C1086   1.412   1_454 S
C305   C313    1.448   .     S
C305   O373    1.289   .     A
C305   O371    1.291   .     A
C306   C308    1.473   .     S
C306   C323    1.404   .     A
C306   C327    1.417   .     A
C307   O372    1.386   .     S
C307   C313    1.410   .     A
C307   C537    1.394   .     S
C308   O374    1.297   .     A
C308   O375    1.294   .     A
C309   C310    1.397   .     A
C309   H342    1.084   .     S
C310   C319    1.443   .     S
C310   C311    1.396   .     A
C311   H343    1.084   .     S
C312   C313    1.401   .     A
C312   H341    1.084   .     S
C312   C539    1.383   .     S
C314   H344    1.082   .     S
C314   N370    1.367   .     A
C314   C391    1.416   .     S
C315   H352    1.082   .     S
C315   N369    1.367   .     A
C316   C327    1.415   .     A
C316   C1009   1.417   .     S
C316   C1017   1.424   .     S
C317   N369    1.367   .     A
C317   H362    1.082   .     S
C318   N370    1.367   .     A
C318   H345    1.082   .     S
C318   C393    1.416   .     S
C319   O376    1.289   .     A
C319   O377    1.289   .     A
C320   O379    1.293   .     A
C320   O378    1.292   .     A
C320   C322    1.459   .     S
C321   C338    1.392   .     A
C321   C1018   1.404   1_554 S
C321   H1048   1.084   1_554 S
C322   C338    1.398   .     A
C322   C337    1.394   .     A
C323   C324    1.410   .     A
C323   H346    1.081   .     S
C324   C1009   1.394   .     S
C324   O1064   1.398   .     S
C325   H366    1.076   .     S
C325   C1008   1.394   1_554 S
C325   C1000   1.417   1_554 S
C326   H347    1.113   .     S
C326   C1012   1.529   .     S
C326   H424    1.115   .     S
C326   O1140   1.412   .     S
C327   C336    1.413   .     A
C328   H349    1.109   .     S
C328   H350    1.112   .     S
C328   C1010   1.529   1_554 S
C328   C1013   1.526   1_554 S
C329   H354    1.111   .     S
C329   H351    1.111   .     S
C329   C1012   1.526   .     S
C329   H1037   1.110   .     S
C330   H356    1.115   .     S
C330   O372    1.417   .     S
C330   H355    1.111   .     S
C330   C407    1.531   .     S
C331   H358    1.112   .     S
C331   C332    1.527   .     S
C331   H357    1.112   .     S
C332   H360    1.110   .     S
C332   H359    1.108   .     S
C333   C337    1.401   .     A
C333   C1000   1.424   1_554 S
C333   C1018   1.421   1_554 S
C334   C335    1.391   .     A
C334   C1005   1.404   .     S
C334   C1017   1.421   .     S
C335   H363    1.084   .     S
C335   C336    1.386   .     A
C336   H367    1.080   .     S
C337   H365    1.076   .     S
C338   H368    1.083   .     S
Cu339  O378    1.939   .     S
Cu339  N369    2.011   .     S
Cu339  O374    1.952   .     S
Cu339  Cu340   2.675   .     S
Cu339  O371    1.959   .     S
Cu339  O376    1.961   .     S
Cu340  N370    2.010   .     S
Cu340  O375    1.939   .     S
Cu340  O377    1.959   .     S
Cu340  O379    1.952   .     S
Cu340  O373    1.961   .     S
H353   C1013   1.110   1_554 S
H361   C408    1.111   .     S
H364   C1005   1.084   .     S
O380   C1008   1.398   1_554 S
O380   C934    1.412   1_554 S
C381   C389    1.448   .     S
C381   O449    1.289   .     A
C381   O447    1.291   .     A
C382   C384    1.473   .     S
C382   C399    1.404   .     A
C382   C403    1.417   .     A
C383   O448    1.386   .     S
C383   C389    1.410   .     A
C383   C613    1.394   .     S
C384   O450    1.297   .     A
C384   O451    1.294   .     A
C385   C386    1.397   .     A
C385   H418    1.084   .     S
C386   C395    1.443   .     S
C386   C387    1.396   .     A
C387   H419    1.084   .     S
C388   C389    1.401   .     A
C388   H417    1.084   .     S
C388   C615    1.383   .     S
C390   H420    1.082   .     S
C390   N446    1.367   .     A
C390   C239    1.416   1_655 S
C391   H428    1.082   .     S
C391   N445    1.367   .     A
C392   C403    1.415   .     A
C392   C1085   1.417   .     S
C392   C1093   1.424   .     S
C393   N445    1.367   .     A
C393   H438    1.082   .     S
C394   N446    1.367   .     A
C394   H421    1.082   .     S
C394   C241    1.416   1_655 S
C395   O452    1.289   .     A
C395   O453    1.289   .     A
C396   O455    1.293   .     A
C396   O454    1.292   .     A
C396   C398    1.459   .     S
C397   C414    1.392   .     A
C397   C1094   1.404   1_554 S
C397   H1124   1.084   1_554 S
C398   C414    1.398   .     A
C398   C413    1.394   .     A
C399   C400    1.410   .     A
C399   H422    1.081   .     S
C400   C1085   1.394   .     S
C400   O1140   1.398   .     S
C401   H442    1.076   .     S
C401   C1084   1.394   1_554 S
C401   C1076   1.417   1_554 S
C402   H423    1.113   .     S
C402   C1088   1.529   .     S
C402   H272    1.115   1_655 S
C402   O988    1.412   1_655 S
C403   C412    1.413   .     A
C404   H425    1.109   .     S
C404   H426    1.112   .     S
C404   C1086   1.529   1_554 S
C404   C1089   1.526   1_554 S
C405   H430    1.111   .     S
C405   H427    1.111   .     S
C405   C1088   1.526   .     S
C405   H1113   1.110   .     S
C406   H432    1.115   .     S
C406   O448    1.417   .     S
C406   H431    1.111   .     S
C406   C255    1.531   1_655 S
C407   H434    1.112   .     S
C407   C408    1.527   .     S
C407   H433    1.112   .     S
C408   H436    1.110   .     S
C408   H435    1.108   .     S
C409   C413    1.401   .     A
C409   C1076   1.424   1_554 S
C409   C1094   1.421   1_554 S
C410   C411    1.391   .     A
C410   C1081   1.404   .     S
C410   C1093   1.421   .     S
C411   H439    1.084   .     S
C411   C412    1.386   .     A
C412   H443    1.080   .     S
C413   H441    1.076   .     S
C414   H444    1.083   .     S
Cu415  O454    1.939   .     S
Cu415  N445    2.011   .     S
Cu415  O450    1.952   .     S
Cu415  Cu416   2.675   .     S
Cu415  O447    1.959   .     S
Cu415  O452    1.961   .     S
Cu416  N446    2.010   .     S
Cu416  O451    1.939   .     S
Cu416  O453    1.959   .     S
Cu416  O455    1.952   .     S
Cu416  O449    1.961   .     S
H429   C1089   1.110   1_554 S
H437   C256    1.111   1_655 S
H440   C1081   1.084   .     S
O456   C1084   1.398   1_554 S
O456   C1010   1.412   1_554 S
C457   C465    1.448   .     S
C457   O525    1.289   .     A
C457   O523    1.291   .     A
C458   C460    1.473   .     S
C458   C475    1.404   .     A
C458   C479    1.417   .     A
C459   O524    1.386   .     S
C459   C465    1.410   .     A
C459   C5      1.394   1_565 S
C460   O526    1.297   .     A
C460   O527    1.294   .     A
C461   C462    1.397   .     A
C461   H494    1.084   .     S
C462   C471    1.443   .     S
C462   C463    1.396   .     A
C463   H495    1.084   .     S
C464   C465    1.401   .     A
C464   H493    1.084   .     S
C464   C7      1.383   1_565 S
C466   H496    1.082   .     S
C466   N522    1.367   .     A
C466   C543    1.416   .     S
C467   H504    1.082   .     S
C467   N521    1.367   .     A
C467   C618    1.416   1_455 S
C468   C479    1.415   .     A
C468   C1161   1.417   .     S
C468   C1169   1.424   .     S
C469   N521    1.367   .     A
C469   H514    1.082   .     S
C469   C622    1.416   1_455 S
C470   N522    1.367   .     A
C470   H497    1.082   .     S
C470   C545    1.416   .     S
C471   O528    1.289   .     A
C471   O529    1.289   .     A
C472   O531    1.293   .     A
C472   O530    1.292   .     A
C472   C474    1.459   .     S
C473   C490    1.392   .     A
C473   C1170   1.404   1_554 S
C473   H1200   1.084   1_554 S
C474   C490    1.398   .     A
C474   C489    1.394   .     A
C475   C476    1.410   .     A
C475   H498    1.081   .     S
C476   C1161   1.394   .     S
C476   O1216   1.398   .     S
C477   H518    1.076   .     S
C477   C1160   1.394   1_554 S
C477   C1152   1.417   1_554 S
C478   H499    1.113   .     S
C478   C1164   1.529   .     S
C478   H576    1.115   .     S
C478   O1292   1.412   .     S
C479   C488    1.413   .     A
C480   H501    1.109   .     S
C480   H502    1.112   .     S
C480   C1162   1.529   1_554 S
C480   C1165   1.526   1_554 S
C481   H506    1.111   .     S
C481   H503    1.111   .     S
C481   C1164   1.526   .     S
C481   H1189   1.110   .     S
C482   H508    1.115   .     S
C482   O524    1.417   .     S
C482   H507    1.111   .     S
C482   C559    1.531   .     S
C483   H510    1.112   .     S
C483   C484    1.527   .     S
C483   H509    1.112   .     S
C483   C634    1.531   1_455 S
C484   H512    1.110   .     S
C484   H511    1.108   .     S
C484   H665    1.111   1_455 S
C485   C489    1.401   .     A
C485   C1152   1.424   1_554 S
C485   C1170   1.421   1_554 S
C486   C487    1.391   .     A
C486   C1157   1.404   .     S
C486   C1169   1.421   .     S
C487   H515    1.084   .     S
C487   C488    1.386   .     A
C488   H519    1.080   .     S
C489   H517    1.076   .     S
C490   H520    1.083   .     S
Cu491  O530    1.939   .     S
Cu491  N521    2.011   .     S
Cu491  O526    1.952   .     S
Cu491  Cu492   2.675   .     S
Cu491  O523    1.959   .     S
Cu491  O528    1.961   .     S
Cu492  N522    2.010   .     S
Cu492  O527    1.939   .     S
Cu492  O529    1.959   .     S
Cu492  O531    1.952   .     S
Cu492  O525    1.961   .     S
H500   C630    1.115   1_455 S
H505   C1165   1.110   1_554 S
H513   C560    1.111   .     S
H516   C1157   1.084   .     S
O532   C1160   1.398   1_554 S
O532   C1314   1.412   1_454 S
C533   C541    1.448   .     S
C533   O601    1.289   .     A
C533   O599    1.291   .     A
C534   C536    1.473   .     S
C534   C551    1.404   .     A
C534   C555    1.417   .     A
C535   O600    1.386   .     S
C535   C541    1.410   .     A
C535   C81     1.394   1_565 S
C536   O602    1.297   .     A
C536   O603    1.294   .     A
C537   C538    1.397   .     A
C537   H570    1.084   .     S
C538   C547    1.443   .     S
C538   C539    1.396   .     A
C539   H571    1.084   .     S
C540   C541    1.401   .     A
C540   H569    1.084   .     S
C540   C83     1.383   1_565 S
C542   H572    1.082   .     S
C542   N598    1.367   .     A
C542   C619    1.416   .     S
C543   H580    1.082   .     S
C543   N597    1.367   .     A
C544   C555    1.415   .     A
C544   C1237   1.417   .     S
C544   C1245   1.424   .     S
C545   N597    1.367   .     A
C545   H590    1.082   .     S
C546   N598    1.367   .     A
C546   H573    1.082   .     S
C546   C621    1.416   .     S
C547   O604    1.289   .     A
C547   O605    1.289   .     A
C548   O607    1.293   .     A
C548   O606    1.292   .     A
C548   C550    1.459   .     S
C549   C566    1.392   .     A
C549   C1246   1.404   1_554 S
C549   H1276   1.084   1_554 S
C550   C566    1.398   .     A
C550   C565    1.394   .     A
C551   C552    1.410   .     A
C551   H574    1.081   .     S
C552   C1237   1.394   .     S
C552   O1292   1.398   .     S
C553   H594    1.076   .     S
C553   C1236   1.394   1_554 S
C553   C1228   1.417   1_554 S
C554   H575    1.113   .     S
C554   C1240   1.529   .     S
C554   H652    1.115   .     S
C554   O1368   1.412   .     S
C555   C564    1.413   .     A
C556   H577    1.109   .     S
C556   H578    1.112   .     S
C556   C1238   1.529   1_554 S
C556   C1241   1.526   1_554 S
C557   H582    1.111   .     S
C557   H579    1.111   .     S
C557   C1240   1.526   .     S
C557   H1265   1.110   .     S
C558   H584    1.115   .     S
C558   O600    1.417   .     S
C558   H583    1.111   .     S
C558   C635    1.531   .     S
C559   H586    1.112   .     S
C559   C560    1.527   .     S
C559   H585    1.112   .     S
C560   H588    1.110   .     S
C560   H587    1.108   .     S
C561   C565    1.401   .     A
C561   C1228   1.424   1_554 S
C561   C1246   1.421   1_554 S
C562   C563    1.391   .     A
C562   C1233   1.404   .     S
C562   C1245   1.421   .     S
C563   H591    1.084   .     S
C563   C564    1.386   .     A
C564   H595    1.080   .     S
C565   H593    1.076   .     S
C566   H596    1.083   .     S
Cu567  O606    1.939   .     S
Cu567  N597    2.011   .     S
Cu567  O602    1.952   .     S
Cu567  Cu568   2.675   .     S
Cu567  O599    1.959   .     S
Cu567  O604    1.961   .     S
Cu568  N598    2.010   .     S
Cu568  O603    1.939   .     S
Cu568  O605    1.959   .     S
Cu568  O607    1.952   .     S
Cu568  O601    1.961   .     S
H581   C1241   1.110   1_554 S
H589   C636    1.111   .     S
H592   C1233   1.084   .     S
O608   C1236   1.398   1_554 S
O608   C1162   1.412   1_554 S
C609   C617    1.448   .     S
C609   O677    1.289   .     A
C609   O675    1.291   .     A
C610   C612    1.473   .     S
C610   C627    1.404   .     A
C610   C631    1.417   .     A
C611   O676    1.386   .     S
C611   C617    1.410   .     A
C611   C157    1.394   1_565 S
C612   O678    1.297   .     A
C612   O679    1.294   .     A
C613   C614    1.397   .     A
C613   H646    1.084   .     S
C614   C623    1.443   .     S
C614   C615    1.396   .     A
C615   H647    1.084   .     S
C616   C617    1.401   .     A
C616   H645    1.084   .     S
C616   C159    1.383   1_565 S
C618   H648    1.082   .     S
C618   N674    1.367   .     A
C618   C467    1.416   1_655 S
C619   H656    1.082   .     S
C619   N673    1.367   .     A
C620   C631    1.415   .     A
C620   C1313   1.417   .     S
C620   C1321   1.424   .     S
C621   N673    1.367   .     A
C621   H666    1.082   .     S
C622   N674    1.367   .     A
C622   H649    1.082   .     S
C622   C469    1.416   1_655 S
C623   O680    1.289   .     A
C623   O681    1.289   .     A
C624   O683    1.293   .     A
C624   O682    1.292   .     A
C624   C626    1.459   .     S
C625   C642    1.392   .     A
C625   C1322   1.404   1_554 S
C625   H1352   1.084   1_554 S
C626   C642    1.398   .     A
C626   C641    1.394   .     A
C627   C628    1.410   .     A
C627   H650    1.081   .     S
C628   C1313   1.394   .     S
C628   O1368   1.398   .     S
C629   H670    1.076   .     S
C629   C1312   1.394   1_554 S
C629   C1304   1.417   1_554 S
C630   H651    1.113   .     S
C630   C1316   1.529   .     S
C630   H500    1.115   1_655 S
C630   O1216   1.412   1_655 S
C631   C640    1.413   .     A
C632   H653    1.109   .     S
C632   H654    1.112   .     S
C632   C1314   1.529   1_554 S
C632   C1317   1.526   1_554 S
C633   H658    1.111   .     S
C633   H655    1.111   .     S
C633   C1316   1.526   .     S
C633   H1341   1.110   .     S
C634   H660    1.115   .     S
C634   O676    1.417   .     S
C634   H659    1.111   .     S
C634   C483    1.531   1_655 S
C635   H662    1.112   .     S
C635   C636    1.527   .     S
C635   H661    1.112   .     S
C636   H664    1.110   .     S
C636   H663    1.108   .     S
C637   C641    1.401   .     A
C637   C1304   1.424   1_554 S
C637   C1322   1.421   1_554 S
C638   C639    1.391   .     A
C638   C1309   1.404   .     S
C638   C1321   1.421   .     S
C639   H667    1.084   .     S
C639   C640    1.386   .     A
C640   H671    1.080   .     S
C641   H669    1.076   .     S
C642   H672    1.083   .     S
Cu643  O682    1.939   .     S
Cu643  N673    2.011   .     S
Cu643  O678    1.952   .     S
Cu643  Cu644   2.675   .     S
Cu643  O675    1.959   .     S
Cu643  O680    1.961   .     S
Cu644  N674    2.010   .     S
Cu644  O679    1.939   .     S
Cu644  O681    1.959   .     S
Cu644  O683    1.952   .     S
Cu644  O677    1.961   .     S
H657   C1317   1.110   1_554 S
H665   C484    1.111   1_655 S
H668   C1309   1.084   .     S
O684   C1312   1.398   1_554 S
O684   C1238   1.412   1_554 S
C685   C693    1.448   .     S
C685   O753    1.289   .     A
C685   O751    1.291   .     A
C686   C688    1.473   .     S
C686   C703    1.404   .     A
C686   C707    1.417   .     A
C687   O752    1.386   .     S
C687   C693    1.410   .     A
C687   C917    1.394   .     S
C688   O754    1.297   .     A
C688   O755    1.294   .     A
C689   C690    1.397   .     A
C689   H722    1.084   .     S
C689   C1143   1.394   1_545 S
C690   C699    1.443   .     S
C690   C691    1.396   .     A
C691   H723    1.084   .     S
C691   C1148   1.383   1_545 S
C692   C693    1.401   .     A
C692   H721    1.084   .     S
C692   C919    1.383   .     S
C694   H724    1.082   .     S
C694   N750    1.367   .     A
C694   C771    1.416   .     S
C695   H732    1.082   .     S
C695   N749    1.367   .     A
C695   C846    1.416   1_455 S
C696   C707    1.415   .     A
C696   C21     1.417   1_556 S
C696   C29     1.424   1_556 S
C697   N749    1.367   .     A
C697   H742    1.082   .     S
C697   C850    1.416   1_455 S
C698   N750    1.367   .     A
C698   H725    1.082   .     S
C698   C773    1.416   .     S
C699   O756    1.289   .     A
C699   O757    1.289   .     A
C700   O759    1.293   .     A
C700   O758    1.292   .     A
C700   C702    1.459   .     S
C701   C718    1.392   .     A
C702   C718    1.398   .     A
C702   C717    1.394   .     A
C703   C704    1.410   .     A
C703   H726    1.081   .     S
C704   C21     1.394   1_556 S
C704   O76     1.398   1_556 S
C705   H746    1.076   .     S
C706   H727    1.113   .     S
C706   C24     1.529   1_556 S
C706   H804    1.115   .     S
C706   O152    1.412   1_556 S
C707   C716    1.413   .     A
C708   H729    1.109   .     S
C708   H730    1.112   .     S
C709   H734    1.111   .     S
C709   H731    1.111   .     S
C709   C24     1.526   1_556 S
C709   H49     1.110   1_556 S
C710   H736    1.115   .     S
C710   O752    1.417   .     S
C710   H735    1.111   .     S
C710   C787    1.531   .     S
C711   H738    1.112   .     S
C711   C712    1.527   .     S
C711   H737    1.112   .     S
C711   C862    1.531   1_455 S
C712   H740    1.110   .     S
C712   H739    1.108   .     S
C712   H893    1.111   1_455 S
C713   C717    1.401   .     A
C714   C715    1.391   .     A
C714   C17     1.404   1_556 S
C714   C29     1.421   1_556 S
C715   H743    1.084   .     S
C715   C716    1.386   .     A
C716   H747    1.080   .     S
C717   H745    1.076   .     S
C718   H748    1.083   .     S
Cu719  O758    1.939   .     S
Cu719  N749    2.011   .     S
Cu719  O754    1.952   .     S
Cu719  Cu720   2.675   .     S
Cu719  O751    1.959   .     S
Cu719  O756    1.961   .     S
Cu720  N750    2.010   .     S
Cu720  O755    1.939   .     S
Cu720  O757    1.959   .     S
Cu720  O759    1.952   .     S
Cu720  O753    1.961   .     S
H728   C858    1.115   1_455 S
H741   C788    1.111   .     S
H744   C17     1.084   1_556 S
O760   C174    1.412   1_455 S
C761   C769    1.448   .     S
C761   O829    1.289   .     A
C761   O827    1.291   .     A
C762   C764    1.473   .     S
C762   C779    1.404   .     A
C762   C783    1.417   .     A
C763   O828    1.386   .     S
C763   C769    1.410   .     A
C763   C993    1.394   .     S
C764   O830    1.297   .     A
C764   O831    1.294   .     A
C765   C766    1.397   .     A
C765   H798    1.084   .     S
C765   C1219   1.394   1_545 S
C766   C775    1.443   .     S
C766   C767    1.396   .     A
C767   H799    1.084   .     S
C767   C1224   1.383   1_545 S
C768   C769    1.401   .     A
C768   H797    1.084   .     S
C768   C995    1.383   .     S
C770   H800    1.082   .     S
C770   N826    1.367   .     A
C770   C847    1.416   .     S
C771   H808    1.082   .     S
C771   N825    1.367   .     A
C772   C783    1.415   .     A
C772   C97     1.417   1_556 S
C772   C105    1.424   1_556 S
C773   N825    1.367   .     A
C773   H818    1.082   .     S
C774   N826    1.367   .     A
C774   H801    1.082   .     S
C774   C849    1.416   .     S
C775   O832    1.289   .     A
C775   O833    1.289   .     A
C776   O835    1.293   .     A
C776   O834    1.292   .     A
C776   C778    1.459   .     S
C777   C794    1.392   .     A
C778   C794    1.398   .     A
C778   C793    1.394   .     A
C779   C780    1.410   .     A
C779   H802    1.081   .     S
C780   C97     1.394   1_556 S
C780   O152    1.398   1_556 S
C781   H822    1.076   .     S
C782   H803    1.113   .     S
C782   C100    1.529   1_556 S
C782   H880    1.115   .     S
C782   O228    1.412   1_556 S
C783   C792    1.413   .     A
C784   H805    1.109   .     S
C784   H806    1.112   .     S
C785   H810    1.111   .     S
C785   H807    1.111   .     S
C785   C100    1.526   1_556 S
C785   H125    1.110   1_556 S
C786   H812    1.115   .     S
C786   O828    1.417   .     S
C786   H811    1.111   .     S
C786   C863    1.531   .     S
C787   H814    1.112   .     S
C787   C788    1.527   .     S
C787   H813    1.112   .     S
C788   H816    1.110   .     S
C788   H815    1.108   .     S
C789   C793    1.401   .     A
C790   C791    1.391   .     A
C790   C93     1.404   1_556 S
C790   C105    1.421   1_556 S
C791   H819    1.084   .     S
C791   C792    1.386   .     A
C792   H823    1.080   .     S
C793   H821    1.076   .     S
C794   H824    1.083   .     S
Cu795  O834    1.939   .     S
Cu795  N825    2.011   .     S
Cu795  O830    1.952   .     S
Cu795  Cu796   2.675   .     S
Cu795  O827    1.959   .     S
Cu795  O832    1.961   .     S
Cu796  N826    2.010   .     S
Cu796  O831    1.939   .     S
Cu796  O833    1.959   .     S
Cu796  O835    1.952   .     S
Cu796  O829    1.961   .     S
H817   C864    1.111   .     S
H820   C93     1.084   1_556 S
C837   C845    1.448   .     S
C837   O905    1.289   .     A
C837   O903    1.291   .     A
C838   C840    1.473   .     S
C838   C855    1.404   .     A
C838   C859    1.417   .     A
C839   O904    1.386   .     S
C839   C845    1.410   .     A
C839   C1069   1.394   .     S
C840   O906    1.297   .     A
C840   O907    1.294   .     A
C841   C842    1.397   .     A
C841   H874    1.084   .     S
C841   C1295   1.394   1_545 S
C842   C851    1.443   .     S
C842   C843    1.396   .     A
C843   H875    1.084   .     S
C843   C1300   1.383   1_545 S
C844   C845    1.401   .     A
C844   H873    1.084   .     S
C844   C1071   1.383   .     S
C846   H876    1.082   .     S
C846   N902    1.367   .     A
C846   C695    1.416   1_655 S
C847   H884    1.082   .     S
C847   N901    1.367   .     A
C848   C859    1.415   .     A
C848   C173    1.417   1_556 S
C848   C181    1.424   1_556 S
C849   N901    1.367   .     A
C849   H894    1.082   .     S
C850   N902    1.367   .     A
C850   H877    1.082   .     S
C850   C697    1.416   1_655 S
C851   O908    1.289   .     A
C851   O909    1.289   .     A
C852   O911    1.293   .     A
C852   O910    1.292   .     A
C852   C854    1.459   .     S
C853   C870    1.392   .     A
C854   C870    1.398   .     A
C854   C869    1.394   .     A
C855   C856    1.410   .     A
C855   H878    1.081   .     S
C856   C173    1.394   1_556 S
C856   O228    1.398   1_556 S
C857   H898    1.076   .     S
C858   H879    1.113   .     S
C858   C176    1.529   1_556 S
C858   H728    1.115   1_655 S
C858   O76     1.412   1_656 S
C859   C868    1.413   .     A
C860   H881    1.109   .     S
C860   H882    1.112   .     S
C861   H886    1.111   .     S
C861   H883    1.111   .     S
C861   C176    1.526   1_556 S
C861   H201    1.110   1_556 S
C862   H888    1.115   .     S
C862   O904    1.417   .     S
C862   H887    1.111   .     S
C862   C711    1.531   1_655 S
C863   H890    1.112   .     S
C863   C864    1.527   .     S
C863   H889    1.112   .     S
C864   H892    1.110   .     S
C864   H891    1.108   .     S
C865   C869    1.401   .     A
C866   C867    1.391   .     A
C866   C169    1.404   1_556 S
C866   C181    1.421   1_556 S
C867   H895    1.084   .     S
C867   C868    1.386   .     A
C868   H899    1.080   .     S
C869   H897    1.076   .     S
C870   H900    1.083   .     S
Cu871  O910    1.939   .     S
Cu871  N901    2.011   .     S
Cu871  O906    1.952   .     S
Cu871  Cu872   2.675   .     S
Cu871  O903    1.959   .     S
Cu871  O908    1.961   .     S
Cu872  N902    2.010   .     S
Cu872  O907    1.939   .     S
Cu872  O909    1.959   .     S
Cu872  O911    1.952   .     S
Cu872  O905    1.961   .     S
H893   C712    1.111   1_655 S
H896   C169    1.084   1_556 S
C913   C921    1.448   .     S
C913   O981    1.289   .     A
C913   O979    1.291   .     A
C914   C916    1.473   .     S
C914   C931    1.404   .     A
C914   C935    1.417   .     A
C915   O980    1.386   .     S
C915   C921    1.410   .     A
C915   C1145   1.394   .     S
C916   O982    1.297   .     A
C916   O983    1.294   .     A
C917   C918    1.397   .     A
C917   H950    1.084   .     S
C918   C927    1.443   .     S
C918   C919    1.396   .     A
C919   H951    1.084   .     S
C920   C921    1.401   .     A
C920   H949    1.084   .     S
C920   C1147   1.383   .     S
C922   H952    1.082   .     S
C922   N978    1.367   .     A
C922   C999    1.416   .     S
C923   H960    1.082   .     S
C923   N977    1.367   .     A
C923   C1074   1.416   1_455 S
C924   C935    1.415   .     A
C924   C249    1.417   1_556 S
C924   C257    1.424   1_556 S
C925   N977    1.367   .     A
C925   H970    1.082   .     S
C925   C1078   1.416   1_455 S
C926   N978    1.367   .     A
C926   H953    1.082   .     S
C926   C1001   1.416   .     S
C927   O984    1.289   .     A
C927   O985    1.289   .     A
C928   O987    1.293   .     A
C928   O986    1.292   .     A
C928   C930    1.459   .     S
C929   C946    1.392   .     A
C930   C946    1.398   .     A
C930   C945    1.394   .     A
C931   C932    1.410   .     A
C931   H954    1.081   .     S
C932   C249    1.394   1_556 S
C932   O304    1.398   1_556 S
C933   H974    1.076   .     S
C934   H955    1.113   .     S
C934   C252    1.529   1_556 S
C934   H1032   1.115   .     S
C934   O380    1.412   1_556 S
C935   C944    1.413   .     A
C936   H957    1.109   .     S
C936   H958    1.112   .     S
C937   H962    1.111   .     S
C937   H959    1.111   .     S
C937   C252    1.526   1_556 S
C937   H277    1.110   1_556 S
C938   H964    1.115   .     S
C938   O980    1.417   .     S
C938   H963    1.111   .     S
C938   C1015   1.531   .     S
C939   H966    1.112   .     S
C939   C940    1.527   .     S
C939   H965    1.112   .     S
C939   C1090   1.531   1_455 S
C940   H968    1.110   .     S
C940   H967    1.108   .     S
C940   H1121   1.111   1_455 S
C941   C945    1.401   .     A
C942   C943    1.391   .     A
C942   C245    1.404   1_556 S
C942   C257    1.421   1_556 S
C943   H971    1.084   .     S
C943   C944    1.386   .     A
C944   H975    1.080   .     S
C945   H973    1.076   .     S
C946   H976    1.083   .     S
Cu947  O986    1.939   .     S
Cu947  N977    2.011   .     S
Cu947  O982    1.952   .     S
Cu947  Cu948   2.675   .     S
Cu947  O979    1.959   .     S
Cu947  O984    1.961   .     S
Cu948  N978    2.010   .     S
Cu948  O983    1.939   .     S
Cu948  O985    1.959   .     S
Cu948  O987    1.952   .     S
Cu948  O981    1.961   .     S
H956   C1086   1.115   1_455 S
H969   C1016   1.111   .     S
H972   C245    1.084   1_556 S
O988   C402    1.412   1_455 S
C989   C997    1.448   .     S
C989   O1057   1.289   .     A
C989   O1055   1.291   .     A
C990   C992    1.473   .     S
C990   C1007   1.404   .     A
C990   C1011   1.417   .     A
C991   O1056   1.386   .     S
C991   C997    1.410   .     A
C991   C1221   1.394   .     S
C992   O1058   1.297   .     A
C992   O1059   1.294   .     A
C993   C994    1.397   .     A
C993   H1026   1.084   .     S
C994   C1003   1.443   .     S
C994   C995    1.396   .     A
C995   H1027   1.084   .     S
C996   C997    1.401   .     A
C996   H1025   1.084   .     S
C996   C1223   1.383   .     S
C998   H1028   1.082   .     S
C998   N1054   1.367   .     A
C998   C1075   1.416   .     S
C999   H1036   1.082   .     S
C999   N1053   1.367   .     A
C1000  C1011   1.415   .     A
C1000  C325    1.417   1_556 S
C1000  C333    1.424   1_556 S
C1001  N1053   1.367   .     A
C1001  H1046   1.082   .     S
C1002  N1054   1.367   .     A
C1002  H1029   1.082   .     S
C1002  C1077   1.416   .     S
C1003  O1060   1.289   .     A
C1003  O1061   1.289   .     A
C1004  O1063   1.293   .     A
C1004  O1062   1.292   .     A
C1004  C1006   1.459   .     S
C1005  C1022   1.392   .     A
C1006  C1022   1.398   .     A
C1006  C1021   1.394   .     A
C1007  C1008   1.410   .     A
C1007  H1030   1.081   .     S
C1008  C325    1.394   1_556 S
C1008  O380    1.398   1_556 S
C1009  H1050   1.076   .     S
C1010  H1031   1.113   .     S
C1010  C328    1.529   1_556 S
C1010  H1108   1.115   .     S
C1010  O456    1.412   1_556 S
C1011  C1020   1.413   .     A
C1012  H1033   1.109   .     S
C1012  H1034   1.112   .     S
C1013  H1038   1.111   .     S
C1013  H1035   1.111   .     S
C1013  C328    1.526   1_556 S
C1013  H353    1.110   1_556 S
C1014  H1040   1.115   .     S
C1014  O1056   1.417   .     S
C1014  H1039   1.111   .     S
C1014  C1091   1.531   .     S
C1015  H1042   1.112   .     S
C1015  C1016   1.527   .     S
C1015  H1041   1.112   .     S
C1016  H1044   1.110   .     S
C1016  H1043   1.108   .     S
C1017  C1021   1.401   .     A
C1018  C1019   1.391   .     A
C1018  C321    1.404   1_556 S
C1018  C333    1.421   1_556 S
C1019  H1047   1.084   .     S
C1019  C1020   1.386   .     A
C1020  H1051   1.080   .     S
C1021  H1049   1.076   .     S
C1022  H1052   1.083   .     S
Cu1023 O1062   1.939   .     S
Cu1023 N1053   2.011   .     S
Cu1023 O1058   1.952   .     S
Cu1023 Cu1024  2.675   .     S
Cu1023 O1055   1.959   .     S
Cu1023 O1060   1.961   .     S
Cu1024 N1054   2.010   .     S
Cu1024 O1059   1.939   .     S
Cu1024 O1061   1.959   .     S
Cu1024 O1063   1.952   .     S
Cu1024 O1057   1.961   .     S
H1045  C1092   1.111   .     S
H1048  C321    1.084   1_556 S
C1065  C1073   1.448   .     S
C1065  O1133   1.289   .     A
C1065  O1131   1.291   .     A
C1066  C1068   1.473   .     S
C1066  C1083   1.404   .     A
C1066  C1087   1.417   .     A
C1067  O1132   1.386   .     S
C1067  C1073   1.410   .     A
C1067  C1297   1.394   .     S
C1068  O1134   1.297   .     A
C1068  O1135   1.294   .     A
C1069  C1070   1.397   .     A
C1069  H1102   1.084   .     S
C1070  C1079   1.443   .     S
C1070  C1071   1.396   .     A
C1071  H1103   1.084   .     S
C1072  C1073   1.401   .     A
C1072  H1101   1.084   .     S
C1072  C1299   1.383   .     S
C1074  H1104   1.082   .     S
C1074  N1130   1.367   .     A
C1074  C923    1.416   1_655 S
C1075  H1112   1.082   .     S
C1075  N1129   1.367   .     A
C1076  C1087   1.415   .     A
C1076  C401    1.417   1_556 S
C1076  C409    1.424   1_556 S
C1077  N1129   1.367   .     A
C1077  H1122   1.082   .     S
C1078  N1130   1.367   .     A
C1078  H1105   1.082   .     S
C1078  C925    1.416   1_655 S
C1079  O1136   1.289   .     A
C1079  O1137   1.289   .     A
C1080  O1139   1.293   .     A
C1080  O1138   1.292   .     A
C1080  C1082   1.459   .     S
C1081  C1098   1.392   .     A
C1082  C1098   1.398   .     A
C1082  C1097   1.394   .     A
C1083  C1084   1.410   .     A
C1083  H1106   1.081   .     S
C1084  C401    1.394   1_556 S
C1084  O456    1.398   1_556 S
C1085  H1126   1.076   .     S
C1086  H1107   1.113   .     S
C1086  C404    1.529   1_556 S
C1086  H956    1.115   1_655 S
C1086  O304    1.412   1_656 S
C1087  C1096   1.413   .     A
C1088  H1109   1.109   .     S
C1088  H1110   1.112   .     S
C1089  H1114   1.111   .     S
C1089  H1111   1.111   .     S
C1089  C404    1.526   1_556 S
C1089  H429    1.110   1_556 S
C1090  H1116   1.115   .     S
C1090  O1132   1.417   .     S
C1090  H1115   1.111   .     S
C1090  C939    1.531   1_655 S
C1091  H1118   1.112   .     S
C1091  C1092   1.527   .     S
C1091  H1117   1.112   .     S
C1092  H1120   1.110   .     S
C1092  H1119   1.108   .     S
C1093  C1097   1.401   .     A
C1094  C1095   1.391   .     A
C1094  C397    1.404   1_556 S
C1094  C409    1.421   1_556 S
C1095  H1123   1.084   .     S
C1095  C1096   1.386   .     A
C1096  H1127   1.080   .     S
C1097  H1125   1.076   .     S
C1098  H1128   1.083   .     S
Cu1099 O1138   1.939   .     S
Cu1099 N1129   2.011   .     S
Cu1099 O1134   1.952   .     S
Cu1099 Cu1100  2.675   .     S
Cu1099 O1131   1.959   .     S
Cu1099 O1136   1.961   .     S
Cu1100 N1130   2.010   .     S
Cu1100 O1135   1.939   .     S
Cu1100 O1137   1.959   .     S
Cu1100 O1139   1.952   .     S
Cu1100 O1133   1.961   .     S
H1121  C940    1.111   1_655 S
H1124  C397    1.084   1_556 S
C1141  C1149   1.448   .     S
C1141  O1209   1.289   .     A
C1141  O1207   1.291   .     A
C1142  C1144   1.473   .     S
C1142  C1159   1.404   .     A
C1142  C1163   1.417   .     A
C1143  O1208   1.386   .     S
C1143  C1149   1.410   .     A
C1143  C689    1.394   1_565 S
C1144  O1210   1.297   .     A
C1144  O1211   1.294   .     A
C1145  C1146   1.397   .     A
C1145  H1178   1.084   .     S
C1146  C1155   1.443   .     S
C1146  C1147   1.396   .     A
C1147  H1179   1.084   .     S
C1148  C1149   1.401   .     A
C1148  H1177   1.084   .     S
C1148  C691    1.383   1_565 S
C1150  H1180   1.082   .     S
C1150  N1206   1.367   .     A
C1150  C1227   1.416   .     S
C1151  H1188   1.082   .     S
C1151  N1205   1.367   .     A
C1151  C1302   1.416   1_455 S
C1152  C1163   1.415   .     A
C1152  C477    1.417   1_556 S
C1152  C485    1.424   1_556 S
C1153  N1205   1.367   .     A
C1153  H1198   1.082   .     S
C1153  C1306   1.416   1_455 S
C1154  N1206   1.367   .     A
C1154  H1181   1.082   .     S
C1154  C1229   1.416   .     S
C1155  O1212   1.289   .     A
C1155  O1213   1.289   .     A
C1156  O1215   1.293   .     A
C1156  O1214   1.292   .     A
C1156  C1158   1.459   .     S
C1157  C1174   1.392   .     A
C1158  C1174   1.398   .     A
C1158  C1173   1.394   .     A
C1159  C1160   1.410   .     A
C1159  H1182   1.081   .     S
C1160  C477    1.394   1_556 S
C1160  O532    1.398   1_556 S
C1161  H1202   1.076   .     S
C1162  H1183   1.113   .     S
C1162  C480    1.529   1_556 S
C1162  H1260   1.115   .     S
C1162  O608    1.412   1_556 S
C1163  C1172   1.413   .     A
C1164  H1185   1.109   .     S
C1164  H1186   1.112   .     S
C1165  H1190   1.111   .     S
C1165  H1187   1.111   .     S
C1165  C480    1.526   1_556 S
C1165  H505    1.110   1_556 S
C1166  H1192   1.115   .     S
C1166  O1208   1.417   .     S
C1166  H1191   1.111   .     S
C1166  C1243   1.531   .     S
C1167  H1194   1.112   .     S
C1167  C1168   1.527   .     S
C1167  H1193   1.112   .     S
C1167  C1318   1.531   1_455 S
C1168  H1196   1.110   .     S
C1168  H1195   1.108   .     S
C1168  H1349   1.111   1_455 S
C1169  C1173   1.401   .     A
C1170  C1171   1.391   .     A
C1170  C473    1.404   1_556 S
C1170  C485    1.421   1_556 S
C1171  H1199   1.084   .     S
C1171  C1172   1.386   .     A
C1172  H1203   1.080   .     S
C1173  H1201   1.076   .     S
C1174  H1204   1.083   .     S
Cu1175 O1214   1.939   .     S
Cu1175 N1205   2.011   .     S
Cu1175 O1210   1.952   .     S
Cu1175 Cu1176  2.675   .     S
Cu1175 O1207   1.959   .     S
Cu1175 O1212   1.961   .     S
Cu1176 N1206   2.010   .     S
Cu1176 O1211   1.939   .     S
Cu1176 O1213   1.959   .     S
Cu1176 O1215   1.952   .     S
Cu1176 O1209   1.961   .     S
H1184  C1314   1.115   1_455 S
H1197  C1244   1.111   .     S
H1200  C473    1.084   1_556 S
O1216  C630    1.412   1_455 S
C1217  C1225   1.448   .     S
C1217  O1285   1.289   .     A
C1217  O1283   1.291   .     A
C1218  C1220   1.473   .     S
C1218  C1235   1.404   .     A
C1218  C1239   1.417   .     A
C1219  O1284   1.386   .     S
C1219  C1225   1.410   .     A
C1219  C765    1.394   1_565 S
C1220  O1286   1.297   .     A
C1220  O1287   1.294   .     A
C1221  C1222   1.397   .     A
C1221  H1254   1.084   .     S
C1222  C1231   1.443   .     S
C1222  C1223   1.396   .     A
C1223  H1255   1.084   .     S
C1224  C1225   1.401   .     A
C1224  H1253   1.084   .     S
C1224  C767    1.383   1_565 S
C1226  H1256   1.082   .     S
C1226  N1282   1.367   .     A
C1226  C1303   1.416   .     S
C1227  H1264   1.082   .     S
C1227  N1281   1.367   .     A
C1228  C1239   1.415   .     A
C1228  C553    1.417   1_556 S
C1228  C561    1.424   1_556 S
C1229  N1281   1.367   .     A
C1229  H1274   1.082   .     S
C1230  N1282   1.367   .     A
C1230  H1257   1.082   .     S
C1230  C1305   1.416   .     S
C1231  O1288   1.289   .     A
C1231  O1289   1.289   .     A
C1232  O1291   1.293   .     A
C1232  O1290   1.292   .     A
C1232  C1234   1.459   .     S
C1233  C1250   1.392   .     A
C1234  C1250   1.398   .     A
C1234  C1249   1.394   .     A
C1235  C1236   1.410   .     A
C1235  H1258   1.081   .     S
C1236  C553    1.394   1_556 S
C1236  O608    1.398   1_556 S
C1237  H1278   1.076   .     S
C1238  H1259   1.113   .     S
C1238  C556    1.529   1_556 S
C1238  H1336   1.115   .     S
C1238  O684    1.412   1_556 S
C1239  C1248   1.413   .     A
C1240  H1261   1.109   .     S
C1240  H1262   1.112   .     S
C1241  H1266   1.111   .     S
C1241  H1263   1.111   .     S
C1241  C556    1.526   1_556 S
C1241  H581    1.110   1_556 S
C1242  H1268   1.115   .     S
C1242  O1284   1.417   .     S
C1242  H1267   1.111   .     S
C1242  C1319   1.531   .     S
C1243  H1270   1.112   .     S
C1243  C1244   1.527   .     S
C1243  H1269   1.112   .     S
C1244  H1272   1.110   .     S
C1244  H1271   1.108   .     S
C1245  C1249   1.401   .     A
C1246  C1247   1.391   .     A
C1246  C549    1.404   1_556 S
C1246  C561    1.421   1_556 S
C1247  H1275   1.084   .     S
C1247  C1248   1.386   .     A
C1248  H1279   1.080   .     S
C1249  H1277   1.076   .     S
C1250  H1280   1.083   .     S
Cu1251 O1290   1.939   .     S
Cu1251 N1281   2.011   .     S
Cu1251 O1286   1.952   .     S
Cu1251 Cu1252  2.675   .     S
Cu1251 O1283   1.959   .     S
Cu1251 O1288   1.961   .     S
Cu1252 N1282   2.010   .     S
Cu1252 O1287   1.939   .     S
Cu1252 O1289   1.959   .     S
Cu1252 O1291   1.952   .     S
Cu1252 O1285   1.961   .     S
H1273  C1320   1.111   .     S
H1276  C549    1.084   1_556 S
C1293  C1301   1.448   .     S
C1293  O1361   1.289   .     A
C1293  O1359   1.291   .     A
C1294  C1296   1.473   .     S
C1294  C1311   1.404   .     A
C1294  C1315   1.417   .     A
C1295  O1360   1.386   .     S
C1295  C1301   1.410   .     A
C1295  C841    1.394   1_565 S
C1296  O1362   1.297   .     A
C1296  O1363   1.294   .     A
C1297  C1298   1.397   .     A
C1297  H1330   1.084   .     S
C1298  C1307   1.443   .     S
C1298  C1299   1.396   .     A
C1299  H1331   1.084   .     S
C1300  C1301   1.401   .     A
C1300  H1329   1.084   .     S
C1300  C843    1.383   1_565 S
C1302  H1332   1.082   .     S
C1302  N1358   1.367   .     A
C1302  C1151   1.416   1_655 S
C1303  H1340   1.082   .     S
C1303  N1357   1.367   .     A
C1304  C1315   1.415   .     A
C1304  C629    1.417   1_556 S
C1304  C637    1.424   1_556 S
C1305  N1357   1.367   .     A
C1305  H1350   1.082   .     S
C1306  N1358   1.367   .     A
C1306  H1333   1.082   .     S
C1306  C1153   1.416   1_655 S
C1307  O1364   1.289   .     A
C1307  O1365   1.289   .     A
C1308  O1367   1.293   .     A
C1308  O1366   1.292   .     A
C1308  C1310   1.459   .     S
C1309  C1326   1.392   .     A
C1310  C1326   1.398   .     A
C1310  C1325   1.394   .     A
C1311  C1312   1.410   .     A
C1311  H1334   1.081   .     S
C1312  C629    1.394   1_556 S
C1312  O684    1.398   1_556 S
C1313  H1354   1.076   .     S
C1314  H1335   1.113   .     S
C1314  C632    1.529   1_556 S
C1314  H1184   1.115   1_655 S
C1314  O532    1.412   1_656 S
C1315  C1324   1.413   .     A
C1316  H1337   1.109   .     S
C1316  H1338   1.112   .     S
C1317  H1342   1.111   .     S
C1317  H1339   1.111   .     S
C1317  C632    1.526   1_556 S
C1317  H657    1.110   1_556 S
C1318  H1344   1.115   .     S
C1318  O1360   1.417   .     S
C1318  H1343   1.111   .     S
C1318  C1167   1.531   1_655 S
C1319  H1346   1.112   .     S
C1319  C1320   1.527   .     S
C1319  H1345   1.112   .     S
C1320  H1348   1.110   .     S
C1320  H1347   1.108   .     S
C1321  C1325   1.401   .     A
C1322  C1323   1.391   .     A
C1322  C625    1.404   1_556 S
C1322  C637    1.421   1_556 S
C1323  H1351   1.084   .     S
C1323  C1324   1.386   .     A
C1324  H1355   1.080   .     S
C1325  H1353   1.076   .     S
C1326  H1356   1.083   .     S
Cu1327 O1366   1.939   .     S
Cu1327 N1357   2.011   .     S
Cu1327 O1362   1.952   .     S
Cu1327 Cu1328  2.675   .     S
Cu1327 O1359   1.959   .     S
Cu1327 O1364   1.961   .     S
Cu1328 N1358   2.010   .     S
Cu1328 O1363   1.939   .     S
Cu1328 O1365   1.959   .     S
Cu1328 O1367   1.952   .     S
Cu1328 O1361   1.961   .     S
H1349  C1168   1.111   1_655 S
H1352  C625    1.084   1_556 S
