data_str_m2_o1_o18_pcu_sym.58
_audit_creation_date              2020-01-03
_audit_creation_method            'Materials Studio'
_symmetry_space_group_name_H-M    'P1'
_symmetry_Int_Tables_number       1
_symmetry_cell_setting            triclinic
loop_
_symmetry_equiv_pos_as_xyz
  x,y,z
_cell_length_a                    28.5529
_cell_length_b                    32.5397
_cell_length_c                    31.0233
_cell_angle_alpha                 89.7966
_cell_angle_beta                  74.6107
_cell_angle_gamma                 89.7318
loop_
_atom_site_label
_atom_site_type_symbol
_atom_site_fract_x
_atom_site_fract_y
_atom_site_fract_z
_atom_site_U_iso_or_equiv
_atom_site_adp_type
_atom_site_occupancy
C1     C     0.00019   0.08736   0.24982   0.00000  Uiso   1.00
C2     C     0.04443   0.02073   0.24141   0.00000  Uiso   1.00
C3     C     0.33285   0.29058   0.25023   0.00000  Uiso   1.00
C4     C     0.00049   0.04275   0.24977   0.00000  Uiso   1.00
C5     C     0.18310   0.14261   0.27935   0.00000  Uiso   1.00
C6     C     0.15023   0.19072   0.22065   0.00000  Uiso   1.00
C7     C     0.13349   0.14265   0.27936   0.00000  Uiso   1.00
C8     C     0.19985   0.19069   0.22064   0.00000  Uiso   1.00
C9     C     0.30614   0.16636   0.33603   0.00000  Uiso   1.00
C10    C     0.02720   0.16697   0.16397   0.00000  Uiso   1.00
C11    C     0.29114   0.16390   0.38498   0.00000  Uiso   1.00
C12    C     0.33314   0.24597   0.25018   0.00000  Uiso   1.00
C13    C     0.04219   0.16937   0.11502   0.00000  Uiso   1.00
C14    C     0.30732   0.14624   0.45528   0.00000  Uiso   1.00
C15    C     0.02597   0.18680   0.04467   0.00000  Uiso   1.00
C16    C     0.32379   0.15206   0.40930   0.00000  Uiso   1.00
C17    C     0.00952   0.18108   0.09067   0.00000  Uiso   1.00
C18    C     0.24237   0.17100   0.40714   0.00000  Uiso   1.00
C19    C     0.09098   0.16231   0.09286   0.00000  Uiso   1.00
C20    C     0.22452   0.16486   0.45349   0.00000  Uiso   1.00
C21    C     0.10879   0.16828   0.04648   0.00000  Uiso   1.00
C22    C     0.25813   0.15233   0.47745   0.00000  Uiso   1.00
C23    C     0.19400   0.15079   0.04592   0.00000  Uiso   1.00
C24    C     0.07516   0.18072   0.02250   0.00000  Uiso   1.00
C25    C     0.17442   0.17015   0.47647   0.00000  Uiso   1.00
C26    C     0.15888   0.16293   0.02349   0.00000  Uiso   1.00
C27    C     0.13928   0.18217   0.45402   0.00000  Uiso   1.00
C28    C     0.24244   0.14558   0.02325   0.00000  Uiso   1.00
C29    C     0.09084   0.18736   0.47669   0.00000  Uiso   1.00
C30    C     0.28958   0.02177   0.25829   0.00000  Uiso   1.00
C31    C     0.04376   0.31157   0.24171   0.00000  Uiso   1.00
C32    C     0.28890   0.31260   0.25859   0.00000  Uiso   1.00
Cu33   Cu    0.04689   0.16667   0.25000   0.00000  Uiso   1.00
Cu34   Cu    0.28645   0.16666   0.25000   0.00000  Uiso   1.00
F35    F     0.24526   0.29335   0.26765   0.00000  Uiso   1.00
F36    F     0.08807   0.03999   0.23235   0.00000  Uiso   1.00
H37    H     0.26786   0.13598   0.04184   0.00000  Uiso   1.00
H38    H     0.14756   0.18804   0.41869   0.00000  Uiso   1.00
H39    H     0.25531   0.03820   0.26511   0.00000  Uiso   1.00
H40    H     0.07803   0.29514   0.23489   0.00000  Uiso   1.00
H41    H     0.19509   0.12327   0.30281   0.00000  Uiso   1.00
H42    H     0.13824   0.21007   0.19719   0.00000  Uiso   1.00
H43    H     0.10808   0.12338   0.30284   0.00000  Uiso   1.00
H44    H     0.22525   0.20995   0.19716   0.00000  Uiso   1.00
H45    H     0.06540   0.19687   0.45807   0.00000  Uiso   1.00
H46    H     0.11429   0.15263   0.11304   0.00000  Uiso   1.00
H47    H     0.21911   0.18088   0.38699   0.00000  Uiso   1.00
H48    H     0.30498   0.18686   0.10727   0.00000  Uiso   1.00
H49    H     0.02832   0.14626   0.39268   0.00000  Uiso   1.00
H50    H     0.33294   0.13622   0.47344   0.00000  Uiso   1.00
H51    H     0.00033   0.19674   0.02649   0.00000  Uiso   1.00
H52    H     0.18569   0.14479   0.08122   0.00000  Uiso   1.00
N53    N     0.11736   0.16668   0.24999   0.00000  Uiso   1.00
N54    N     0.21597   0.16666   0.25001   0.00000  Uiso   1.00
O55    O     0.03958   0.10655   0.25000   0.00000  Uiso   1.00
O56    O     0.29375   0.22678   0.25000   0.00000  Uiso   1.00
O57    O     0.29372   0.10654   0.25000   0.00000  Uiso   1.00
O58    O     0.03961   0.22679   0.24999   0.00000  Uiso   1.00
O59    O     0.01852   0.16668   0.31491   0.00000  Uiso   1.00
O60    O     0.31481   0.16666   0.18508   0.00000  Uiso   1.00
O61    O     0.27267   0.16667   0.31492   0.00000  Uiso   1.00
O62    O     0.06067   0.16667   0.18508   0.00000  Uiso   1.00
C63    C     0.33353   0.08736   0.24982   0.00000  Uiso   1.00
C64    C     0.37776   0.02073   0.24141   0.00000  Uiso   1.00
C65    C     0.66618   0.29058   0.25023   0.00000  Uiso   1.00
C66    C     0.33382   0.04275   0.24977   0.00000  Uiso   1.00
C67    C     0.51643   0.14261   0.27935   0.00000  Uiso   1.00
C68    C     0.48357   0.19072   0.22065   0.00000  Uiso   1.00
C69    C     0.46682   0.14265   0.27936   0.00000  Uiso   1.00
C70    C     0.53318   0.19069   0.22064   0.00000  Uiso   1.00
C71    C     0.63947   0.16636   0.33603   0.00000  Uiso   1.00
C72    C     0.36053   0.16697   0.16397   0.00000  Uiso   1.00
C73    C     0.62447   0.16390   0.38498   0.00000  Uiso   1.00
C74    C     0.66647   0.24597   0.25018   0.00000  Uiso   1.00
C75    C     0.37553   0.16937   0.11502   0.00000  Uiso   1.00
C76    C     0.64066   0.14624   0.45528   0.00000  Uiso   1.00
C77    C     0.35930   0.18680   0.04467   0.00000  Uiso   1.00
C78    C     0.65712   0.15206   0.40930   0.00000  Uiso   1.00
C79    C     0.34285   0.18108   0.09067   0.00000  Uiso   1.00
C80    C     0.57570   0.17100   0.40714   0.00000  Uiso   1.00
C81    C     0.42431   0.16231   0.09286   0.00000  Uiso   1.00
C82    C     0.55786   0.16486   0.45349   0.00000  Uiso   1.00
C83    C     0.44212   0.16828   0.04648   0.00000  Uiso   1.00
C84    C     0.59147   0.15233   0.47745   0.00000  Uiso   1.00
C85    C     0.52733   0.15079   0.04592   0.00000  Uiso   1.00
C86    C     0.40849   0.18072   0.02250   0.00000  Uiso   1.00
C87    C     0.50775   0.17015   0.47647   0.00000  Uiso   1.00
C88    C     0.49222   0.16293   0.02349   0.00000  Uiso   1.00
C89    C     0.47261   0.18217   0.45402   0.00000  Uiso   1.00
C90    C     0.57577   0.14558   0.02325   0.00000  Uiso   1.00
C91    C     0.42417   0.18736   0.47669   0.00000  Uiso   1.00
C92    C     0.62291   0.02177   0.25829   0.00000  Uiso   1.00
C93    C     0.37709   0.31157   0.24171   0.00000  Uiso   1.00
C94    C     0.62224   0.31260   0.25859   0.00000  Uiso   1.00
Cu95   Cu    0.38022   0.16667   0.25000   0.00000  Uiso   1.00
Cu96   Cu    0.61978   0.16666   0.25000   0.00000  Uiso   1.00
F97    F     0.57859   0.29335   0.26765   0.00000  Uiso   1.00
F98    F     0.42141   0.03999   0.23235   0.00000  Uiso   1.00
H99    H     0.60119   0.13598   0.04184   0.00000  Uiso   1.00
H100   H     0.48089   0.18804   0.41869   0.00000  Uiso   1.00
H101   H     0.58864   0.03820   0.26511   0.00000  Uiso   1.00
H102   H     0.41136   0.29514   0.23489   0.00000  Uiso   1.00
H103   H     0.52842   0.12327   0.30281   0.00000  Uiso   1.00
H104   H     0.47158   0.21007   0.19719   0.00000  Uiso   1.00
H105   H     0.44142   0.12338   0.30284   0.00000  Uiso   1.00
H106   H     0.55859   0.20995   0.19716   0.00000  Uiso   1.00
H107   H     0.39873   0.19687   0.45807   0.00000  Uiso   1.00
H108   H     0.44762   0.15263   0.11304   0.00000  Uiso   1.00
H109   H     0.55244   0.18088   0.38699   0.00000  Uiso   1.00
H110   H     0.63831   0.18686   0.10727   0.00000  Uiso   1.00
H111   H     0.36166   0.14626   0.39268   0.00000  Uiso   1.00
H112   H     0.66627   0.13622   0.47344   0.00000  Uiso   1.00
H113   H     0.33367   0.19674   0.02649   0.00000  Uiso   1.00
H114   H     0.51902   0.14479   0.08122   0.00000  Uiso   1.00
N115   N     0.45069   0.16668   0.24999   0.00000  Uiso   1.00
N116   N     0.54931   0.16666   0.25001   0.00000  Uiso   1.00
O117   O     0.37291   0.10655   0.25000   0.00000  Uiso   1.00
O118   O     0.62709   0.22678   0.25000   0.00000  Uiso   1.00
O119   O     0.62706   0.10654   0.25000   0.00000  Uiso   1.00
O120   O     0.37294   0.22679   0.24999   0.00000  Uiso   1.00
O121   O     0.35186   0.16668   0.31491   0.00000  Uiso   1.00
O122   O     0.64814   0.16666   0.18508   0.00000  Uiso   1.00
O123   O     0.60600   0.16667   0.31492   0.00000  Uiso   1.00
O124   O     0.39400   0.16667   0.18508   0.00000  Uiso   1.00
C125   C     0.66686   0.08736   0.24982   0.00000  Uiso   1.00
C126   C     0.71110   0.02073   0.24141   0.00000  Uiso   1.00
C127   C     0.99951   0.29058   0.25023   0.00000  Uiso   1.00
C128   C     0.66715   0.04275   0.24977   0.00000  Uiso   1.00
C129   C     0.84977   0.14261   0.27935   0.00000  Uiso   1.00
C130   C     0.81690   0.19072   0.22065   0.00000  Uiso   1.00
C131   C     0.80015   0.14265   0.27936   0.00000  Uiso   1.00
C132   C     0.86651   0.19069   0.22064   0.00000  Uiso   1.00
C133   C     0.97280   0.16636   0.33603   0.00000  Uiso   1.00
C134   C     0.69387   0.16697   0.16397   0.00000  Uiso   1.00
C135   C     0.95781   0.16390   0.38498   0.00000  Uiso   1.00
C136   C     0.99981   0.24597   0.25018   0.00000  Uiso   1.00
C137   C     0.70886   0.16937   0.11502   0.00000  Uiso   1.00
C138   C     0.97399   0.14624   0.45528   0.00000  Uiso   1.00
C139   C     0.69263   0.18680   0.04467   0.00000  Uiso   1.00
C140   C     0.99046   0.15206   0.40930   0.00000  Uiso   1.00
C141   C     0.67619   0.18108   0.09067   0.00000  Uiso   1.00
C142   C     0.90904   0.17100   0.40714   0.00000  Uiso   1.00
C143   C     0.75765   0.16231   0.09286   0.00000  Uiso   1.00
C144   C     0.89119   0.16486   0.45349   0.00000  Uiso   1.00
C145   C     0.77545   0.16828   0.04648   0.00000  Uiso   1.00
C146   C     0.92480   0.15233   0.47745   0.00000  Uiso   1.00
C147   C     0.86066   0.15079   0.04592   0.00000  Uiso   1.00
C148   C     0.74183   0.18072   0.02250   0.00000  Uiso   1.00
C149   C     0.84108   0.17015   0.47647   0.00000  Uiso   1.00
C150   C     0.82555   0.16293   0.02349   0.00000  Uiso   1.00
C151   C     0.80595   0.18217   0.45402   0.00000  Uiso   1.00
C152   C     0.90910   0.14558   0.02325   0.00000  Uiso   1.00
C153   C     0.75750   0.18736   0.47669   0.00000  Uiso   1.00
C154   C     0.95624   0.02177   0.25829   0.00000  Uiso   1.00
C155   C     0.71042   0.31157   0.24171   0.00000  Uiso   1.00
C156   C     0.95557   0.31260   0.25859   0.00000  Uiso   1.00
Cu157  Cu    0.71355   0.16667   0.25000   0.00000  Uiso   1.00
Cu158  Cu    0.95311   0.16666   0.25000   0.00000  Uiso   1.00
F159   F     0.91193   0.29335   0.26765   0.00000  Uiso   1.00
F160   F     0.75474   0.03999   0.23235   0.00000  Uiso   1.00
H161   H     0.93452   0.13598   0.04184   0.00000  Uiso   1.00
H162   H     0.81423   0.18804   0.41869   0.00000  Uiso   1.00
H163   H     0.92197   0.03820   0.26511   0.00000  Uiso   1.00
H164   H     0.74469   0.29514   0.23489   0.00000  Uiso   1.00
H165   H     0.86176   0.12327   0.30281   0.00000  Uiso   1.00
H166   H     0.80491   0.21007   0.19719   0.00000  Uiso   1.00
H167   H     0.77475   0.12338   0.30284   0.00000  Uiso   1.00
H168   H     0.89192   0.20995   0.19716   0.00000  Uiso   1.00
H169   H     0.73207   0.19687   0.45807   0.00000  Uiso   1.00
H170   H     0.78096   0.15263   0.11304   0.00000  Uiso   1.00
H171   H     0.88578   0.18088   0.38699   0.00000  Uiso   1.00
H172   H     0.97164   0.18686   0.10727   0.00000  Uiso   1.00
H173   H     0.69499   0.14626   0.39268   0.00000  Uiso   1.00
H174   H     0.99960   0.13622   0.47344   0.00000  Uiso   1.00
H175   H     0.66700   0.19674   0.02649   0.00000  Uiso   1.00
H176   H     0.85236   0.14479   0.08122   0.00000  Uiso   1.00
N177   N     0.78403   0.16668   0.24999   0.00000  Uiso   1.00
N178   N     0.88264   0.16666   0.25001   0.00000  Uiso   1.00
O179   O     0.70625   0.10655   0.25000   0.00000  Uiso   1.00
O180   O     0.96042   0.22678   0.25000   0.00000  Uiso   1.00
O181   O     0.96039   0.10654   0.25000   0.00000  Uiso   1.00
O182   O     0.70628   0.22679   0.24999   0.00000  Uiso   1.00
O183   O     0.68519   0.16668   0.31491   0.00000  Uiso   1.00
O184   O     0.98148   0.16666   0.18508   0.00000  Uiso   1.00
O185   O     0.93933   0.16667   0.31492   0.00000  Uiso   1.00
O186   O     0.72733   0.16667   0.18508   0.00000  Uiso   1.00
C187   C     0.00019   0.42070   0.24982   0.00000  Uiso   1.00
C188   C     0.04443   0.35407   0.24141   0.00000  Uiso   1.00
C189   C     0.33285   0.62392   0.25023   0.00000  Uiso   1.00
C190   C     0.00049   0.37608   0.24977   0.00000  Uiso   1.00
C191   C     0.18310   0.47594   0.27935   0.00000  Uiso   1.00
C192   C     0.15023   0.52406   0.22065   0.00000  Uiso   1.00
C193   C     0.13349   0.47598   0.27936   0.00000  Uiso   1.00
C194   C     0.19985   0.52402   0.22064   0.00000  Uiso   1.00
C195   C     0.30614   0.49969   0.33603   0.00000  Uiso   1.00
C196   C     0.02720   0.50031   0.16397   0.00000  Uiso   1.00
C197   C     0.29114   0.49723   0.38498   0.00000  Uiso   1.00
C198   C     0.33314   0.57930   0.25018   0.00000  Uiso   1.00
C199   C     0.04219   0.50271   0.11502   0.00000  Uiso   1.00
C200   C     0.30732   0.47958   0.45528   0.00000  Uiso   1.00
C201   C     0.02597   0.52013   0.04467   0.00000  Uiso   1.00
C202   C     0.32379   0.48539   0.40930   0.00000  Uiso   1.00
C203   C     0.00952   0.51442   0.09067   0.00000  Uiso   1.00
C204   C     0.24237   0.50434   0.40714   0.00000  Uiso   1.00
C205   C     0.09098   0.49564   0.09286   0.00000  Uiso   1.00
C206   C     0.22452   0.49819   0.45349   0.00000  Uiso   1.00
C207   C     0.10879   0.50161   0.04648   0.00000  Uiso   1.00
C208   C     0.25813   0.48566   0.47745   0.00000  Uiso   1.00
C209   C     0.19400   0.48412   0.04592   0.00000  Uiso   1.00
C210   C     0.07516   0.51405   0.02250   0.00000  Uiso   1.00
C211   C     0.17442   0.50348   0.47647   0.00000  Uiso   1.00
C212   C     0.15888   0.49626   0.02349   0.00000  Uiso   1.00
C213   C     0.13928   0.51551   0.45402   0.00000  Uiso   1.00
C214   C     0.24244   0.47892   0.02325   0.00000  Uiso   1.00
C215   C     0.09084   0.52069   0.47669   0.00000  Uiso   1.00
C216   C     0.28958   0.35510   0.25829   0.00000  Uiso   1.00
C217   C     0.04376   0.64490   0.24171   0.00000  Uiso   1.00
C218   C     0.28890   0.64593   0.25859   0.00000  Uiso   1.00
Cu219  Cu    0.04689   0.50001   0.25000   0.00000  Uiso   1.00
Cu220  Cu    0.28645   0.49999   0.25000   0.00000  Uiso   1.00
F221   F     0.24526   0.62668   0.26765   0.00000  Uiso   1.00
F222   F     0.08807   0.37332   0.23235   0.00000  Uiso   1.00
H223   H     0.26786   0.46931   0.04184   0.00000  Uiso   1.00
H224   H     0.14756   0.52137   0.41869   0.00000  Uiso   1.00
H225   H     0.25531   0.37153   0.26511   0.00000  Uiso   1.00
H226   H     0.07803   0.62847   0.23489   0.00000  Uiso   1.00
H227   H     0.19509   0.45660   0.30281   0.00000  Uiso   1.00
H228   H     0.13824   0.54340   0.19719   0.00000  Uiso   1.00
H229   H     0.10808   0.45671   0.30284   0.00000  Uiso   1.00
H230   H     0.22525   0.54329   0.19716   0.00000  Uiso   1.00
H231   H     0.06540   0.53021   0.45807   0.00000  Uiso   1.00
H232   H     0.11429   0.48596   0.11304   0.00000  Uiso   1.00
H233   H     0.21911   0.51422   0.38699   0.00000  Uiso   1.00
H234   H     0.30498   0.52019   0.10727   0.00000  Uiso   1.00
H235   H     0.02832   0.47959   0.39268   0.00000  Uiso   1.00
H236   H     0.33294   0.46955   0.47344   0.00000  Uiso   1.00
H237   H     0.00033   0.53007   0.02649   0.00000  Uiso   1.00
H238   H     0.18569   0.47812   0.08122   0.00000  Uiso   1.00
N239   N     0.11736   0.50001   0.24999   0.00000  Uiso   1.00
N240   N     0.21597   0.49999   0.25001   0.00000  Uiso   1.00
O241   O     0.03958   0.43989   0.25000   0.00000  Uiso   1.00
O242   O     0.29375   0.56011   0.25000   0.00000  Uiso   1.00
O243   O     0.29372   0.43988   0.25000   0.00000  Uiso   1.00
O244   O     0.03961   0.56012   0.24999   0.00000  Uiso   1.00
O245   O     0.01852   0.50001   0.31491   0.00000  Uiso   1.00
O246   O     0.31481   0.49999   0.18508   0.00000  Uiso   1.00
O247   O     0.27267   0.50000   0.31492   0.00000  Uiso   1.00
O248   O     0.06067   0.50000   0.18508   0.00000  Uiso   1.00
C249   C     0.33353   0.42070   0.24982   0.00000  Uiso   1.00
C250   C     0.37776   0.35407   0.24141   0.00000  Uiso   1.00
C251   C     0.66618   0.62392   0.25023   0.00000  Uiso   1.00
C252   C     0.33382   0.37608   0.24977   0.00000  Uiso   1.00
C253   C     0.51643   0.47594   0.27935   0.00000  Uiso   1.00
C254   C     0.48357   0.52406   0.22065   0.00000  Uiso   1.00
C255   C     0.46682   0.47598   0.27936   0.00000  Uiso   1.00
C256   C     0.53318   0.52402   0.22064   0.00000  Uiso   1.00
C257   C     0.63947   0.49969   0.33603   0.00000  Uiso   1.00
C258   C     0.36053   0.50031   0.16397   0.00000  Uiso   1.00
C259   C     0.62447   0.49723   0.38498   0.00000  Uiso   1.00
C260   C     0.66647   0.57930   0.25018   0.00000  Uiso   1.00
C261   C     0.37553   0.50271   0.11502   0.00000  Uiso   1.00
C262   C     0.64066   0.47958   0.45528   0.00000  Uiso   1.00
C263   C     0.35930   0.52013   0.04467   0.00000  Uiso   1.00
C264   C     0.65712   0.48539   0.40930   0.00000  Uiso   1.00
C265   C     0.34285   0.51442   0.09067   0.00000  Uiso   1.00
C266   C     0.57570   0.50434   0.40714   0.00000  Uiso   1.00
C267   C     0.42431   0.49564   0.09286   0.00000  Uiso   1.00
C268   C     0.55786   0.49819   0.45349   0.00000  Uiso   1.00
C269   C     0.44212   0.50161   0.04648   0.00000  Uiso   1.00
C270   C     0.59147   0.48566   0.47745   0.00000  Uiso   1.00
C271   C     0.52733   0.48412   0.04592   0.00000  Uiso   1.00
C272   C     0.40849   0.51405   0.02250   0.00000  Uiso   1.00
C273   C     0.50775   0.50348   0.47647   0.00000  Uiso   1.00
C274   C     0.49222   0.49626   0.02349   0.00000  Uiso   1.00
C275   C     0.47261   0.51551   0.45402   0.00000  Uiso   1.00
C276   C     0.57577   0.47892   0.02325   0.00000  Uiso   1.00
C277   C     0.42417   0.52069   0.47669   0.00000  Uiso   1.00
C278   C     0.62291   0.35510   0.25829   0.00000  Uiso   1.00
C279   C     0.37709   0.64490   0.24171   0.00000  Uiso   1.00
C280   C     0.62224   0.64593   0.25859   0.00000  Uiso   1.00
Cu281  Cu    0.38022   0.50001   0.25000   0.00000  Uiso   1.00
Cu282  Cu    0.61978   0.49999   0.25000   0.00000  Uiso   1.00
F283   F     0.57859   0.62668   0.26765   0.00000  Uiso   1.00
F284   F     0.42141   0.37332   0.23235   0.00000  Uiso   1.00
H285   H     0.60119   0.46931   0.04184   0.00000  Uiso   1.00
H286   H     0.48089   0.52137   0.41869   0.00000  Uiso   1.00
H287   H     0.58864   0.37153   0.26511   0.00000  Uiso   1.00
H288   H     0.41136   0.62847   0.23489   0.00000  Uiso   1.00
H289   H     0.52842   0.45660   0.30281   0.00000  Uiso   1.00
H290   H     0.47158   0.54340   0.19719   0.00000  Uiso   1.00
H291   H     0.44142   0.45671   0.30284   0.00000  Uiso   1.00
H292   H     0.55859   0.54329   0.19716   0.00000  Uiso   1.00
H293   H     0.39873   0.53021   0.45807   0.00000  Uiso   1.00
H294   H     0.44762   0.48596   0.11304   0.00000  Uiso   1.00
H295   H     0.55244   0.51422   0.38699   0.00000  Uiso   1.00
H296   H     0.63831   0.52019   0.10727   0.00000  Uiso   1.00
H297   H     0.36166   0.47959   0.39268   0.00000  Uiso   1.00
H298   H     0.66627   0.46955   0.47344   0.00000  Uiso   1.00
H299   H     0.33367   0.53007   0.02649   0.00000  Uiso   1.00
H300   H     0.51902   0.47812   0.08122   0.00000  Uiso   1.00
N301   N     0.45069   0.50001   0.24999   0.00000  Uiso   1.00
N302   N     0.54931   0.49999   0.25001   0.00000  Uiso   1.00
O303   O     0.37291   0.43989   0.25000   0.00000  Uiso   1.00
O304   O     0.62709   0.56011   0.25000   0.00000  Uiso   1.00
O305   O     0.62706   0.43988   0.25000   0.00000  Uiso   1.00
O306   O     0.37294   0.56012   0.24999   0.00000  Uiso   1.00
O307   O     0.35186   0.50001   0.31491   0.00000  Uiso   1.00
O308   O     0.64814   0.49999   0.18508   0.00000  Uiso   1.00
O309   O     0.60600   0.50000   0.31492   0.00000  Uiso   1.00
O310   O     0.39400   0.50000   0.18508   0.00000  Uiso   1.00
C311   C     0.66686   0.42070   0.24982   0.00000  Uiso   1.00
C312   C     0.71110   0.35407   0.24141   0.00000  Uiso   1.00
C313   C     0.99951   0.62392   0.25023   0.00000  Uiso   1.00
C314   C     0.66715   0.37608   0.24977   0.00000  Uiso   1.00
C315   C     0.84977   0.47594   0.27935   0.00000  Uiso   1.00
C316   C     0.81690   0.52406   0.22065   0.00000  Uiso   1.00
C317   C     0.80015   0.47598   0.27936   0.00000  Uiso   1.00
C318   C     0.86651   0.52402   0.22064   0.00000  Uiso   1.00
C319   C     0.97280   0.49969   0.33603   0.00000  Uiso   1.00
C320   C     0.69387   0.50031   0.16397   0.00000  Uiso   1.00
C321   C     0.95781   0.49723   0.38498   0.00000  Uiso   1.00
C322   C     0.99981   0.57930   0.25018   0.00000  Uiso   1.00
C323   C     0.70886   0.50271   0.11502   0.00000  Uiso   1.00
C324   C     0.97399   0.47958   0.45528   0.00000  Uiso   1.00
C325   C     0.69263   0.52013   0.04467   0.00000  Uiso   1.00
C326   C     0.99046   0.48539   0.40930   0.00000  Uiso   1.00
C327   C     0.67619   0.51442   0.09067   0.00000  Uiso   1.00
C328   C     0.90904   0.50434   0.40714   0.00000  Uiso   1.00
C329   C     0.75765   0.49564   0.09286   0.00000  Uiso   1.00
C330   C     0.89119   0.49819   0.45349   0.00000  Uiso   1.00
C331   C     0.77545   0.50161   0.04648   0.00000  Uiso   1.00
C332   C     0.92480   0.48566   0.47745   0.00000  Uiso   1.00
C333   C     0.86066   0.48412   0.04592   0.00000  Uiso   1.00
C334   C     0.74183   0.51405   0.02250   0.00000  Uiso   1.00
C335   C     0.84108   0.50348   0.47647   0.00000  Uiso   1.00
C336   C     0.82555   0.49626   0.02349   0.00000  Uiso   1.00
C337   C     0.80595   0.51551   0.45402   0.00000  Uiso   1.00
C338   C     0.90910   0.47892   0.02325   0.00000  Uiso   1.00
C339   C     0.75750   0.52069   0.47669   0.00000  Uiso   1.00
C340   C     0.95624   0.35510   0.25829   0.00000  Uiso   1.00
C341   C     0.71042   0.64490   0.24171   0.00000  Uiso   1.00
C342   C     0.95557   0.64593   0.25859   0.00000  Uiso   1.00
Cu343  Cu    0.71355   0.50001   0.25000   0.00000  Uiso   1.00
Cu344  Cu    0.95311   0.49999   0.25000   0.00000  Uiso   1.00
F345   F     0.91193   0.62668   0.26765   0.00000  Uiso   1.00
F346   F     0.75474   0.37332   0.23235   0.00000  Uiso   1.00
H347   H     0.93452   0.46931   0.04184   0.00000  Uiso   1.00
H348   H     0.81423   0.52137   0.41869   0.00000  Uiso   1.00
H349   H     0.92197   0.37153   0.26511   0.00000  Uiso   1.00
H350   H     0.74469   0.62847   0.23489   0.00000  Uiso   1.00
H351   H     0.86176   0.45660   0.30281   0.00000  Uiso   1.00
H352   H     0.80491   0.54340   0.19719   0.00000  Uiso   1.00
H353   H     0.77475   0.45671   0.30284   0.00000  Uiso   1.00
H354   H     0.89192   0.54329   0.19716   0.00000  Uiso   1.00
H355   H     0.73207   0.53021   0.45807   0.00000  Uiso   1.00
H356   H     0.78096   0.48596   0.11304   0.00000  Uiso   1.00
H357   H     0.88578   0.51422   0.38699   0.00000  Uiso   1.00
H358   H     0.97164   0.52019   0.10727   0.00000  Uiso   1.00
H359   H     0.69499   0.47959   0.39268   0.00000  Uiso   1.00
H360   H     0.99960   0.46955   0.47344   0.00000  Uiso   1.00
H361   H     0.66700   0.53007   0.02649   0.00000  Uiso   1.00
H362   H     0.85236   0.47812   0.08122   0.00000  Uiso   1.00
N363   N     0.78403   0.50001   0.24999   0.00000  Uiso   1.00
N364   N     0.88264   0.49999   0.25001   0.00000  Uiso   1.00
O365   O     0.70625   0.43989   0.25000   0.00000  Uiso   1.00
O366   O     0.96042   0.56011   0.25000   0.00000  Uiso   1.00
O367   O     0.96039   0.43988   0.25000   0.00000  Uiso   1.00
O368   O     0.70628   0.56012   0.24999   0.00000  Uiso   1.00
O369   O     0.68519   0.50001   0.31491   0.00000  Uiso   1.00
O370   O     0.98148   0.49999   0.18508   0.00000  Uiso   1.00
O371   O     0.93933   0.50000   0.31492   0.00000  Uiso   1.00
O372   O     0.72733   0.50000   0.18508   0.00000  Uiso   1.00
C373   C     0.00019   0.75403   0.24982   0.00000  Uiso   1.00
C374   C     0.04443   0.68740   0.24141   0.00000  Uiso   1.00
C375   C     0.33285   0.95725   0.25023   0.00000  Uiso   1.00
C376   C     0.00049   0.70942   0.24977   0.00000  Uiso   1.00
C377   C     0.18310   0.80928   0.27935   0.00000  Uiso   1.00
C378   C     0.15023   0.85739   0.22065   0.00000  Uiso   1.00
C379   C     0.13349   0.80931   0.27936   0.00000  Uiso   1.00
C380   C     0.19985   0.85735   0.22064   0.00000  Uiso   1.00
C381   C     0.30614   0.83303   0.33603   0.00000  Uiso   1.00
C382   C     0.02720   0.83364   0.16397   0.00000  Uiso   1.00
C383   C     0.29114   0.83057   0.38498   0.00000  Uiso   1.00
C384   C     0.33314   0.91264   0.25018   0.00000  Uiso   1.00
C385   C     0.04219   0.83604   0.11502   0.00000  Uiso   1.00
C386   C     0.30732   0.81291   0.45528   0.00000  Uiso   1.00
C387   C     0.02597   0.85347   0.04467   0.00000  Uiso   1.00
C388   C     0.32379   0.81873   0.40930   0.00000  Uiso   1.00
C389   C     0.00952   0.84775   0.09067   0.00000  Uiso   1.00
C390   C     0.24237   0.83767   0.40714   0.00000  Uiso   1.00
C391   C     0.09098   0.82898   0.09286   0.00000  Uiso   1.00
C392   C     0.22452   0.83152   0.45349   0.00000  Uiso   1.00
C393   C     0.10879   0.83495   0.04648   0.00000  Uiso   1.00
C394   C     0.25813   0.81899   0.47745   0.00000  Uiso   1.00
C395   C     0.19400   0.81745   0.04592   0.00000  Uiso   1.00
C396   C     0.07516   0.84738   0.02250   0.00000  Uiso   1.00
C397   C     0.17442   0.83681   0.47647   0.00000  Uiso   1.00
C398   C     0.15888   0.82959   0.02349   0.00000  Uiso   1.00
C399   C     0.13928   0.84884   0.45402   0.00000  Uiso   1.00
C400   C     0.24244   0.81225   0.02325   0.00000  Uiso   1.00
C401   C     0.09084   0.85403   0.47669   0.00000  Uiso   1.00
C402   C     0.28958   0.68843   0.25829   0.00000  Uiso   1.00
C403   C     0.04376   0.97823   0.24171   0.00000  Uiso   1.00
C404   C     0.28890   0.97927   0.25859   0.00000  Uiso   1.00
Cu405  Cu    0.04689   0.83334   0.25000   0.00000  Uiso   1.00
Cu406  Cu    0.28645   0.83333   0.25000   0.00000  Uiso   1.00
F407   F     0.24526   0.96001   0.26765   0.00000  Uiso   1.00
F408   F     0.08807   0.70665   0.23235   0.00000  Uiso   1.00
H409   H     0.26786   0.80265   0.04184   0.00000  Uiso   1.00
H410   H     0.14756   0.85470   0.41869   0.00000  Uiso   1.00
H411   H     0.25531   0.70486   0.26511   0.00000  Uiso   1.00
H412   H     0.07803   0.96180   0.23489   0.00000  Uiso   1.00
H413   H     0.19509   0.78993   0.30281   0.00000  Uiso   1.00
H414   H     0.13824   0.87673   0.19719   0.00000  Uiso   1.00
H415   H     0.10808   0.79005   0.30284   0.00000  Uiso   1.00
H416   H     0.22525   0.87662   0.19716   0.00000  Uiso   1.00
H417   H     0.06540   0.86354   0.45807   0.00000  Uiso   1.00
H418   H     0.11429   0.81930   0.11304   0.00000  Uiso   1.00
H419   H     0.21911   0.84755   0.38699   0.00000  Uiso   1.00
H420   H     0.30498   0.85352   0.10727   0.00000  Uiso   1.00
H421   H     0.02832   0.81292   0.39268   0.00000  Uiso   1.00
H422   H     0.33294   0.80289   0.47344   0.00000  Uiso   1.00
H423   H     0.00033   0.86341   0.02649   0.00000  Uiso   1.00
H424   H     0.18569   0.81145   0.08122   0.00000  Uiso   1.00
N425   N     0.11736   0.83334   0.24999   0.00000  Uiso   1.00
N426   N     0.21597   0.83332   0.25001   0.00000  Uiso   1.00
O427   O     0.03958   0.77322   0.25000   0.00000  Uiso   1.00
O428   O     0.29375   0.89345   0.25000   0.00000  Uiso   1.00
O429   O     0.29372   0.77321   0.25000   0.00000  Uiso   1.00
O430   O     0.03961   0.89346   0.24999   0.00000  Uiso   1.00
O431   O     0.01852   0.83334   0.31491   0.00000  Uiso   1.00
O432   O     0.31481   0.83332   0.18508   0.00000  Uiso   1.00
O433   O     0.27267   0.83333   0.31492   0.00000  Uiso   1.00
O434   O     0.06067   0.83333   0.18508   0.00000  Uiso   1.00
C435   C     0.33353   0.75403   0.24982   0.00000  Uiso   1.00
C436   C     0.37776   0.68740   0.24141   0.00000  Uiso   1.00
C437   C     0.66618   0.95725   0.25023   0.00000  Uiso   1.00
C438   C     0.33382   0.70942   0.24977   0.00000  Uiso   1.00
C439   C     0.51643   0.80928   0.27935   0.00000  Uiso   1.00
C440   C     0.48357   0.85739   0.22065   0.00000  Uiso   1.00
C441   C     0.46682   0.80931   0.27936   0.00000  Uiso   1.00
C442   C     0.53318   0.85735   0.22064   0.00000  Uiso   1.00
C443   C     0.63947   0.83303   0.33603   0.00000  Uiso   1.00
C444   C     0.36053   0.83364   0.16397   0.00000  Uiso   1.00
C445   C     0.62447   0.83057   0.38498   0.00000  Uiso   1.00
C446   C     0.66647   0.91264   0.25018   0.00000  Uiso   1.00
C447   C     0.37553   0.83604   0.11502   0.00000  Uiso   1.00
C448   C     0.64066   0.81291   0.45528   0.00000  Uiso   1.00
C449   C     0.35930   0.85347   0.04467   0.00000  Uiso   1.00
C450   C     0.65712   0.81873   0.40930   0.00000  Uiso   1.00
C451   C     0.34285   0.84775   0.09067   0.00000  Uiso   1.00
C452   C     0.57570   0.83767   0.40714   0.00000  Uiso   1.00
C453   C     0.42431   0.82898   0.09286   0.00000  Uiso   1.00
C454   C     0.55786   0.83152   0.45349   0.00000  Uiso   1.00
C455   C     0.44212   0.83495   0.04648   0.00000  Uiso   1.00
C456   C     0.59147   0.81899   0.47745   0.00000  Uiso   1.00
C457   C     0.52733   0.81745   0.04592   0.00000  Uiso   1.00
C458   C     0.40849   0.84738   0.02250   0.00000  Uiso   1.00
C459   C     0.50775   0.83681   0.47647   0.00000  Uiso   1.00
C460   C     0.49222   0.82959   0.02349   0.00000  Uiso   1.00
C461   C     0.47261   0.84884   0.45402   0.00000  Uiso   1.00
C462   C     0.57577   0.81225   0.02325   0.00000  Uiso   1.00
C463   C     0.42417   0.85403   0.47669   0.00000  Uiso   1.00
C464   C     0.62291   0.68843   0.25829   0.00000  Uiso   1.00
C465   C     0.37709   0.97823   0.24171   0.00000  Uiso   1.00
C466   C     0.62224   0.97927   0.25859   0.00000  Uiso   1.00
Cu467  Cu    0.38022   0.83334   0.25000   0.00000  Uiso   1.00
Cu468  Cu    0.61978   0.83333   0.25000   0.00000  Uiso   1.00
F469   F     0.57859   0.96001   0.26765   0.00000  Uiso   1.00
F470   F     0.42141   0.70665   0.23235   0.00000  Uiso   1.00
H471   H     0.60119   0.80265   0.04184   0.00000  Uiso   1.00
H472   H     0.48089   0.85470   0.41869   0.00000  Uiso   1.00
H473   H     0.58864   0.70486   0.26511   0.00000  Uiso   1.00
H474   H     0.41136   0.96180   0.23489   0.00000  Uiso   1.00
H475   H     0.52842   0.78993   0.30281   0.00000  Uiso   1.00
H476   H     0.47158   0.87673   0.19719   0.00000  Uiso   1.00
H477   H     0.44142   0.79005   0.30284   0.00000  Uiso   1.00
H478   H     0.55859   0.87662   0.19716   0.00000  Uiso   1.00
H479   H     0.39873   0.86354   0.45807   0.00000  Uiso   1.00
H480   H     0.44762   0.81930   0.11304   0.00000  Uiso   1.00
H481   H     0.55244   0.84755   0.38699   0.00000  Uiso   1.00
H482   H     0.63831   0.85352   0.10727   0.00000  Uiso   1.00
H483   H     0.36166   0.81292   0.39268   0.00000  Uiso   1.00
H484   H     0.66627   0.80289   0.47344   0.00000  Uiso   1.00
H485   H     0.33367   0.86341   0.02649   0.00000  Uiso   1.00
H486   H     0.51902   0.81145   0.08122   0.00000  Uiso   1.00
N487   N     0.45069   0.83334   0.24999   0.00000  Uiso   1.00
N488   N     0.54931   0.83332   0.25001   0.00000  Uiso   1.00
O489   O     0.37291   0.77322   0.25000   0.00000  Uiso   1.00
O490   O     0.62709   0.89345   0.25000   0.00000  Uiso   1.00
O491   O     0.62706   0.77321   0.25000   0.00000  Uiso   1.00
O492   O     0.37294   0.89346   0.24999   0.00000  Uiso   1.00
O493   O     0.35186   0.83334   0.31491   0.00000  Uiso   1.00
O494   O     0.64814   0.83332   0.18508   0.00000  Uiso   1.00
O495   O     0.60600   0.83333   0.31492   0.00000  Uiso   1.00
O496   O     0.39400   0.83333   0.18508   0.00000  Uiso   1.00
C497   C     0.66686   0.75403   0.24982   0.00000  Uiso   1.00
C498   C     0.71110   0.68740   0.24141   0.00000  Uiso   1.00
C499   C     0.99951   0.95725   0.25023   0.00000  Uiso   1.00
C500   C     0.66715   0.70942   0.24977   0.00000  Uiso   1.00
C501   C     0.84977   0.80928   0.27935   0.00000  Uiso   1.00
C502   C     0.81690   0.85739   0.22065   0.00000  Uiso   1.00
C503   C     0.80015   0.80931   0.27936   0.00000  Uiso   1.00
C504   C     0.86651   0.85735   0.22064   0.00000  Uiso   1.00
C505   C     0.97280   0.83303   0.33603   0.00000  Uiso   1.00
C506   C     0.69387   0.83364   0.16397   0.00000  Uiso   1.00
C507   C     0.95781   0.83057   0.38498   0.00000  Uiso   1.00
C508   C     0.99981   0.91264   0.25018   0.00000  Uiso   1.00
C509   C     0.70886   0.83604   0.11502   0.00000  Uiso   1.00
C510   C     0.97399   0.81291   0.45528   0.00000  Uiso   1.00
C511   C     0.69263   0.85347   0.04467   0.00000  Uiso   1.00
C512   C     0.99046   0.81873   0.40930   0.00000  Uiso   1.00
C513   C     0.67619   0.84775   0.09067   0.00000  Uiso   1.00
C514   C     0.90904   0.83767   0.40714   0.00000  Uiso   1.00
C515   C     0.75765   0.82898   0.09286   0.00000  Uiso   1.00
C516   C     0.89119   0.83152   0.45349   0.00000  Uiso   1.00
C517   C     0.77545   0.83495   0.04648   0.00000  Uiso   1.00
C518   C     0.92480   0.81899   0.47745   0.00000  Uiso   1.00
C519   C     0.86066   0.81745   0.04592   0.00000  Uiso   1.00
C520   C     0.74183   0.84738   0.02250   0.00000  Uiso   1.00
C521   C     0.84108   0.83681   0.47647   0.00000  Uiso   1.00
C522   C     0.82555   0.82959   0.02349   0.00000  Uiso   1.00
C523   C     0.80595   0.84884   0.45402   0.00000  Uiso   1.00
C524   C     0.90910   0.81225   0.02325   0.00000  Uiso   1.00
C525   C     0.75750   0.85403   0.47669   0.00000  Uiso   1.00
C526   C     0.95624   0.68843   0.25829   0.00000  Uiso   1.00
C527   C     0.71042   0.97823   0.24171   0.00000  Uiso   1.00
C528   C     0.95557   0.97927   0.25859   0.00000  Uiso   1.00
Cu529  Cu    0.71355   0.83334   0.25000   0.00000  Uiso   1.00
Cu530  Cu    0.95311   0.83333   0.25000   0.00000  Uiso   1.00
F531   F     0.91193   0.96001   0.26765   0.00000  Uiso   1.00
F532   F     0.75474   0.70665   0.23235   0.00000  Uiso   1.00
H533   H     0.93452   0.80265   0.04184   0.00000  Uiso   1.00
H534   H     0.81423   0.85470   0.41869   0.00000  Uiso   1.00
H535   H     0.92197   0.70486   0.26511   0.00000  Uiso   1.00
H536   H     0.74469   0.96180   0.23489   0.00000  Uiso   1.00
H537   H     0.86176   0.78993   0.30281   0.00000  Uiso   1.00
H538   H     0.80491   0.87673   0.19719   0.00000  Uiso   1.00
H539   H     0.77475   0.79005   0.30284   0.00000  Uiso   1.00
H540   H     0.89192   0.87662   0.19716   0.00000  Uiso   1.00
H541   H     0.73207   0.86354   0.45807   0.00000  Uiso   1.00
H542   H     0.78096   0.81930   0.11304   0.00000  Uiso   1.00
H543   H     0.88578   0.84755   0.38699   0.00000  Uiso   1.00
H544   H     0.97164   0.85352   0.10727   0.00000  Uiso   1.00
H545   H     0.69499   0.81292   0.39268   0.00000  Uiso   1.00
H546   H     0.99960   0.80289   0.47344   0.00000  Uiso   1.00
H547   H     0.66700   0.86341   0.02649   0.00000  Uiso   1.00
H548   H     0.85236   0.81145   0.08122   0.00000  Uiso   1.00
N549   N     0.78403   0.83334   0.24999   0.00000  Uiso   1.00
N550   N     0.88264   0.83332   0.25001   0.00000  Uiso   1.00
O551   O     0.70625   0.77322   0.25000   0.00000  Uiso   1.00
O552   O     0.96042   0.89345   0.25000   0.00000  Uiso   1.00
O553   O     0.96039   0.77321   0.25000   0.00000  Uiso   1.00
O554   O     0.70628   0.89346   0.24999   0.00000  Uiso   1.00
O555   O     0.68519   0.83334   0.31491   0.00000  Uiso   1.00
O556   O     0.98148   0.83332   0.18508   0.00000  Uiso   1.00
O557   O     0.93933   0.83333   0.31492   0.00000  Uiso   1.00
O558   O     0.72733   0.83333   0.18508   0.00000  Uiso   1.00
C559   C     0.00019   0.08736   0.74982   0.00000  Uiso   1.00
C560   C     0.04443   0.02073   0.74141   0.00000  Uiso   1.00
C561   C     0.33285   0.29058   0.75023   0.00000  Uiso   1.00
C562   C     0.00049   0.04275   0.74977   0.00000  Uiso   1.00
C563   C     0.18310   0.14261   0.77935   0.00000  Uiso   1.00
C564   C     0.15023   0.19072   0.72065   0.00000  Uiso   1.00
C565   C     0.13349   0.14265   0.77936   0.00000  Uiso   1.00
C566   C     0.19985   0.19069   0.72064   0.00000  Uiso   1.00
C567   C     0.30614   0.16636   0.83603   0.00000  Uiso   1.00
C568   C     0.02720   0.16697   0.66397   0.00000  Uiso   1.00
C569   C     0.29114   0.16390   0.88498   0.00000  Uiso   1.00
C570   C     0.33314   0.24597   0.75018   0.00000  Uiso   1.00
C571   C     0.04219   0.16937   0.61502   0.00000  Uiso   1.00
C572   C     0.30732   0.14624   0.95528   0.00000  Uiso   1.00
C573   C     0.02597   0.18680   0.54467   0.00000  Uiso   1.00
C574   C     0.32379   0.15206   0.90930   0.00000  Uiso   1.00
C575   C     0.00952   0.18108   0.59067   0.00000  Uiso   1.00
C576   C     0.24237   0.17100   0.90714   0.00000  Uiso   1.00
C577   C     0.09098   0.16231   0.59286   0.00000  Uiso   1.00
C578   C     0.22452   0.16486   0.95349   0.00000  Uiso   1.00
C579   C     0.10879   0.16828   0.54648   0.00000  Uiso   1.00
C580   C     0.25813   0.15233   0.97745   0.00000  Uiso   1.00
C581   C     0.19400   0.15079   0.54592   0.00000  Uiso   1.00
C582   C     0.07516   0.18072   0.52250   0.00000  Uiso   1.00
C583   C     0.17442   0.17015   0.97647   0.00000  Uiso   1.00
C584   C     0.15888   0.16293   0.52349   0.00000  Uiso   1.00
C585   C     0.13928   0.18217   0.95402   0.00000  Uiso   1.00
C586   C     0.24244   0.14558   0.52325   0.00000  Uiso   1.00
C587   C     0.09084   0.18736   0.97669   0.00000  Uiso   1.00
C588   C     0.28958   0.02177   0.75829   0.00000  Uiso   1.00
C589   C     0.04376   0.31157   0.74171   0.00000  Uiso   1.00
C590   C     0.28890   0.31260   0.75859   0.00000  Uiso   1.00
Cu591  Cu    0.04689   0.16667   0.75000   0.00000  Uiso   1.00
Cu592  Cu    0.28645   0.16666   0.75000   0.00000  Uiso   1.00
F593   F     0.24526   0.29335   0.76765   0.00000  Uiso   1.00
F594   F     0.08807   0.03999   0.73235   0.00000  Uiso   1.00
H595   H     0.26786   0.13598   0.54184   0.00000  Uiso   1.00
H596   H     0.14756   0.18804   0.91869   0.00000  Uiso   1.00
H597   H     0.25531   0.03820   0.76511   0.00000  Uiso   1.00
H598   H     0.07803   0.29514   0.73489   0.00000  Uiso   1.00
H599   H     0.19509   0.12327   0.80281   0.00000  Uiso   1.00
H600   H     0.13824   0.21007   0.69719   0.00000  Uiso   1.00
H601   H     0.10808   0.12338   0.80284   0.00000  Uiso   1.00
H602   H     0.22525   0.20995   0.69716   0.00000  Uiso   1.00
H603   H     0.06540   0.19687   0.95807   0.00000  Uiso   1.00
H604   H     0.11429   0.15263   0.61304   0.00000  Uiso   1.00
H605   H     0.21911   0.18088   0.88699   0.00000  Uiso   1.00
H606   H     0.30498   0.18686   0.60727   0.00000  Uiso   1.00
H607   H     0.02832   0.14626   0.89268   0.00000  Uiso   1.00
H608   H     0.33294   0.13622   0.97344   0.00000  Uiso   1.00
H609   H     0.00033   0.19674   0.52649   0.00000  Uiso   1.00
H610   H     0.18569   0.14479   0.58122   0.00000  Uiso   1.00
N611   N     0.11736   0.16668   0.74999   0.00000  Uiso   1.00
N612   N     0.21597   0.16666   0.75001   0.00000  Uiso   1.00
O613   O     0.03958   0.10655   0.75000   0.00000  Uiso   1.00
O614   O     0.29375   0.22678   0.75000   0.00000  Uiso   1.00
O615   O     0.29372   0.10654   0.75000   0.00000  Uiso   1.00
O616   O     0.03961   0.22679   0.74999   0.00000  Uiso   1.00
O617   O     0.01852   0.16668   0.81491   0.00000  Uiso   1.00
O618   O     0.31481   0.16666   0.68508   0.00000  Uiso   1.00
O619   O     0.27267   0.16667   0.81492   0.00000  Uiso   1.00
O620   O     0.06067   0.16667   0.68508   0.00000  Uiso   1.00
C621   C     0.33353   0.08736   0.74982   0.00000  Uiso   1.00
C622   C     0.37776   0.02073   0.74141   0.00000  Uiso   1.00
C623   C     0.66618   0.29058   0.75023   0.00000  Uiso   1.00
C624   C     0.33382   0.04275   0.74977   0.00000  Uiso   1.00
C625   C     0.51643   0.14261   0.77935   0.00000  Uiso   1.00
C626   C     0.48357   0.19072   0.72065   0.00000  Uiso   1.00
C627   C     0.46682   0.14265   0.77936   0.00000  Uiso   1.00
C628   C     0.53318   0.19069   0.72064   0.00000  Uiso   1.00
C629   C     0.63947   0.16636   0.83603   0.00000  Uiso   1.00
C630   C     0.36053   0.16697   0.66397   0.00000  Uiso   1.00
C631   C     0.62447   0.16390   0.88498   0.00000  Uiso   1.00
C632   C     0.66647   0.24597   0.75018   0.00000  Uiso   1.00
C633   C     0.37553   0.16937   0.61502   0.00000  Uiso   1.00
C634   C     0.64066   0.14624   0.95528   0.00000  Uiso   1.00
C635   C     0.35930   0.18680   0.54467   0.00000  Uiso   1.00
C636   C     0.65712   0.15206   0.90930   0.00000  Uiso   1.00
C637   C     0.34285   0.18108   0.59067   0.00000  Uiso   1.00
C638   C     0.57570   0.17100   0.90714   0.00000  Uiso   1.00
C639   C     0.42431   0.16231   0.59286   0.00000  Uiso   1.00
C640   C     0.55786   0.16486   0.95349   0.00000  Uiso   1.00
C641   C     0.44212   0.16828   0.54648   0.00000  Uiso   1.00
C642   C     0.59147   0.15233   0.97745   0.00000  Uiso   1.00
C643   C     0.52733   0.15079   0.54592   0.00000  Uiso   1.00
C644   C     0.40849   0.18072   0.52250   0.00000  Uiso   1.00
C645   C     0.50775   0.17015   0.97647   0.00000  Uiso   1.00
C646   C     0.49222   0.16293   0.52349   0.00000  Uiso   1.00
C647   C     0.47261   0.18217   0.95402   0.00000  Uiso   1.00
C648   C     0.57577   0.14558   0.52325   0.00000  Uiso   1.00
C649   C     0.42417   0.18736   0.97669   0.00000  Uiso   1.00
C650   C     0.62291   0.02177   0.75829   0.00000  Uiso   1.00
C651   C     0.37709   0.31157   0.74171   0.00000  Uiso   1.00
C652   C     0.62224   0.31260   0.75859   0.00000  Uiso   1.00
Cu653  Cu    0.38022   0.16667   0.75000   0.00000  Uiso   1.00
Cu654  Cu    0.61978   0.16666   0.75000   0.00000  Uiso   1.00
F655   F     0.57859   0.29335   0.76765   0.00000  Uiso   1.00
F656   F     0.42141   0.03999   0.73235   0.00000  Uiso   1.00
H657   H     0.60119   0.13598   0.54184   0.00000  Uiso   1.00
H658   H     0.48089   0.18804   0.91869   0.00000  Uiso   1.00
H659   H     0.58864   0.03820   0.76511   0.00000  Uiso   1.00
H660   H     0.41136   0.29514   0.73489   0.00000  Uiso   1.00
H661   H     0.52842   0.12327   0.80281   0.00000  Uiso   1.00
H662   H     0.47158   0.21007   0.69719   0.00000  Uiso   1.00
H663   H     0.44142   0.12338   0.80284   0.00000  Uiso   1.00
H664   H     0.55859   0.20995   0.69716   0.00000  Uiso   1.00
H665   H     0.39873   0.19687   0.95807   0.00000  Uiso   1.00
H666   H     0.44762   0.15263   0.61304   0.00000  Uiso   1.00
H667   H     0.55244   0.18088   0.88699   0.00000  Uiso   1.00
H668   H     0.63831   0.18686   0.60727   0.00000  Uiso   1.00
H669   H     0.36166   0.14626   0.89268   0.00000  Uiso   1.00
H670   H     0.66627   0.13622   0.97344   0.00000  Uiso   1.00
H671   H     0.33367   0.19674   0.52649   0.00000  Uiso   1.00
H672   H     0.51902   0.14479   0.58122   0.00000  Uiso   1.00
N673   N     0.45069   0.16668   0.74999   0.00000  Uiso   1.00
N674   N     0.54931   0.16666   0.75001   0.00000  Uiso   1.00
O675   O     0.37291   0.10655   0.75000   0.00000  Uiso   1.00
O676   O     0.62709   0.22678   0.75000   0.00000  Uiso   1.00
O677   O     0.62706   0.10654   0.75000   0.00000  Uiso   1.00
O678   O     0.37294   0.22679   0.74999   0.00000  Uiso   1.00
O679   O     0.35186   0.16668   0.81491   0.00000  Uiso   1.00
O680   O     0.64814   0.16666   0.68508   0.00000  Uiso   1.00
O681   O     0.60600   0.16667   0.81492   0.00000  Uiso   1.00
O682   O     0.39400   0.16667   0.68508   0.00000  Uiso   1.00
C683   C     0.66686   0.08736   0.74982   0.00000  Uiso   1.00
C684   C     0.71110   0.02073   0.74141   0.00000  Uiso   1.00
C685   C     0.99951   0.29058   0.75023   0.00000  Uiso   1.00
C686   C     0.66715   0.04275   0.74977   0.00000  Uiso   1.00
C687   C     0.84977   0.14261   0.77935   0.00000  Uiso   1.00
C688   C     0.81690   0.19072   0.72065   0.00000  Uiso   1.00
C689   C     0.80015   0.14265   0.77936   0.00000  Uiso   1.00
C690   C     0.86651   0.19069   0.72064   0.00000  Uiso   1.00
C691   C     0.97280   0.16636   0.83603   0.00000  Uiso   1.00
C692   C     0.69387   0.16697   0.66397   0.00000  Uiso   1.00
C693   C     0.95781   0.16390   0.88498   0.00000  Uiso   1.00
C694   C     0.99981   0.24597   0.75018   0.00000  Uiso   1.00
C695   C     0.70886   0.16937   0.61502   0.00000  Uiso   1.00
C696   C     0.97399   0.14624   0.95528   0.00000  Uiso   1.00
C697   C     0.69263   0.18680   0.54467   0.00000  Uiso   1.00
C698   C     0.99046   0.15206   0.90930   0.00000  Uiso   1.00
C699   C     0.67619   0.18108   0.59067   0.00000  Uiso   1.00
C700   C     0.90904   0.17100   0.90714   0.00000  Uiso   1.00
C701   C     0.75765   0.16231   0.59286   0.00000  Uiso   1.00
C702   C     0.89119   0.16486   0.95349   0.00000  Uiso   1.00
C703   C     0.77545   0.16828   0.54648   0.00000  Uiso   1.00
C704   C     0.92480   0.15233   0.97745   0.00000  Uiso   1.00
C705   C     0.86066   0.15079   0.54592   0.00000  Uiso   1.00
C706   C     0.74183   0.18072   0.52250   0.00000  Uiso   1.00
C707   C     0.84108   0.17015   0.97647   0.00000  Uiso   1.00
C708   C     0.82555   0.16293   0.52349   0.00000  Uiso   1.00
C709   C     0.80595   0.18217   0.95402   0.00000  Uiso   1.00
C710   C     0.90910   0.14558   0.52325   0.00000  Uiso   1.00
C711   C     0.75750   0.18736   0.97669   0.00000  Uiso   1.00
C712   C     0.95624   0.02177   0.75829   0.00000  Uiso   1.00
C713   C     0.71042   0.31157   0.74171   0.00000  Uiso   1.00
C714   C     0.95557   0.31260   0.75859   0.00000  Uiso   1.00
Cu715  Cu    0.71355   0.16667   0.75000   0.00000  Uiso   1.00
Cu716  Cu    0.95311   0.16666   0.75000   0.00000  Uiso   1.00
F717   F     0.91193   0.29335   0.76765   0.00000  Uiso   1.00
F718   F     0.75474   0.03999   0.73235   0.00000  Uiso   1.00
H719   H     0.93452   0.13598   0.54184   0.00000  Uiso   1.00
H720   H     0.81423   0.18804   0.91869   0.00000  Uiso   1.00
H721   H     0.92197   0.03820   0.76511   0.00000  Uiso   1.00
H722   H     0.74469   0.29514   0.73489   0.00000  Uiso   1.00
H723   H     0.86176   0.12327   0.80281   0.00000  Uiso   1.00
H724   H     0.80491   0.21007   0.69719   0.00000  Uiso   1.00
H725   H     0.77475   0.12338   0.80284   0.00000  Uiso   1.00
H726   H     0.89192   0.20995   0.69716   0.00000  Uiso   1.00
H727   H     0.73207   0.19687   0.95807   0.00000  Uiso   1.00
H728   H     0.78096   0.15263   0.61304   0.00000  Uiso   1.00
H729   H     0.88578   0.18088   0.88699   0.00000  Uiso   1.00
H730   H     0.97164   0.18686   0.60727   0.00000  Uiso   1.00
H731   H     0.69499   0.14626   0.89268   0.00000  Uiso   1.00
H732   H     0.99960   0.13622   0.97344   0.00000  Uiso   1.00
H733   H     0.66700   0.19674   0.52649   0.00000  Uiso   1.00
H734   H     0.85236   0.14479   0.58122   0.00000  Uiso   1.00
N735   N     0.78403   0.16668   0.74999   0.00000  Uiso   1.00
N736   N     0.88264   0.16666   0.75001   0.00000  Uiso   1.00
O737   O     0.70625   0.10655   0.75000   0.00000  Uiso   1.00
O738   O     0.96042   0.22678   0.75000   0.00000  Uiso   1.00
O739   O     0.96039   0.10654   0.75000   0.00000  Uiso   1.00
O740   O     0.70628   0.22679   0.74999   0.00000  Uiso   1.00
O741   O     0.68519   0.16668   0.81491   0.00000  Uiso   1.00
O742   O     0.98148   0.16666   0.68508   0.00000  Uiso   1.00
O743   O     0.93933   0.16667   0.81492   0.00000  Uiso   1.00
O744   O     0.72733   0.16667   0.68508   0.00000  Uiso   1.00
C745   C     0.00019   0.42070   0.74982   0.00000  Uiso   1.00
C746   C     0.04443   0.35407   0.74141   0.00000  Uiso   1.00
C747   C     0.33285   0.62392   0.75023   0.00000  Uiso   1.00
C748   C     0.00049   0.37608   0.74977   0.00000  Uiso   1.00
C749   C     0.18310   0.47594   0.77935   0.00000  Uiso   1.00
C750   C     0.15023   0.52406   0.72065   0.00000  Uiso   1.00
C751   C     0.13349   0.47598   0.77936   0.00000  Uiso   1.00
C752   C     0.19985   0.52402   0.72064   0.00000  Uiso   1.00
C753   C     0.30614   0.49969   0.83603   0.00000  Uiso   1.00
C754   C     0.02720   0.50031   0.66397   0.00000  Uiso   1.00
C755   C     0.29114   0.49723   0.88498   0.00000  Uiso   1.00
C756   C     0.33314   0.57930   0.75018   0.00000  Uiso   1.00
C757   C     0.04219   0.50271   0.61502   0.00000  Uiso   1.00
C758   C     0.30732   0.47958   0.95528   0.00000  Uiso   1.00
C759   C     0.02597   0.52013   0.54467   0.00000  Uiso   1.00
C760   C     0.32379   0.48539   0.90930   0.00000  Uiso   1.00
C761   C     0.00952   0.51442   0.59067   0.00000  Uiso   1.00
C762   C     0.24237   0.50434   0.90714   0.00000  Uiso   1.00
C763   C     0.09098   0.49564   0.59286   0.00000  Uiso   1.00
C764   C     0.22452   0.49819   0.95349   0.00000  Uiso   1.00
C765   C     0.10879   0.50161   0.54648   0.00000  Uiso   1.00
C766   C     0.25813   0.48566   0.97745   0.00000  Uiso   1.00
C767   C     0.19400   0.48412   0.54592   0.00000  Uiso   1.00
C768   C     0.07516   0.51405   0.52250   0.00000  Uiso   1.00
C769   C     0.17442   0.50348   0.97647   0.00000  Uiso   1.00
C770   C     0.15888   0.49626   0.52349   0.00000  Uiso   1.00
C771   C     0.13928   0.51551   0.95402   0.00000  Uiso   1.00
C772   C     0.24244   0.47892   0.52325   0.00000  Uiso   1.00
C773   C     0.09084   0.52069   0.97669   0.00000  Uiso   1.00
C774   C     0.28958   0.35510   0.75829   0.00000  Uiso   1.00
C775   C     0.04376   0.64490   0.74171   0.00000  Uiso   1.00
C776   C     0.28890   0.64593   0.75859   0.00000  Uiso   1.00
Cu777  Cu    0.04689   0.50001   0.75000   0.00000  Uiso   1.00
Cu778  Cu    0.28645   0.49999   0.75000   0.00000  Uiso   1.00
F779   F     0.24526   0.62668   0.76765   0.00000  Uiso   1.00
F780   F     0.08807   0.37332   0.73235   0.00000  Uiso   1.00
H781   H     0.26786   0.46931   0.54184   0.00000  Uiso   1.00
H782   H     0.14756   0.52137   0.91869   0.00000  Uiso   1.00
H783   H     0.25531   0.37153   0.76511   0.00000  Uiso   1.00
H784   H     0.07803   0.62847   0.73489   0.00000  Uiso   1.00
H785   H     0.19509   0.45660   0.80281   0.00000  Uiso   1.00
H786   H     0.13824   0.54340   0.69719   0.00000  Uiso   1.00
H787   H     0.10808   0.45671   0.80284   0.00000  Uiso   1.00
H788   H     0.22525   0.54329   0.69716   0.00000  Uiso   1.00
H789   H     0.06540   0.53021   0.95807   0.00000  Uiso   1.00
H790   H     0.11429   0.48596   0.61304   0.00000  Uiso   1.00
H791   H     0.21911   0.51422   0.88699   0.00000  Uiso   1.00
H792   H     0.30498   0.52019   0.60727   0.00000  Uiso   1.00
H793   H     0.02832   0.47959   0.89268   0.00000  Uiso   1.00
H794   H     0.33294   0.46955   0.97344   0.00000  Uiso   1.00
H795   H     0.00033   0.53007   0.52649   0.00000  Uiso   1.00
H796   H     0.18569   0.47812   0.58122   0.00000  Uiso   1.00
N797   N     0.11736   0.50001   0.74999   0.00000  Uiso   1.00
N798   N     0.21597   0.49999   0.75001   0.00000  Uiso   1.00
O799   O     0.03958   0.43989   0.75000   0.00000  Uiso   1.00
O800   O     0.29375   0.56011   0.75000   0.00000  Uiso   1.00
O801   O     0.29372   0.43988   0.75000   0.00000  Uiso   1.00
O802   O     0.03961   0.56012   0.74999   0.00000  Uiso   1.00
O803   O     0.01852   0.50001   0.81491   0.00000  Uiso   1.00
O804   O     0.31481   0.49999   0.68508   0.00000  Uiso   1.00
O805   O     0.27267   0.50000   0.81492   0.00000  Uiso   1.00
O806   O     0.06067   0.50000   0.68508   0.00000  Uiso   1.00
C807   C     0.33353   0.42070   0.74982   0.00000  Uiso   1.00
C808   C     0.37776   0.35407   0.74141   0.00000  Uiso   1.00
C809   C     0.66618   0.62392   0.75023   0.00000  Uiso   1.00
C810   C     0.33382   0.37608   0.74977   0.00000  Uiso   1.00
C811   C     0.51643   0.47594   0.77935   0.00000  Uiso   1.00
C812   C     0.48357   0.52406   0.72065   0.00000  Uiso   1.00
C813   C     0.46682   0.47598   0.77936   0.00000  Uiso   1.00
C814   C     0.53318   0.52402   0.72064   0.00000  Uiso   1.00
C815   C     0.63947   0.49969   0.83603   0.00000  Uiso   1.00
C816   C     0.36053   0.50031   0.66397   0.00000  Uiso   1.00
C817   C     0.62447   0.49723   0.88498   0.00000  Uiso   1.00
C818   C     0.66647   0.57930   0.75018   0.00000  Uiso   1.00
C819   C     0.37553   0.50271   0.61502   0.00000  Uiso   1.00
C820   C     0.64066   0.47958   0.95528   0.00000  Uiso   1.00
C821   C     0.35930   0.52013   0.54467   0.00000  Uiso   1.00
C822   C     0.65712   0.48539   0.90930   0.00000  Uiso   1.00
C823   C     0.34285   0.51442   0.59067   0.00000  Uiso   1.00
C824   C     0.57570   0.50434   0.90714   0.00000  Uiso   1.00
C825   C     0.42431   0.49564   0.59286   0.00000  Uiso   1.00
C826   C     0.55786   0.49819   0.95349   0.00000  Uiso   1.00
C827   C     0.44212   0.50161   0.54648   0.00000  Uiso   1.00
C828   C     0.59147   0.48566   0.97745   0.00000  Uiso   1.00
C829   C     0.52733   0.48412   0.54592   0.00000  Uiso   1.00
C830   C     0.40849   0.51405   0.52250   0.00000  Uiso   1.00
C831   C     0.50775   0.50348   0.97647   0.00000  Uiso   1.00
C832   C     0.49222   0.49626   0.52349   0.00000  Uiso   1.00
C833   C     0.47261   0.51551   0.95402   0.00000  Uiso   1.00
C834   C     0.57577   0.47892   0.52325   0.00000  Uiso   1.00
C835   C     0.42417   0.52069   0.97669   0.00000  Uiso   1.00
C836   C     0.62291   0.35510   0.75829   0.00000  Uiso   1.00
C837   C     0.37709   0.64490   0.74171   0.00000  Uiso   1.00
C838   C     0.62224   0.64593   0.75859   0.00000  Uiso   1.00
Cu839  Cu    0.38022   0.50001   0.75000   0.00000  Uiso   1.00
Cu840  Cu    0.61978   0.49999   0.75000   0.00000  Uiso   1.00
F841   F     0.57859   0.62668   0.76765   0.00000  Uiso   1.00
F842   F     0.42141   0.37332   0.73235   0.00000  Uiso   1.00
H843   H     0.60119   0.46931   0.54184   0.00000  Uiso   1.00
H844   H     0.48089   0.52137   0.91869   0.00000  Uiso   1.00
H845   H     0.58864   0.37153   0.76511   0.00000  Uiso   1.00
H846   H     0.41136   0.62847   0.73489   0.00000  Uiso   1.00
H847   H     0.52842   0.45660   0.80281   0.00000  Uiso   1.00
H848   H     0.47158   0.54340   0.69719   0.00000  Uiso   1.00
H849   H     0.44142   0.45671   0.80284   0.00000  Uiso   1.00
H850   H     0.55859   0.54329   0.69716   0.00000  Uiso   1.00
H851   H     0.39873   0.53021   0.95807   0.00000  Uiso   1.00
H852   H     0.44762   0.48596   0.61304   0.00000  Uiso   1.00
H853   H     0.55244   0.51422   0.88699   0.00000  Uiso   1.00
H854   H     0.63831   0.52019   0.60727   0.00000  Uiso   1.00
H855   H     0.36166   0.47959   0.89268   0.00000  Uiso   1.00
H856   H     0.66627   0.46955   0.97344   0.00000  Uiso   1.00
H857   H     0.33367   0.53007   0.52649   0.00000  Uiso   1.00
H858   H     0.51902   0.47812   0.58122   0.00000  Uiso   1.00
N859   N     0.45069   0.50001   0.74999   0.00000  Uiso   1.00
N860   N     0.54931   0.49999   0.75001   0.00000  Uiso   1.00
O861   O     0.37291   0.43989   0.75000   0.00000  Uiso   1.00
O862   O     0.62709   0.56011   0.75000   0.00000  Uiso   1.00
O863   O     0.62706   0.43988   0.75000   0.00000  Uiso   1.00
O864   O     0.37294   0.56012   0.74999   0.00000  Uiso   1.00
O865   O     0.35186   0.50001   0.81491   0.00000  Uiso   1.00
O866   O     0.64814   0.49999   0.68508   0.00000  Uiso   1.00
O867   O     0.60600   0.50000   0.81492   0.00000  Uiso   1.00
O868   O     0.39400   0.50000   0.68508   0.00000  Uiso   1.00
C869   C     0.66686   0.42070   0.74982   0.00000  Uiso   1.00
C870   C     0.71110   0.35407   0.74141   0.00000  Uiso   1.00
C871   C     0.99951   0.62392   0.75023   0.00000  Uiso   1.00
C872   C     0.66715   0.37608   0.74977   0.00000  Uiso   1.00
C873   C     0.84977   0.47594   0.77935   0.00000  Uiso   1.00
C874   C     0.81690   0.52406   0.72065   0.00000  Uiso   1.00
C875   C     0.80015   0.47598   0.77936   0.00000  Uiso   1.00
C876   C     0.86651   0.52402   0.72064   0.00000  Uiso   1.00
C877   C     0.97280   0.49969   0.83603   0.00000  Uiso   1.00
C878   C     0.69387   0.50031   0.66397   0.00000  Uiso   1.00
C879   C     0.95781   0.49723   0.88498   0.00000  Uiso   1.00
C880   C     0.99981   0.57930   0.75018   0.00000  Uiso   1.00
C881   C     0.70886   0.50271   0.61502   0.00000  Uiso   1.00
C882   C     0.97399   0.47958   0.95528   0.00000  Uiso   1.00
C883   C     0.69263   0.52013   0.54467   0.00000  Uiso   1.00
C884   C     0.99046   0.48539   0.90930   0.00000  Uiso   1.00
C885   C     0.67619   0.51442   0.59067   0.00000  Uiso   1.00
C886   C     0.90904   0.50434   0.90714   0.00000  Uiso   1.00
C887   C     0.75765   0.49564   0.59286   0.00000  Uiso   1.00
C888   C     0.89119   0.49819   0.95349   0.00000  Uiso   1.00
C889   C     0.77545   0.50161   0.54648   0.00000  Uiso   1.00
C890   C     0.92480   0.48566   0.97745   0.00000  Uiso   1.00
C891   C     0.86066   0.48412   0.54592   0.00000  Uiso   1.00
C892   C     0.74183   0.51405   0.52250   0.00000  Uiso   1.00
C893   C     0.84108   0.50348   0.97647   0.00000  Uiso   1.00
C894   C     0.82555   0.49626   0.52349   0.00000  Uiso   1.00
C895   C     0.80595   0.51551   0.95402   0.00000  Uiso   1.00
C896   C     0.90910   0.47892   0.52325   0.00000  Uiso   1.00
C897   C     0.75750   0.52069   0.97669   0.00000  Uiso   1.00
C898   C     0.95624   0.35510   0.75829   0.00000  Uiso   1.00
C899   C     0.71042   0.64490   0.74171   0.00000  Uiso   1.00
C900   C     0.95557   0.64593   0.75859   0.00000  Uiso   1.00
Cu901  Cu    0.71355   0.50001   0.75000   0.00000  Uiso   1.00
Cu902  Cu    0.95311   0.49999   0.75000   0.00000  Uiso   1.00
F903   F     0.91193   0.62668   0.76765   0.00000  Uiso   1.00
F904   F     0.75474   0.37332   0.73235   0.00000  Uiso   1.00
H905   H     0.93452   0.46931   0.54184   0.00000  Uiso   1.00
H906   H     0.81423   0.52137   0.91869   0.00000  Uiso   1.00
H907   H     0.92197   0.37153   0.76511   0.00000  Uiso   1.00
H908   H     0.74469   0.62847   0.73489   0.00000  Uiso   1.00
H909   H     0.86176   0.45660   0.80281   0.00000  Uiso   1.00
H910   H     0.80491   0.54340   0.69719   0.00000  Uiso   1.00
H911   H     0.77475   0.45671   0.80284   0.00000  Uiso   1.00
H912   H     0.89192   0.54329   0.69716   0.00000  Uiso   1.00
H913   H     0.73207   0.53021   0.95807   0.00000  Uiso   1.00
H914   H     0.78096   0.48596   0.61304   0.00000  Uiso   1.00
H915   H     0.88578   0.51422   0.88699   0.00000  Uiso   1.00
H916   H     0.97164   0.52019   0.60727   0.00000  Uiso   1.00
H917   H     0.69499   0.47959   0.89268   0.00000  Uiso   1.00
H918   H     0.99960   0.46955   0.97344   0.00000  Uiso   1.00
H919   H     0.66700   0.53007   0.52649   0.00000  Uiso   1.00
H920   H     0.85236   0.47812   0.58122   0.00000  Uiso   1.00
N921   N     0.78403   0.50001   0.74999   0.00000  Uiso   1.00
N922   N     0.88264   0.49999   0.75001   0.00000  Uiso   1.00
O923   O     0.70625   0.43989   0.75000   0.00000  Uiso   1.00
O924   O     0.96042   0.56011   0.75000   0.00000  Uiso   1.00
O925   O     0.96039   0.43988   0.75000   0.00000  Uiso   1.00
O926   O     0.70628   0.56012   0.74999   0.00000  Uiso   1.00
O927   O     0.68519   0.50001   0.81491   0.00000  Uiso   1.00
O928   O     0.98148   0.49999   0.68508   0.00000  Uiso   1.00
O929   O     0.93933   0.50000   0.81492   0.00000  Uiso   1.00
O930   O     0.72733   0.50000   0.68508   0.00000  Uiso   1.00
C931   C     0.00019   0.75403   0.74982   0.00000  Uiso   1.00
C932   C     0.04443   0.68740   0.74141   0.00000  Uiso   1.00
C933   C     0.33285   0.95725   0.75023   0.00000  Uiso   1.00
C934   C     0.00049   0.70942   0.74977   0.00000  Uiso   1.00
C935   C     0.18310   0.80928   0.77935   0.00000  Uiso   1.00
C936   C     0.15023   0.85739   0.72065   0.00000  Uiso   1.00
C937   C     0.13349   0.80931   0.77936   0.00000  Uiso   1.00
C938   C     0.19985   0.85735   0.72064   0.00000  Uiso   1.00
C939   C     0.30614   0.83303   0.83603   0.00000  Uiso   1.00
C940   C     0.02720   0.83364   0.66397   0.00000  Uiso   1.00
C941   C     0.29114   0.83057   0.88498   0.00000  Uiso   1.00
C942   C     0.33314   0.91264   0.75018   0.00000  Uiso   1.00
C943   C     0.04219   0.83604   0.61502   0.00000  Uiso   1.00
C944   C     0.30732   0.81291   0.95528   0.00000  Uiso   1.00
C945   C     0.02597   0.85347   0.54467   0.00000  Uiso   1.00
C946   C     0.32379   0.81873   0.90930   0.00000  Uiso   1.00
C947   C     0.00952   0.84775   0.59067   0.00000  Uiso   1.00
C948   C     0.24237   0.83767   0.90714   0.00000  Uiso   1.00
C949   C     0.09098   0.82898   0.59286   0.00000  Uiso   1.00
C950   C     0.22452   0.83152   0.95349   0.00000  Uiso   1.00
C951   C     0.10879   0.83495   0.54648   0.00000  Uiso   1.00
C952   C     0.25813   0.81899   0.97745   0.00000  Uiso   1.00
C953   C     0.19400   0.81745   0.54592   0.00000  Uiso   1.00
C954   C     0.07516   0.84738   0.52250   0.00000  Uiso   1.00
C955   C     0.17442   0.83681   0.97647   0.00000  Uiso   1.00
C956   C     0.15888   0.82959   0.52349   0.00000  Uiso   1.00
C957   C     0.13928   0.84884   0.95402   0.00000  Uiso   1.00
C958   C     0.24244   0.81225   0.52325   0.00000  Uiso   1.00
C959   C     0.09084   0.85403   0.97669   0.00000  Uiso   1.00
C960   C     0.28958   0.68843   0.75829   0.00000  Uiso   1.00
C961   C     0.04376   0.97823   0.74171   0.00000  Uiso   1.00
C962   C     0.28890   0.97927   0.75859   0.00000  Uiso   1.00
Cu963  Cu    0.04689   0.83334   0.75000   0.00000  Uiso   1.00
Cu964  Cu    0.28645   0.83333   0.75000   0.00000  Uiso   1.00
F965   F     0.24526   0.96001   0.76765   0.00000  Uiso   1.00
F966   F     0.08807   0.70665   0.73235   0.00000  Uiso   1.00
H967   H     0.26786   0.80265   0.54184   0.00000  Uiso   1.00
H968   H     0.14756   0.85470   0.91869   0.00000  Uiso   1.00
H969   H     0.25531   0.70486   0.76511   0.00000  Uiso   1.00
H970   H     0.07803   0.96180   0.73489   0.00000  Uiso   1.00
H971   H     0.19509   0.78993   0.80281   0.00000  Uiso   1.00
H972   H     0.13824   0.87673   0.69719   0.00000  Uiso   1.00
H973   H     0.10808   0.79005   0.80284   0.00000  Uiso   1.00
H974   H     0.22525   0.87662   0.69716   0.00000  Uiso   1.00
H975   H     0.06540   0.86354   0.95807   0.00000  Uiso   1.00
H976   H     0.11429   0.81930   0.61304   0.00000  Uiso   1.00
H977   H     0.21911   0.84755   0.88699   0.00000  Uiso   1.00
H978   H     0.30498   0.85352   0.60727   0.00000  Uiso   1.00
H979   H     0.02832   0.81292   0.89268   0.00000  Uiso   1.00
H980   H     0.33294   0.80289   0.97344   0.00000  Uiso   1.00
H981   H     0.00033   0.86341   0.52649   0.00000  Uiso   1.00
H982   H     0.18569   0.81145   0.58122   0.00000  Uiso   1.00
N983   N     0.11736   0.83334   0.74999   0.00000  Uiso   1.00
N984   N     0.21597   0.83332   0.75001   0.00000  Uiso   1.00
O985   O     0.03958   0.77322   0.75000   0.00000  Uiso   1.00
O986   O     0.29375   0.89345   0.75000   0.00000  Uiso   1.00
O987   O     0.29372   0.77321   0.75000   0.00000  Uiso   1.00
O988   O     0.03961   0.89346   0.74999   0.00000  Uiso   1.00
O989   O     0.01852   0.83334   0.81491   0.00000  Uiso   1.00
O990   O     0.31481   0.83332   0.68508   0.00000  Uiso   1.00
O991   O     0.27267   0.83333   0.81492   0.00000  Uiso   1.00
O992   O     0.06067   0.83333   0.68508   0.00000  Uiso   1.00
C993   C     0.33353   0.75403   0.74982   0.00000  Uiso   1.00
C994   C     0.37776   0.68740   0.74141   0.00000  Uiso   1.00
C995   C     0.66618   0.95725   0.75023   0.00000  Uiso   1.00
C996   C     0.33382   0.70942   0.74977   0.00000  Uiso   1.00
C997   C     0.51643   0.80928   0.77935   0.00000  Uiso   1.00
C998   C     0.48357   0.85739   0.72065   0.00000  Uiso   1.00
C999   C     0.46682   0.80931   0.77936   0.00000  Uiso   1.00
C1000  C     0.53318   0.85735   0.72064   0.00000  Uiso   1.00
C1001  C     0.63947   0.83303   0.83603   0.00000  Uiso   1.00
C1002  C     0.36053   0.83364   0.66397   0.00000  Uiso   1.00
C1003  C     0.62447   0.83057   0.88498   0.00000  Uiso   1.00
C1004  C     0.66647   0.91264   0.75018   0.00000  Uiso   1.00
C1005  C     0.37553   0.83604   0.61502   0.00000  Uiso   1.00
C1006  C     0.64066   0.81291   0.95528   0.00000  Uiso   1.00
C1007  C     0.35930   0.85347   0.54467   0.00000  Uiso   1.00
C1008  C     0.65712   0.81873   0.90930   0.00000  Uiso   1.00
C1009  C     0.34285   0.84775   0.59067   0.00000  Uiso   1.00
C1010  C     0.57570   0.83767   0.90714   0.00000  Uiso   1.00
C1011  C     0.42431   0.82898   0.59286   0.00000  Uiso   1.00
C1012  C     0.55786   0.83152   0.95349   0.00000  Uiso   1.00
C1013  C     0.44212   0.83495   0.54648   0.00000  Uiso   1.00
C1014  C     0.59147   0.81899   0.97745   0.00000  Uiso   1.00
C1015  C     0.52733   0.81745   0.54592   0.00000  Uiso   1.00
C1016  C     0.40849   0.84738   0.52250   0.00000  Uiso   1.00
C1017  C     0.50775   0.83681   0.97647   0.00000  Uiso   1.00
C1018  C     0.49222   0.82959   0.52349   0.00000  Uiso   1.00
C1019  C     0.47261   0.84884   0.95402   0.00000  Uiso   1.00
C1020  C     0.57577   0.81225   0.52325   0.00000  Uiso   1.00
C1021  C     0.42417   0.85403   0.97669   0.00000  Uiso   1.00
C1022  C     0.62291   0.68843   0.75829   0.00000  Uiso   1.00
C1023  C     0.37709   0.97823   0.74171   0.00000  Uiso   1.00
C1024  C     0.62224   0.97927   0.75859   0.00000  Uiso   1.00
Cu1025 Cu    0.38022   0.83334   0.75000   0.00000  Uiso   1.00
Cu1026 Cu    0.61978   0.83333   0.75000   0.00000  Uiso   1.00
F1027  F     0.57859   0.96001   0.76765   0.00000  Uiso   1.00
F1028  F     0.42141   0.70665   0.73235   0.00000  Uiso   1.00
H1029  H     0.60119   0.80265   0.54184   0.00000  Uiso   1.00
H1030  H     0.48089   0.85470   0.91869   0.00000  Uiso   1.00
H1031  H     0.58864   0.70486   0.76511   0.00000  Uiso   1.00
H1032  H     0.41136   0.96180   0.73489   0.00000  Uiso   1.00
H1033  H     0.52842   0.78993   0.80281   0.00000  Uiso   1.00
H1034  H     0.47158   0.87673   0.69719   0.00000  Uiso   1.00
H1035  H     0.44142   0.79005   0.80284   0.00000  Uiso   1.00
H1036  H     0.55859   0.87662   0.69716   0.00000  Uiso   1.00
H1037  H     0.39873   0.86354   0.95807   0.00000  Uiso   1.00
H1038  H     0.44762   0.81930   0.61304   0.00000  Uiso   1.00
H1039  H     0.55244   0.84755   0.88699   0.00000  Uiso   1.00
H1040  H     0.63831   0.85352   0.60727   0.00000  Uiso   1.00
H1041  H     0.36166   0.81292   0.89268   0.00000  Uiso   1.00
H1042  H     0.66627   0.80289   0.97344   0.00000  Uiso   1.00
H1043  H     0.33367   0.86341   0.52649   0.00000  Uiso   1.00
H1044  H     0.51902   0.81145   0.58122   0.00000  Uiso   1.00
N1045  N     0.45069   0.83334   0.74999   0.00000  Uiso   1.00
N1046  N     0.54931   0.83332   0.75001   0.00000  Uiso   1.00
O1047  O     0.37291   0.77322   0.75000   0.00000  Uiso   1.00
O1048  O     0.62709   0.89345   0.75000   0.00000  Uiso   1.00
O1049  O     0.62706   0.77321   0.75000   0.00000  Uiso   1.00
O1050  O     0.37294   0.89346   0.74999   0.00000  Uiso   1.00
O1051  O     0.35186   0.83334   0.81491   0.00000  Uiso   1.00
O1052  O     0.64814   0.83332   0.68508   0.00000  Uiso   1.00
O1053  O     0.60600   0.83333   0.81492   0.00000  Uiso   1.00
O1054  O     0.39400   0.83333   0.68508   0.00000  Uiso   1.00
C1055  C     0.66686   0.75403   0.74982   0.00000  Uiso   1.00
C1056  C     0.71110   0.68740   0.74141   0.00000  Uiso   1.00
C1057  C     0.99951   0.95725   0.75023   0.00000  Uiso   1.00
C1058  C     0.66715   0.70942   0.74977   0.00000  Uiso   1.00
C1059  C     0.84977   0.80928   0.77935   0.00000  Uiso   1.00
C1060  C     0.81690   0.85739   0.72065   0.00000  Uiso   1.00
C1061  C     0.80015   0.80931   0.77936   0.00000  Uiso   1.00
C1062  C     0.86651   0.85735   0.72064   0.00000  Uiso   1.00
C1063  C     0.97280   0.83303   0.83603   0.00000  Uiso   1.00
C1064  C     0.69387   0.83364   0.66397   0.00000  Uiso   1.00
C1065  C     0.95781   0.83057   0.88498   0.00000  Uiso   1.00
C1066  C     0.99981   0.91264   0.75018   0.00000  Uiso   1.00
C1067  C     0.70886   0.83604   0.61502   0.00000  Uiso   1.00
C1068  C     0.97399   0.81291   0.95528   0.00000  Uiso   1.00
C1069  C     0.69263   0.85347   0.54467   0.00000  Uiso   1.00
C1070  C     0.99046   0.81873   0.90930   0.00000  Uiso   1.00
C1071  C     0.67619   0.84775   0.59067   0.00000  Uiso   1.00
C1072  C     0.90904   0.83767   0.90714   0.00000  Uiso   1.00
C1073  C     0.75765   0.82898   0.59286   0.00000  Uiso   1.00
C1074  C     0.89119   0.83152   0.95349   0.00000  Uiso   1.00
C1075  C     0.77545   0.83495   0.54648   0.00000  Uiso   1.00
C1076  C     0.92480   0.81899   0.97745   0.00000  Uiso   1.00
C1077  C     0.86066   0.81745   0.54592   0.00000  Uiso   1.00
C1078  C     0.74183   0.84738   0.52250   0.00000  Uiso   1.00
C1079  C     0.84108   0.83681   0.97647   0.00000  Uiso   1.00
C1080  C     0.82555   0.82959   0.52349   0.00000  Uiso   1.00
C1081  C     0.80595   0.84884   0.95402   0.00000  Uiso   1.00
C1082  C     0.90910   0.81225   0.52325   0.00000  Uiso   1.00
C1083  C     0.75750   0.85403   0.97669   0.00000  Uiso   1.00
C1084  C     0.95624   0.68843   0.75829   0.00000  Uiso   1.00
C1085  C     0.71042   0.97823   0.74171   0.00000  Uiso   1.00
C1086  C     0.95557   0.97927   0.75859   0.00000  Uiso   1.00
Cu1087 Cu    0.71355   0.83334   0.75000   0.00000  Uiso   1.00
Cu1088 Cu    0.95311   0.83333   0.75000   0.00000  Uiso   1.00
F1089  F     0.91193   0.96001   0.76765   0.00000  Uiso   1.00
F1090  F     0.75474   0.70665   0.73235   0.00000  Uiso   1.00
H1091  H     0.93452   0.80265   0.54184   0.00000  Uiso   1.00
H1092  H     0.81423   0.85470   0.91869   0.00000  Uiso   1.00
H1093  H     0.92197   0.70486   0.76511   0.00000  Uiso   1.00
H1094  H     0.74469   0.96180   0.73489   0.00000  Uiso   1.00
H1095  H     0.86176   0.78993   0.80281   0.00000  Uiso   1.00
H1096  H     0.80491   0.87673   0.69719   0.00000  Uiso   1.00
H1097  H     0.77475   0.79005   0.80284   0.00000  Uiso   1.00
H1098  H     0.89192   0.87662   0.69716   0.00000  Uiso   1.00
H1099  H     0.73207   0.86354   0.95807   0.00000  Uiso   1.00
H1100  H     0.78096   0.81930   0.61304   0.00000  Uiso   1.00
H1101  H     0.88578   0.84755   0.88699   0.00000  Uiso   1.00
H1102  H     0.97164   0.85352   0.60727   0.00000  Uiso   1.00
H1103  H     0.69499   0.81292   0.89268   0.00000  Uiso   1.00
H1104  H     0.99960   0.80289   0.97344   0.00000  Uiso   1.00
H1105  H     0.66700   0.86341   0.52649   0.00000  Uiso   1.00
H1106  H     0.85236   0.81145   0.58122   0.00000  Uiso   1.00
N1107  N     0.78403   0.83334   0.74999   0.00000  Uiso   1.00
N1108  N     0.88264   0.83332   0.75001   0.00000  Uiso   1.00
O1109  O     0.70625   0.77322   0.75000   0.00000  Uiso   1.00
O1110  O     0.96042   0.89345   0.75000   0.00000  Uiso   1.00
O1111  O     0.96039   0.77321   0.75000   0.00000  Uiso   1.00
O1112  O     0.70628   0.89346   0.74999   0.00000  Uiso   1.00
O1113  O     0.68519   0.83334   0.81491   0.00000  Uiso   1.00
O1114  O     0.98148   0.83332   0.68508   0.00000  Uiso   1.00
O1115  O     0.93933   0.83333   0.81492   0.00000  Uiso   1.00
O1116  O     0.72733   0.83333   0.68508   0.00000  Uiso   1.00
loop_
_geom_bond_atom_site_label_1
_geom_bond_atom_site_label_2
_geom_bond_distance
_geom_bond_site_symmetry_2
_ccdc_geom_bond_type
C1     C4      1.452   .     S
C1     O55     1.290   .     A
C1     O181    1.293   1_455 S
C2     C4      1.405   .     A
C2     F36     1.358   .     S
C2     C403    1.383   1_545 S
C3     C32     1.405   .     A
C3     C12     1.452   .     S
C3     C93     1.401   .     S
C4     C154    1.401   1_455 S
C5     N54     1.368   .     A
C5     C7      1.417   .     A
C5     H41     1.082   .     S
C6     C8      1.417   .     A
C6     H42     1.082   .     S
C6     N53     1.368   .     A
C7     H43     1.082   .     S
C7     N53     1.367   .     A
C8     N54     1.367   .     A
C8     H44     1.082   .     S
C9     C11     1.466   .     S
C9     O61     1.294   .     A
C9     O121    1.296   .     S
C10    O62     1.294   .     A
C10    C13     1.466   .     S
C10    O184    1.296   1_455 S
C11    C18     1.398   .     A
C11    C16     1.398   .     A
C12    O56     1.290   .     A
C12    O120    1.293   .     S
C13    C17     1.398   .     A
C13    C19     1.398   .     A
C14    C22     1.404   .     A
C14    C16     1.391   .     A
C14    H50     1.083   .     S
C15    C24     1.404   .     A
C15    H51     1.083   .     S
C15    C17     1.391   .     A
C16    H111    1.083   .     S
C17    H172    1.083   1_455 S
C18    H47     1.073   .     S
C18    C20     1.406   .     A
C19    H46     1.073   .     S
C19    C21     1.406   .     A
C20    C22     1.419   .     A
C20    C25     1.429   .     A
C21    C26     1.429   .     A
C21    C24     1.419   .     A
C22    C586    1.389   .     S
C23    C28     1.385   .     A
C23    H52     1.075   .     S
C23    C26     1.418   .     A
C24    C587    1.389   1_554 S
C25    C27     1.418   .     A
C25    C584    1.427   .     S
C26    C583    1.427   1_554 S
C27    C29     1.385   .     A
C27    H38     1.075   .     S
C28    H37     1.084   .     S
C28    C580    1.389   1_554 S
C29    H45     1.084   .     S
C29    C582    1.389   .     S
C30    H39     1.084   .     S
C30    C66     1.401   .     S
C30    C404    1.383   1_545 S
C31    H40     1.084   .     S
C31    C127    1.401   1_455 S
C31    C188    1.383   .     S
C32    F35     1.358   .     S
C32    C216    1.383   .     S
Cu33   O55     1.968   .     S
Cu33   O58     1.966   .     S
Cu33   O59     1.961   .     S
Cu33   N53     2.012   .     S
Cu33   O62     1.947   .     S
Cu33   Cu158   2.678   1_455 S
Cu34   O57     1.966   .     S
Cu34   O56     1.968   .     S
Cu34   O60     1.961   .     S
Cu34   N54     2.012   .     S
Cu34   O61     1.947   .     S
Cu34   Cu95    2.678   .     S
H48    C79     1.083   .     S
H49    C140    1.083   1_455 S
O57    C63     1.293   .     S
O58    C136    1.293   1_455 S
O59    C133    1.296   1_455 S
O60    C72     1.296   .     S
C63    C66     1.452   .     S
C63    O117    1.290   .     A
C64    C66     1.405   .     A
C64    F98     1.358   .     S
C64    C465    1.383   1_545 S
C65    C94     1.405   .     A
C65    C74     1.452   .     S
C65    C155    1.401   .     S
C67    N116    1.368   .     A
C67    C69     1.417   .     A
C67    H103    1.082   .     S
C68    C70     1.417   .     A
C68    H104    1.082   .     S
C68    N115    1.368   .     A
C69    H105    1.082   .     S
C69    N115    1.367   .     A
C70    N116    1.367   .     A
C70    H106    1.082   .     S
C71    C73     1.466   .     S
C71    O123    1.294   .     A
C71    O183    1.296   .     S
C72    O124    1.294   .     A
C72    C75     1.466   .     S
C73    C80     1.398   .     A
C73    C78     1.398   .     A
C74    O118    1.290   .     A
C74    O182    1.293   .     S
C75    C79     1.398   .     A
C75    C81     1.398   .     A
C76    C84     1.404   .     A
C76    C78     1.391   .     A
C76    H112    1.083   .     S
C77    C86     1.404   .     A
C77    H113    1.083   .     S
C77    C79     1.391   .     A
C78    H173    1.083   .     S
C80    H109    1.073   .     S
C80    C82     1.406   .     A
C81    H108    1.073   .     S
C81    C83     1.406   .     A
C82    C84     1.419   .     A
C82    C87     1.429   .     A
C83    C88     1.429   .     A
C83    C86     1.419   .     A
C84    C648    1.389   .     S
C85    C90     1.385   .     A
C85    H114    1.075   .     S
C85    C88     1.418   .     A
C86    C649    1.389   1_554 S
C87    C89     1.418   .     A
C87    C646    1.427   .     S
C88    C645    1.427   1_554 S
C89    C91     1.385   .     A
C89    H100    1.075   .     S
C90    H99     1.084   .     S
C90    C642    1.389   1_554 S
C91    H107    1.084   .     S
C91    C644    1.389   .     S
C92    H101    1.084   .     S
C92    C128    1.401   .     S
C92    C466    1.383   1_545 S
C93    H102    1.084   .     S
C93    C250    1.383   .     S
C94    F97     1.358   .     S
C94    C278    1.383   .     S
Cu95   O117    1.968   .     S
Cu95   O120    1.966   .     S
Cu95   O121    1.961   .     S
Cu95   N115    2.012   .     S
Cu95   O124    1.947   .     S
Cu96   O119    1.966   .     S
Cu96   O118    1.968   .     S
Cu96   O122    1.961   .     S
Cu96   N116    2.012   .     S
Cu96   O123    1.947   .     S
Cu96   Cu157   2.678   .     S
H110   C141    1.083   .     S
O119   C125    1.293   .     S
O122   C134    1.296   .     S
C125   C128    1.452   .     S
C125   O179    1.290   .     A
C126   C128    1.405   .     A
C126   F160    1.358   .     S
C126   C527    1.383   1_545 S
C127   C156    1.405   .     A
C127   C136    1.452   .     S
C127   C31     1.401   1_655 S
C129   N178    1.368   .     A
C129   C131    1.417   .     A
C129   H165    1.082   .     S
C130   C132    1.417   .     A
C130   H166    1.082   .     S
C130   N177    1.368   .     A
C131   H167    1.082   .     S
C131   N177    1.367   .     A
C132   N178    1.367   .     A
C132   H168    1.082   .     S
C133   C135    1.466   .     S
C133   O185    1.294   .     A
C133   O59     1.296   1_655 S
C134   O186    1.294   .     A
C134   C137    1.466   .     S
C135   C142    1.398   .     A
C135   C140    1.398   .     A
C136   O180    1.290   .     A
C136   O58     1.293   1_655 S
C137   C141    1.398   .     A
C137   C143    1.398   .     A
C138   C146    1.404   .     A
C138   C140    1.391   .     A
C138   H174    1.083   .     S
C139   C148    1.404   .     A
C139   H175    1.083   .     S
C139   C141    1.391   .     A
C140   H49     1.083   1_655 S
C142   H171    1.073   .     S
C142   C144    1.406   .     A
C143   H170    1.073   .     S
C143   C145    1.406   .     A
C144   C146    1.419   .     A
C144   C149    1.429   .     A
C145   C150    1.429   .     A
C145   C148    1.419   .     A
C146   C710    1.389   .     S
C147   C152    1.385   .     A
C147   H176    1.075   .     S
C147   C150    1.418   .     A
C148   C711    1.389   1_554 S
C149   C151    1.418   .     A
C149   C708    1.427   .     S
C150   C707    1.427   1_554 S
C151   C153    1.385   .     A
C151   H162    1.075   .     S
C152   H161    1.084   .     S
C152   C704    1.389   1_554 S
C153   H169    1.084   .     S
C153   C706    1.389   .     S
C154   H163    1.084   .     S
C154   C4      1.401   1_655 S
C154   C528    1.383   1_545 S
C155   H164    1.084   .     S
C155   C312    1.383   .     S
C156   F159    1.358   .     S
C156   C340    1.383   .     S
Cu157  O179    1.968   .     S
Cu157  O182    1.966   .     S
Cu157  O183    1.961   .     S
Cu157  N177    2.012   .     S
Cu157  O186    1.947   .     S
Cu158  O181    1.966   .     S
Cu158  O180    1.968   .     S
Cu158  O184    1.961   .     S
Cu158  N178    2.012   .     S
Cu158  O185    1.947   .     S
Cu158  Cu33    2.678   1_655 S
H172   C17     1.083   1_655 S
O181   C1      1.293   1_655 S
O184   C10     1.296   1_655 S
C187   C190    1.452   .     S
C187   O241    1.290   .     A
C187   O367    1.293   1_455 S
C188   C190    1.405   .     A
C188   F222    1.358   .     S
C189   C218    1.405   .     A
C189   C198    1.452   .     S
C189   C279    1.401   .     S
C190   C340    1.401   1_455 S
C191   N240    1.368   .     A
C191   C193    1.417   .     A
C191   H227    1.082   .     S
C192   C194    1.417   .     A
C192   H228    1.082   .     S
C192   N239    1.368   .     A
C193   H229    1.082   .     S
C193   N239    1.367   .     A
C194   N240    1.367   .     A
C194   H230    1.082   .     S
C195   C197    1.466   .     S
C195   O247    1.294   .     A
C195   O307    1.296   .     S
C196   O248    1.294   .     A
C196   C199    1.466   .     S
C196   O370    1.296   1_455 S
C197   C204    1.398   .     A
C197   C202    1.398   .     A
C198   O242    1.290   .     A
C198   O306    1.293   .     S
C199   C203    1.398   .     A
C199   C205    1.398   .     A
C200   C208    1.404   .     A
C200   C202    1.391   .     A
C200   H236    1.083   .     S
C201   C210    1.404   .     A
C201   H237    1.083   .     S
C201   C203    1.391   .     A
C202   H297    1.083   .     S
C203   H358    1.083   1_455 S
C204   H233    1.073   .     S
C204   C206    1.406   .     A
C205   H232    1.073   .     S
C205   C207    1.406   .     A
C206   C208    1.419   .     A
C206   C211    1.429   .     A
C207   C212    1.429   .     A
C207   C210    1.419   .     A
C208   C772    1.389   .     S
C209   C214    1.385   .     A
C209   H238    1.075   .     S
C209   C212    1.418   .     A
C210   C773    1.389   1_554 S
C211   C213    1.418   .     A
C211   C770    1.427   .     S
C212   C769    1.427   1_554 S
C213   C215    1.385   .     A
C213   H224    1.075   .     S
C214   H223    1.084   .     S
C214   C766    1.389   1_554 S
C215   H231    1.084   .     S
C215   C768    1.389   .     S
C216   H225    1.084   .     S
C216   C252    1.401   .     S
C217   H226    1.084   .     S
C217   C313    1.401   1_455 S
C217   C374    1.383   .     S
C218   F221    1.358   .     S
C218   C402    1.383   .     S
Cu219  O241    1.968   .     S
Cu219  O244    1.966   .     S
Cu219  O245    1.961   .     S
Cu219  N239    2.012   .     S
Cu219  O248    1.947   .     S
Cu219  Cu344   2.678   1_455 S
Cu220  O243    1.966   .     S
Cu220  O242    1.968   .     S
Cu220  O246    1.961   .     S
Cu220  N240    2.012   .     S
Cu220  O247    1.947   .     S
Cu220  Cu281   2.678   .     S
H234   C265    1.083   .     S
H235   C326    1.083   1_455 S
O243   C249    1.293   .     S
O244   C322    1.293   1_455 S
O245   C319    1.296   1_455 S
O246   C258    1.296   .     S
C249   C252    1.452   .     S
C249   O303    1.290   .     A
C250   C252    1.405   .     A
C250   F284    1.358   .     S
C251   C280    1.405   .     A
C251   C260    1.452   .     S
C251   C341    1.401   .     S
C253   N302    1.368   .     A
C253   C255    1.417   .     A
C253   H289    1.082   .     S
C254   C256    1.417   .     A
C254   H290    1.082   .     S
C254   N301    1.368   .     A
C255   H291    1.082   .     S
C255   N301    1.367   .     A
C256   N302    1.367   .     A
C256   H292    1.082   .     S
C257   C259    1.466   .     S
C257   O309    1.294   .     A
C257   O369    1.296   .     S
C258   O310    1.294   .     A
C258   C261    1.466   .     S
C259   C266    1.398   .     A
C259   C264    1.398   .     A
C260   O304    1.290   .     A
C260   O368    1.293   .     S
C261   C265    1.398   .     A
C261   C267    1.398   .     A
C262   C270    1.404   .     A
C262   C264    1.391   .     A
C262   H298    1.083   .     S
C263   C272    1.404   .     A
C263   H299    1.083   .     S
C263   C265    1.391   .     A
C264   H359    1.083   .     S
C266   H295    1.073   .     S
C266   C268    1.406   .     A
C267   H294    1.073   .     S
C267   C269    1.406   .     A
C268   C270    1.419   .     A
C268   C273    1.429   .     A
C269   C274    1.429   .     A
C269   C272    1.419   .     A
C270   C834    1.389   .     S
C271   C276    1.385   .     A
C271   H300    1.075   .     S
C271   C274    1.418   .     A
C272   C835    1.389   1_554 S
C273   C275    1.418   .     A
C273   C832    1.427   .     S
C274   C831    1.427   1_554 S
C275   C277    1.385   .     A
C275   H286    1.075   .     S
C276   H285    1.084   .     S
C276   C828    1.389   1_554 S
C277   H293    1.084   .     S
C277   C830    1.389   .     S
C278   H287    1.084   .     S
C278   C314    1.401   .     S
C279   H288    1.084   .     S
C279   C436    1.383   .     S
C280   F283    1.358   .     S
C280   C464    1.383   .     S
Cu281  O303    1.968   .     S
Cu281  O306    1.966   .     S
Cu281  O307    1.961   .     S
Cu281  N301    2.012   .     S
Cu281  O310    1.947   .     S
Cu282  O305    1.966   .     S
Cu282  O304    1.968   .     S
Cu282  O308    1.961   .     S
Cu282  N302    2.012   .     S
Cu282  O309    1.947   .     S
Cu282  Cu343   2.678   .     S
H296   C327    1.083   .     S
O305   C311    1.293   .     S
O308   C320    1.296   .     S
C311   C314    1.452   .     S
C311   O365    1.290   .     A
C312   C314    1.405   .     A
C312   F346    1.358   .     S
C313   C342    1.405   .     A
C313   C322    1.452   .     S
C313   C217    1.401   1_655 S
C315   N364    1.368   .     A
C315   C317    1.417   .     A
C315   H351    1.082   .     S
C316   C318    1.417   .     A
C316   H352    1.082   .     S
C316   N363    1.368   .     A
C317   H353    1.082   .     S
C317   N363    1.367   .     A
C318   N364    1.367   .     A
C318   H354    1.082   .     S
C319   C321    1.466   .     S
C319   O371    1.294   .     A
C319   O245    1.296   1_655 S
C320   O372    1.294   .     A
C320   C323    1.466   .     S
C321   C328    1.398   .     A
C321   C326    1.398   .     A
C322   O366    1.290   .     A
C322   O244    1.293   1_655 S
C323   C327    1.398   .     A
C323   C329    1.398   .     A
C324   C332    1.404   .     A
C324   C326    1.391   .     A
C324   H360    1.083   .     S
C325   C334    1.404   .     A
C325   H361    1.083   .     S
C325   C327    1.391   .     A
C326   H235    1.083   1_655 S
C328   H357    1.073   .     S
C328   C330    1.406   .     A
C329   H356    1.073   .     S
C329   C331    1.406   .     A
C330   C332    1.419   .     A
C330   C335    1.429   .     A
C331   C336    1.429   .     A
C331   C334    1.419   .     A
C332   C896    1.389   .     S
C333   C338    1.385   .     A
C333   H362    1.075   .     S
C333   C336    1.418   .     A
C334   C897    1.389   1_554 S
C335   C337    1.418   .     A
C335   C894    1.427   .     S
C336   C893    1.427   1_554 S
C337   C339    1.385   .     A
C337   H348    1.075   .     S
C338   H347    1.084   .     S
C338   C890    1.389   1_554 S
C339   H355    1.084   .     S
C339   C892    1.389   .     S
C340   H349    1.084   .     S
C340   C190    1.401   1_655 S
C341   H350    1.084   .     S
C341   C498    1.383   .     S
C342   F345    1.358   .     S
C342   C526    1.383   .     S
Cu343  O365    1.968   .     S
Cu343  O368    1.966   .     S
Cu343  O369    1.961   .     S
Cu343  N363    2.012   .     S
Cu343  O372    1.947   .     S
Cu344  O367    1.966   .     S
Cu344  O366    1.968   .     S
Cu344  O370    1.961   .     S
Cu344  N364    2.012   .     S
Cu344  O371    1.947   .     S
Cu344  Cu219   2.678   1_655 S
H358   C203    1.083   1_655 S
O367   C187    1.293   1_655 S
O370   C196    1.296   1_655 S
C373   C376    1.452   .     S
C373   O427    1.290   .     A
C373   O553    1.293   1_455 S
C374   C376    1.405   .     A
C374   F408    1.358   .     S
C375   C404    1.405   .     A
C375   C384    1.452   .     S
C375   C465    1.401   .     S
C376   C526    1.401   1_455 S
C377   N426    1.368   .     A
C377   C379    1.417   .     A
C377   H413    1.082   .     S
C378   C380    1.417   .     A
C378   H414    1.082   .     S
C378   N425    1.368   .     A
C379   H415    1.082   .     S
C379   N425    1.367   .     A
C380   N426    1.367   .     A
C380   H416    1.082   .     S
C381   C383    1.466   .     S
C381   O433    1.294   .     A
C381   O493    1.296   .     S
C382   O434    1.294   .     A
C382   C385    1.466   .     S
C382   O556    1.296   1_455 S
C383   C390    1.398   .     A
C383   C388    1.398   .     A
C384   O428    1.290   .     A
C384   O492    1.293   .     S
C385   C389    1.398   .     A
C385   C391    1.398   .     A
C386   C394    1.404   .     A
C386   C388    1.391   .     A
C386   H422    1.083   .     S
C387   C396    1.404   .     A
C387   H423    1.083   .     S
C387   C389    1.391   .     A
C388   H483    1.083   .     S
C389   H544    1.083   1_455 S
C390   H419    1.073   .     S
C390   C392    1.406   .     A
C391   H418    1.073   .     S
C391   C393    1.406   .     A
C392   C394    1.419   .     A
C392   C397    1.429   .     A
C393   C398    1.429   .     A
C393   C396    1.419   .     A
C394   C958    1.389   .     S
C395   C400    1.385   .     A
C395   H424    1.075   .     S
C395   C398    1.418   .     A
C396   C959    1.389   1_554 S
C397   C399    1.418   .     A
C397   C956    1.427   .     S
C398   C955    1.427   1_554 S
C399   C401    1.385   .     A
C399   H410    1.075   .     S
C400   H409    1.084   .     S
C400   C952    1.389   1_554 S
C401   H417    1.084   .     S
C401   C954    1.389   .     S
C402   H411    1.084   .     S
C402   C438    1.401   .     S
C403   H412    1.084   .     S
C403   C499    1.401   1_455 S
C403   C2      1.383   1_565 S
C404   F407    1.358   .     S
C404   C30     1.383   1_565 S
Cu405  O427    1.968   .     S
Cu405  O430    1.966   .     S
Cu405  O431    1.961   .     S
Cu405  N425    2.012   .     S
Cu405  O434    1.947   .     S
Cu405  Cu530   2.678   1_455 S
Cu406  O429    1.966   .     S
Cu406  O428    1.968   .     S
Cu406  O432    1.961   .     S
Cu406  N426    2.012   .     S
Cu406  O433    1.947   .     S
Cu406  Cu467   2.678   .     S
H420   C451    1.083   .     S
H421   C512    1.083   1_455 S
O429   C435    1.293   .     S
O430   C508    1.293   1_455 S
O431   C505    1.296   1_455 S
O432   C444    1.296   .     S
C435   C438    1.452   .     S
C435   O489    1.290   .     A
C436   C438    1.405   .     A
C436   F470    1.358   .     S
C437   C466    1.405   .     A
C437   C446    1.452   .     S
C437   C527    1.401   .     S
C439   N488    1.368   .     A
C439   C441    1.417   .     A
C439   H475    1.082   .     S
C440   C442    1.417   .     A
C440   H476    1.082   .     S
C440   N487    1.368   .     A
C441   H477    1.082   .     S
C441   N487    1.367   .     A
C442   N488    1.367   .     A
C442   H478    1.082   .     S
C443   C445    1.466   .     S
C443   O495    1.294   .     A
C443   O555    1.296   .     S
C444   O496    1.294   .     A
C444   C447    1.466   .     S
C445   C452    1.398   .     A
C445   C450    1.398   .     A
C446   O490    1.290   .     A
C446   O554    1.293   .     S
C447   C451    1.398   .     A
C447   C453    1.398   .     A
C448   C456    1.404   .     A
C448   C450    1.391   .     A
C448   H484    1.083   .     S
C449   C458    1.404   .     A
C449   H485    1.083   .     S
C449   C451    1.391   .     A
C450   H545    1.083   .     S
C452   H481    1.073   .     S
C452   C454    1.406   .     A
C453   H480    1.073   .     S
C453   C455    1.406   .     A
C454   C456    1.419   .     A
C454   C459    1.429   .     A
C455   C460    1.429   .     A
C455   C458    1.419   .     A
C456   C1020   1.389   .     S
C457   C462    1.385   .     A
C457   H486    1.075   .     S
C457   C460    1.418   .     A
C458   C1021   1.389   1_554 S
C459   C461    1.418   .     A
C459   C1018   1.427   .     S
C460   C1017   1.427   1_554 S
C461   C463    1.385   .     A
C461   H472    1.075   .     S
C462   H471    1.084   .     S
C462   C1014   1.389   1_554 S
C463   H479    1.084   .     S
C463   C1016   1.389   .     S
C464   H473    1.084   .     S
C464   C500    1.401   .     S
C465   H474    1.084   .     S
C465   C64     1.383   1_565 S
C466   F469    1.358   .     S
C466   C92     1.383   1_565 S
Cu467  O489    1.968   .     S
Cu467  O492    1.966   .     S
Cu467  O493    1.961   .     S
Cu467  N487    2.012   .     S
Cu467  O496    1.947   .     S
Cu468  O491    1.966   .     S
Cu468  O490    1.968   .     S
Cu468  O494    1.961   .     S
Cu468  N488    2.012   .     S
Cu468  O495    1.947   .     S
Cu468  Cu529   2.678   .     S
H482   C513    1.083   .     S
O491   C497    1.293   .     S
O494   C506    1.296   .     S
C497   C500    1.452   .     S
C497   O551    1.290   .     A
C498   C500    1.405   .     A
C498   F532    1.358   .     S
C499   C528    1.405   .     A
C499   C508    1.452   .     S
C499   C403    1.401   1_655 S
C501   N550    1.368   .     A
C501   C503    1.417   .     A
C501   H537    1.082   .     S
C502   C504    1.417   .     A
C502   H538    1.082   .     S
C502   N549    1.368   .     A
C503   H539    1.082   .     S
C503   N549    1.367   .     A
C504   N550    1.367   .     A
C504   H540    1.082   .     S
C505   C507    1.466   .     S
C505   O557    1.294   .     A
C505   O431    1.296   1_655 S
C506   O558    1.294   .     A
C506   C509    1.466   .     S
C507   C514    1.398   .     A
C507   C512    1.398   .     A
C508   O552    1.290   .     A
C508   O430    1.293   1_655 S
C509   C513    1.398   .     A
C509   C515    1.398   .     A
C510   C518    1.404   .     A
C510   C512    1.391   .     A
C510   H546    1.083   .     S
C511   C520    1.404   .     A
C511   H547    1.083   .     S
C511   C513    1.391   .     A
C512   H421    1.083   1_655 S
C514   H543    1.073   .     S
C514   C516    1.406   .     A
C515   H542    1.073   .     S
C515   C517    1.406   .     A
C516   C518    1.419   .     A
C516   C521    1.429   .     A
C517   C522    1.429   .     A
C517   C520    1.419   .     A
C518   C1082   1.389   .     S
C519   C524    1.385   .     A
C519   H548    1.075   .     S
C519   C522    1.418   .     A
C520   C1083   1.389   1_554 S
C521   C523    1.418   .     A
C521   C1080   1.427   .     S
C522   C1079   1.427   1_554 S
C523   C525    1.385   .     A
C523   H534    1.075   .     S
C524   H533    1.084   .     S
C524   C1076   1.389   1_554 S
C525   H541    1.084   .     S
C525   C1078   1.389   .     S
C526   H535    1.084   .     S
C526   C376    1.401   1_655 S
C527   H536    1.084   .     S
C527   C126    1.383   1_565 S
C528   F531    1.358   .     S
C528   C154    1.383   1_565 S
Cu529  O551    1.968   .     S
Cu529  O554    1.966   .     S
Cu529  O555    1.961   .     S
Cu529  N549    2.012   .     S
Cu529  O558    1.947   .     S
Cu530  O553    1.966   .     S
Cu530  O552    1.968   .     S
Cu530  O556    1.961   .     S
Cu530  N550    2.012   .     S
Cu530  O557    1.947   .     S
Cu530  Cu405   2.678   1_655 S
H544   C389    1.083   1_655 S
O553   C373    1.293   1_655 S
O556   C382    1.296   1_655 S
C559   C562    1.452   .     S
C559   O613    1.290   .     A
C559   O739    1.293   1_455 S
C560   C562    1.405   .     A
C560   F594    1.358   .     S
C560   C961    1.383   1_545 S
C561   C590    1.405   .     A
C561   C570    1.452   .     S
C561   C651    1.401   .     S
C562   C712    1.401   1_455 S
C563   N612    1.368   .     A
C563   C565    1.417   .     A
C563   H599    1.082   .     S
C564   C566    1.417   .     A
C564   H600    1.082   .     S
C564   N611    1.368   .     A
C565   H601    1.082   .     S
C565   N611    1.367   .     A
C566   N612    1.367   .     A
C566   H602    1.082   .     S
C567   C569    1.466   .     S
C567   O619    1.294   .     A
C567   O679    1.296   .     S
C568   O620    1.294   .     A
C568   C571    1.466   .     S
C568   O742    1.296   1_455 S
C569   C576    1.398   .     A
C569   C574    1.398   .     A
C570   O614    1.290   .     A
C570   O678    1.293   .     S
C571   C575    1.398   .     A
C571   C577    1.398   .     A
C572   C580    1.404   .     A
C572   C574    1.391   .     A
C572   H608    1.083   .     S
C573   C582    1.404   .     A
C573   H609    1.083   .     S
C573   C575    1.391   .     A
C574   H669    1.083   .     S
C575   H730    1.083   1_455 S
C576   H605    1.073   .     S
C576   C578    1.406   .     A
C577   H604    1.073   .     S
C577   C579    1.406   .     A
C578   C580    1.419   .     A
C578   C583    1.429   .     A
C579   C584    1.429   .     A
C579   C582    1.419   .     A
C580   C28     1.389   1_556 S
C581   C586    1.385   .     A
C581   H610    1.075   .     S
C581   C584    1.418   .     A
C583   C585    1.418   .     A
C583   C26     1.427   1_556 S
C585   C587    1.385   .     A
C585   H596    1.075   .     S
C586   H595    1.084   .     S
C587   H603    1.084   .     S
C587   C24     1.389   1_556 S
C588   H597    1.084   .     S
C588   C624    1.401   .     S
C588   C962    1.383   1_545 S
C589   H598    1.084   .     S
C589   C685    1.401   1_455 S
C589   C746    1.383   .     S
C590   F593    1.358   .     S
C590   C774    1.383   .     S
Cu591  O613    1.968   .     S
Cu591  O616    1.966   .     S
Cu591  O617    1.961   .     S
Cu591  N611    2.012   .     S
Cu591  O620    1.947   .     S
Cu591  Cu716   2.678   1_455 S
Cu592  O615    1.966   .     S
Cu592  O614    1.968   .     S
Cu592  O618    1.961   .     S
Cu592  N612    2.012   .     S
Cu592  O619    1.947   .     S
Cu592  Cu653   2.678   .     S
H606   C637    1.083   .     S
H607   C698    1.083   1_455 S
O615   C621    1.293   .     S
O616   C694    1.293   1_455 S
O617   C691    1.296   1_455 S
O618   C630    1.296   .     S
C621   C624    1.452   .     S
C621   O675    1.290   .     A
C622   C624    1.405   .     A
C622   F656    1.358   .     S
C622   C1023   1.383   1_545 S
C623   C652    1.405   .     A
C623   C632    1.452   .     S
C623   C713    1.401   .     S
C625   N674    1.368   .     A
C625   C627    1.417   .     A
C625   H661    1.082   .     S
C626   C628    1.417   .     A
C626   H662    1.082   .     S
C626   N673    1.368   .     A
C627   H663    1.082   .     S
C627   N673    1.367   .     A
C628   N674    1.367   .     A
C628   H664    1.082   .     S
C629   C631    1.466   .     S
C629   O681    1.294   .     A
C629   O741    1.296   .     S
C630   O682    1.294   .     A
C630   C633    1.466   .     S
C631   C638    1.398   .     A
C631   C636    1.398   .     A
C632   O676    1.290   .     A
C632   O740    1.293   .     S
C633   C637    1.398   .     A
C633   C639    1.398   .     A
C634   C642    1.404   .     A
C634   C636    1.391   .     A
C634   H670    1.083   .     S
C635   C644    1.404   .     A
C635   H671    1.083   .     S
C635   C637    1.391   .     A
C636   H731    1.083   .     S
C638   H667    1.073   .     S
C638   C640    1.406   .     A
C639   H666    1.073   .     S
C639   C641    1.406   .     A
C640   C642    1.419   .     A
C640   C645    1.429   .     A
C641   C646    1.429   .     A
C641   C644    1.419   .     A
C642   C90     1.389   1_556 S
C643   C648    1.385   .     A
C643   H672    1.075   .     S
C643   C646    1.418   .     A
C645   C647    1.418   .     A
C645   C88     1.427   1_556 S
C647   C649    1.385   .     A
C647   H658    1.075   .     S
C648   H657    1.084   .     S
C649   H665    1.084   .     S
C649   C86     1.389   1_556 S
C650   H659    1.084   .     S
C650   C686    1.401   .     S
C650   C1024   1.383   1_545 S
C651   H660    1.084   .     S
C651   C808    1.383   .     S
C652   F655    1.358   .     S
C652   C836    1.383   .     S
Cu653  O675    1.968   .     S
Cu653  O678    1.966   .     S
Cu653  O679    1.961   .     S
Cu653  N673    2.012   .     S
Cu653  O682    1.947   .     S
Cu654  O677    1.966   .     S
Cu654  O676    1.968   .     S
Cu654  O680    1.961   .     S
Cu654  N674    2.012   .     S
Cu654  O681    1.947   .     S
Cu654  Cu715   2.678   .     S
H668   C699    1.083   .     S
O677   C683    1.293   .     S
O680   C692    1.296   .     S
C683   C686    1.452   .     S
C683   O737    1.290   .     A
C684   C686    1.405   .     A
C684   F718    1.358   .     S
C684   C1085   1.383   1_545 S
C685   C714    1.405   .     A
C685   C694    1.452   .     S
C685   C589    1.401   1_655 S
C687   N736    1.368   .     A
C687   C689    1.417   .     A
C687   H723    1.082   .     S
C688   C690    1.417   .     A
C688   H724    1.082   .     S
C688   N735    1.368   .     A
C689   H725    1.082   .     S
C689   N735    1.367   .     A
C690   N736    1.367   .     A
C690   H726    1.082   .     S
C691   C693    1.466   .     S
C691   O743    1.294   .     A
C691   O617    1.296   1_655 S
C692   O744    1.294   .     A
C692   C695    1.466   .     S
C693   C700    1.398   .     A
C693   C698    1.398   .     A
C694   O738    1.290   .     A
C694   O616    1.293   1_655 S
C695   C699    1.398   .     A
C695   C701    1.398   .     A
C696   C704    1.404   .     A
C696   C698    1.391   .     A
C696   H732    1.083   .     S
C697   C706    1.404   .     A
C697   H733    1.083   .     S
C697   C699    1.391   .     A
C698   H607    1.083   1_655 S
C700   H729    1.073   .     S
C700   C702    1.406   .     A
C701   H728    1.073   .     S
C701   C703    1.406   .     A
C702   C704    1.419   .     A
C702   C707    1.429   .     A
C703   C708    1.429   .     A
C703   C706    1.419   .     A
C704   C152    1.389   1_556 S
C705   C710    1.385   .     A
C705   H734    1.075   .     S
C705   C708    1.418   .     A
C707   C709    1.418   .     A
C707   C150    1.427   1_556 S
C709   C711    1.385   .     A
C709   H720    1.075   .     S
C710   H719    1.084   .     S
C711   H727    1.084   .     S
C711   C148    1.389   1_556 S
C712   H721    1.084   .     S
C712   C562    1.401   1_655 S
C712   C1086   1.383   1_545 S
C713   H722    1.084   .     S
C713   C870    1.383   .     S
C714   F717    1.358   .     S
C714   C898    1.383   .     S
Cu715  O737    1.968   .     S
Cu715  O740    1.966   .     S
Cu715  O741    1.961   .     S
Cu715  N735    2.012   .     S
Cu715  O744    1.947   .     S
Cu716  O739    1.966   .     S
Cu716  O738    1.968   .     S
Cu716  O742    1.961   .     S
Cu716  N736    2.012   .     S
Cu716  O743    1.947   .     S
Cu716  Cu591   2.678   1_655 S
H730   C575    1.083   1_655 S
O739   C559    1.293   1_655 S
O742   C568    1.296   1_655 S
C745   C748    1.452   .     S
C745   O799    1.290   .     A
C745   O925    1.293   1_455 S
C746   C748    1.405   .     A
C746   F780    1.358   .     S
C747   C776    1.405   .     A
C747   C756    1.452   .     S
C747   C837    1.401   .     S
C748   C898    1.401   1_455 S
C749   N798    1.368   .     A
C749   C751    1.417   .     A
C749   H785    1.082   .     S
C750   C752    1.417   .     A
C750   H786    1.082   .     S
C750   N797    1.368   .     A
C751   H787    1.082   .     S
C751   N797    1.367   .     A
C752   N798    1.367   .     A
C752   H788    1.082   .     S
C753   C755    1.466   .     S
C753   O805    1.294   .     A
C753   O865    1.296   .     S
C754   O806    1.294   .     A
C754   C757    1.466   .     S
C754   O928    1.296   1_455 S
C755   C762    1.398   .     A
C755   C760    1.398   .     A
C756   O800    1.290   .     A
C756   O864    1.293   .     S
C757   C761    1.398   .     A
C757   C763    1.398   .     A
C758   C766    1.404   .     A
C758   C760    1.391   .     A
C758   H794    1.083   .     S
C759   C768    1.404   .     A
C759   H795    1.083   .     S
C759   C761    1.391   .     A
C760   H855    1.083   .     S
C761   H916    1.083   1_455 S
C762   H791    1.073   .     S
C762   C764    1.406   .     A
C763   H790    1.073   .     S
C763   C765    1.406   .     A
C764   C766    1.419   .     A
C764   C769    1.429   .     A
C765   C770    1.429   .     A
C765   C768    1.419   .     A
C766   C214    1.389   1_556 S
C767   C772    1.385   .     A
C767   H796    1.075   .     S
C767   C770    1.418   .     A
C769   C771    1.418   .     A
C769   C212    1.427   1_556 S
C771   C773    1.385   .     A
C771   H782    1.075   .     S
C772   H781    1.084   .     S
C773   H789    1.084   .     S
C773   C210    1.389   1_556 S
C774   H783    1.084   .     S
C774   C810    1.401   .     S
C775   H784    1.084   .     S
C775   C871    1.401   1_455 S
C775   C932    1.383   .     S
C776   F779    1.358   .     S
C776   C960    1.383   .     S
Cu777  O799    1.968   .     S
Cu777  O802    1.966   .     S
Cu777  O803    1.961   .     S
Cu777  N797    2.012   .     S
Cu777  O806    1.947   .     S
Cu777  Cu902   2.678   1_455 S
Cu778  O801    1.966   .     S
Cu778  O800    1.968   .     S
Cu778  O804    1.961   .     S
Cu778  N798    2.012   .     S
Cu778  O805    1.947   .     S
Cu778  Cu839   2.678   .     S
H792   C823    1.083   .     S
H793   C884    1.083   1_455 S
O801   C807    1.293   .     S
O802   C880    1.293   1_455 S
O803   C877    1.296   1_455 S
O804   C816    1.296   .     S
C807   C810    1.452   .     S
C807   O861    1.290   .     A
C808   C810    1.405   .     A
C808   F842    1.358   .     S
C809   C838    1.405   .     A
C809   C818    1.452   .     S
C809   C899    1.401   .     S
C811   N860    1.368   .     A
C811   C813    1.417   .     A
C811   H847    1.082   .     S
C812   C814    1.417   .     A
C812   H848    1.082   .     S
C812   N859    1.368   .     A
C813   H849    1.082   .     S
C813   N859    1.367   .     A
C814   N860    1.367   .     A
C814   H850    1.082   .     S
C815   C817    1.466   .     S
C815   O867    1.294   .     A
C815   O927    1.296   .     S
C816   O868    1.294   .     A
C816   C819    1.466   .     S
C817   C824    1.398   .     A
C817   C822    1.398   .     A
C818   O862    1.290   .     A
C818   O926    1.293   .     S
C819   C823    1.398   .     A
C819   C825    1.398   .     A
C820   C828    1.404   .     A
C820   C822    1.391   .     A
C820   H856    1.083   .     S
C821   C830    1.404   .     A
C821   H857    1.083   .     S
C821   C823    1.391   .     A
C822   H917    1.083   .     S
C824   H853    1.073   .     S
C824   C826    1.406   .     A
C825   H852    1.073   .     S
C825   C827    1.406   .     A
C826   C828    1.419   .     A
C826   C831    1.429   .     A
C827   C832    1.429   .     A
C827   C830    1.419   .     A
C828   C276    1.389   1_556 S
C829   C834    1.385   .     A
C829   H858    1.075   .     S
C829   C832    1.418   .     A
C831   C833    1.418   .     A
C831   C274    1.427   1_556 S
C833   C835    1.385   .     A
C833   H844    1.075   .     S
C834   H843    1.084   .     S
C835   H851    1.084   .     S
C835   C272    1.389   1_556 S
C836   H845    1.084   .     S
C836   C872    1.401   .     S
C837   H846    1.084   .     S
C837   C994    1.383   .     S
C838   F841    1.358   .     S
C838   C1022   1.383   .     S
Cu839  O861    1.968   .     S
Cu839  O864    1.966   .     S
Cu839  O865    1.961   .     S
Cu839  N859    2.012   .     S
Cu839  O868    1.947   .     S
Cu840  O863    1.966   .     S
Cu840  O862    1.968   .     S
Cu840  O866    1.961   .     S
Cu840  N860    2.012   .     S
Cu840  O867    1.947   .     S
Cu840  Cu901   2.678   .     S
H854   C885    1.083   .     S
O863   C869    1.293   .     S
O866   C878    1.296   .     S
C869   C872    1.452   .     S
C869   O923    1.290   .     A
C870   C872    1.405   .     A
C870   F904    1.358   .     S
C871   C900    1.405   .     A
C871   C880    1.452   .     S
C871   C775    1.401   1_655 S
C873   N922    1.368   .     A
C873   C875    1.417   .     A
C873   H909    1.082   .     S
C874   C876    1.417   .     A
C874   H910    1.082   .     S
C874   N921    1.368   .     A
C875   H911    1.082   .     S
C875   N921    1.367   .     A
C876   N922    1.367   .     A
C876   H912    1.082   .     S
C877   C879    1.466   .     S
C877   O929    1.294   .     A
C877   O803    1.296   1_655 S
C878   O930    1.294   .     A
C878   C881    1.466   .     S
C879   C886    1.398   .     A
C879   C884    1.398   .     A
C880   O924    1.290   .     A
C880   O802    1.293   1_655 S
C881   C885    1.398   .     A
C881   C887    1.398   .     A
C882   C890    1.404   .     A
C882   C884    1.391   .     A
C882   H918    1.083   .     S
C883   C892    1.404   .     A
C883   H919    1.083   .     S
C883   C885    1.391   .     A
C884   H793    1.083   1_655 S
C886   H915    1.073   .     S
C886   C888    1.406   .     A
C887   H914    1.073   .     S
C887   C889    1.406   .     A
C888   C890    1.419   .     A
C888   C893    1.429   .     A
C889   C894    1.429   .     A
C889   C892    1.419   .     A
C890   C338    1.389   1_556 S
C891   C896    1.385   .     A
C891   H920    1.075   .     S
C891   C894    1.418   .     A
C893   C895    1.418   .     A
C893   C336    1.427   1_556 S
C895   C897    1.385   .     A
C895   H906    1.075   .     S
C896   H905    1.084   .     S
C897   H913    1.084   .     S
C897   C334    1.389   1_556 S
C898   H907    1.084   .     S
C898   C748    1.401   1_655 S
C899   H908    1.084   .     S
C899   C1056   1.383   .     S
C900   F903    1.358   .     S
C900   C1084   1.383   .     S
Cu901  O923    1.968   .     S
Cu901  O926    1.966   .     S
Cu901  O927    1.961   .     S
Cu901  N921    2.012   .     S
Cu901  O930    1.947   .     S
Cu902  O925    1.966   .     S
Cu902  O924    1.968   .     S
Cu902  O928    1.961   .     S
Cu902  N922    2.012   .     S
Cu902  O929    1.947   .     S
Cu902  Cu777   2.678   1_655 S
H916   C761    1.083   1_655 S
O925   C745    1.293   1_655 S
O928   C754    1.296   1_655 S
C931   C934    1.452   .     S
C931   O985    1.290   .     A
C931   O1111   1.293   1_455 S
C932   C934    1.405   .     A
C932   F966    1.358   .     S
C933   C962    1.405   .     A
C933   C942    1.452   .     S
C933   C1023   1.401   .     S
C934   C1084   1.401   1_455 S
C935   N984    1.368   .     A
C935   C937    1.417   .     A
C935   H971    1.082   .     S
C936   C938    1.417   .     A
C936   H972    1.082   .     S
C936   N983    1.368   .     A
C937   H973    1.082   .     S
C937   N983    1.367   .     A
C938   N984    1.367   .     A
C938   H974    1.082   .     S
C939   C941    1.466   .     S
C939   O991    1.294   .     A
C939   O1051   1.296   .     S
C940   O992    1.294   .     A
C940   C943    1.466   .     S
C940   O1114   1.296   1_455 S
C941   C948    1.398   .     A
C941   C946    1.398   .     A
C942   O986    1.290   .     A
C942   O1050   1.293   .     S
C943   C947    1.398   .     A
C943   C949    1.398   .     A
C944   C952    1.404   .     A
C944   C946    1.391   .     A
C944   H980    1.083   .     S
C945   C954    1.404   .     A
C945   H981    1.083   .     S
C945   C947    1.391   .     A
C946   H1041   1.083   .     S
C947   H1102   1.083   1_455 S
C948   H977    1.073   .     S
C948   C950    1.406   .     A
C949   H976    1.073   .     S
C949   C951    1.406   .     A
C950   C952    1.419   .     A
C950   C955    1.429   .     A
C951   C956    1.429   .     A
C951   C954    1.419   .     A
C952   C400    1.389   1_556 S
C953   C958    1.385   .     A
C953   H982    1.075   .     S
C953   C956    1.418   .     A
C955   C957    1.418   .     A
C955   C398    1.427   1_556 S
C957   C959    1.385   .     A
C957   H968    1.075   .     S
C958   H967    1.084   .     S
C959   H975    1.084   .     S
C959   C396    1.389   1_556 S
C960   H969    1.084   .     S
C960   C996    1.401   .     S
C961   H970    1.084   .     S
C961   C1057   1.401   1_455 S
C961   C560    1.383   1_565 S
C962   F965    1.358   .     S
C962   C588    1.383   1_565 S
Cu963  O985    1.968   .     S
Cu963  O988    1.966   .     S
Cu963  O989    1.961   .     S
Cu963  N983    2.012   .     S
Cu963  O992    1.947   .     S
Cu963  Cu1088  2.678   1_455 S
Cu964  O987    1.966   .     S
Cu964  O986    1.968   .     S
Cu964  O990    1.961   .     S
Cu964  N984    2.012   .     S
Cu964  O991    1.947   .     S
Cu964  Cu1025  2.678   .     S
H978   C1009   1.083   .     S
H979   C1070   1.083   1_455 S
O987   C993    1.293   .     S
O988   C1066   1.293   1_455 S
O989   C1063   1.296   1_455 S
O990   C1002   1.296   .     S
C993   C996    1.452   .     S
C993   O1047   1.290   .     A
C994   C996    1.405   .     A
C994   F1028   1.358   .     S
C995   C1024   1.405   .     A
C995   C1004   1.452   .     S
C995   C1085   1.401   .     S
C997   N1046   1.368   .     A
C997   C999    1.417   .     A
C997   H1033   1.082   .     S
C998   C1000   1.417   .     A
C998   H1034   1.082   .     S
C998   N1045   1.368   .     A
C999   H1035   1.082   .     S
C999   N1045   1.367   .     A
C1000  N1046   1.367   .     A
C1000  H1036   1.082   .     S
C1001  C1003   1.466   .     S
C1001  O1053   1.294   .     A
C1001  O1113   1.296   .     S
C1002  O1054   1.294   .     A
C1002  C1005   1.466   .     S
C1003  C1010   1.398   .     A
C1003  C1008   1.398   .     A
C1004  O1048   1.290   .     A
C1004  O1112   1.293   .     S
C1005  C1009   1.398   .     A
C1005  C1011   1.398   .     A
C1006  C1014   1.404   .     A
C1006  C1008   1.391   .     A
C1006  H1042   1.083   .     S
C1007  C1016   1.404   .     A
C1007  H1043   1.083   .     S
C1007  C1009   1.391   .     A
C1008  H1103   1.083   .     S
C1010  H1039   1.073   .     S
C1010  C1012   1.406   .     A
C1011  H1038   1.073   .     S
C1011  C1013   1.406   .     A
C1012  C1014   1.419   .     A
C1012  C1017   1.429   .     A
C1013  C1018   1.429   .     A
C1013  C1016   1.419   .     A
C1014  C462    1.389   1_556 S
C1015  C1020   1.385   .     A
C1015  H1044   1.075   .     S
C1015  C1018   1.418   .     A
C1017  C1019   1.418   .     A
C1017  C460    1.427   1_556 S
C1019  C1021   1.385   .     A
C1019  H1030   1.075   .     S
C1020  H1029   1.084   .     S
C1021  H1037   1.084   .     S
C1021  C458    1.389   1_556 S
C1022  H1031   1.084   .     S
C1022  C1058   1.401   .     S
C1023  H1032   1.084   .     S
C1023  C622    1.383   1_565 S
C1024  F1027   1.358   .     S
C1024  C650    1.383   1_565 S
Cu1025 O1047   1.968   .     S
Cu1025 O1050   1.966   .     S
Cu1025 O1051   1.961   .     S
Cu1025 N1045   2.012   .     S
Cu1025 O1054   1.947   .     S
Cu1026 O1049   1.966   .     S
Cu1026 O1048   1.968   .     S
Cu1026 O1052   1.961   .     S
Cu1026 N1046   2.012   .     S
Cu1026 O1053   1.947   .     S
Cu1026 Cu1087  2.678   .     S
H1040  C1071   1.083   .     S
O1049  C1055   1.293   .     S
O1052  C1064   1.296   .     S
C1055  C1058   1.452   .     S
C1055  O1109   1.290   .     A
C1056  C1058   1.405   .     A
C1056  F1090   1.358   .     S
C1057  C1086   1.405   .     A
C1057  C1066   1.452   .     S
C1057  C961    1.401   1_655 S
C1059  N1108   1.368   .     A
C1059  C1061   1.417   .     A
C1059  H1095   1.082   .     S
C1060  C1062   1.417   .     A
C1060  H1096   1.082   .     S
C1060  N1107   1.368   .     A
C1061  H1097   1.082   .     S
C1061  N1107   1.367   .     A
C1062  N1108   1.367   .     A
C1062  H1098   1.082   .     S
C1063  C1065   1.466   .     S
C1063  O1115   1.294   .     A
C1063  O989    1.296   1_655 S
C1064  O1116   1.294   .     A
C1064  C1067   1.466   .     S
C1065  C1072   1.398   .     A
C1065  C1070   1.398   .     A
C1066  O1110   1.290   .     A
C1066  O988    1.293   1_655 S
C1067  C1071   1.398   .     A
C1067  C1073   1.398   .     A
C1068  C1076   1.404   .     A
C1068  C1070   1.391   .     A
C1068  H1104   1.083   .     S
C1069  C1078   1.404   .     A
C1069  H1105   1.083   .     S
C1069  C1071   1.391   .     A
C1070  H979    1.083   1_655 S
C1072  H1101   1.073   .     S
C1072  C1074   1.406   .     A
C1073  H1100   1.073   .     S
C1073  C1075   1.406   .     A
C1074  C1076   1.419   .     A
C1074  C1079   1.429   .     A
C1075  C1080   1.429   .     A
C1075  C1078   1.419   .     A
C1076  C524    1.389   1_556 S
C1077  C1082   1.385   .     A
C1077  H1106   1.075   .     S
C1077  C1080   1.418   .     A
C1079  C1081   1.418   .     A
C1079  C522    1.427   1_556 S
C1081  C1083   1.385   .     A
C1081  H1092   1.075   .     S
C1082  H1091   1.084   .     S
C1083  H1099   1.084   .     S
C1083  C520    1.389   1_556 S
C1084  H1093   1.084   .     S
C1084  C934    1.401   1_655 S
C1085  H1094   1.084   .     S
C1085  C684    1.383   1_565 S
C1086  F1089   1.358   .     S
C1086  C712    1.383   1_565 S
Cu1087 O1109   1.968   .     S
Cu1087 O1112   1.966   .     S
Cu1087 O1113   1.961   .     S
Cu1087 N1107   2.012   .     S
Cu1087 O1116   1.947   .     S
Cu1088 O1111   1.966   .     S
Cu1088 O1110   1.968   .     S
Cu1088 O1114   1.961   .     S
Cu1088 N1108   2.012   .     S
Cu1088 O1115   1.947   .     S
Cu1088 Cu963   2.678   1_655 S
H1102  C947    1.083   1_655 S
O1111  C931    1.293   1_655 S
O1114  C940    1.296   1_655 S
