data_str_m2_o10_o18_pcu_sym.46
_audit_creation_date              2020-01-03
_audit_creation_method            'Materials Studio'
_symmetry_space_group_name_H-M    'P1'
_symmetry_Int_Tables_number       1
_symmetry_cell_setting            triclinic
loop_
_symmetry_equiv_pos_as_xyz
  x,y,z
_cell_length_a                    22.3183
_cell_length_b                    26.2019
_cell_length_c                    31.8628
_cell_angle_alpha                 94.9052
_cell_angle_beta                  75.4883
_cell_angle_gamma                 103.2749
loop_
_atom_site_label
_atom_site_type_symbol
_atom_site_fract_x
_atom_site_fract_y
_atom_site_fract_z
_atom_site_U_iso_or_equiv
_atom_site_adp_type
_atom_site_occupancy
C1     C     0.18163   0.26662   0.25132   0.00000  Uiso   1.00
C2     C     0.20487   0.16977   0.16694   0.00000  Uiso   1.00
C3     C     0.10620   0.15968   0.38051   0.00000  Uiso   1.00
C4     C     0.22713   0.17365   0.11949   0.00000  Uiso   1.00
C5     C     0.02448   0.12559   0.44300   0.00000  Uiso   1.00
C6     C     0.30884   0.20774   0.05700   0.00000  Uiso   1.00
C7     C     0.04255   0.13881   0.39958   0.00000  Uiso   1.00
C8     C     0.29078   0.19452   0.10042   0.00000  Uiso   1.00
C9     C     0.15064   0.17239   0.40646   0.00000  Uiso   1.00
C10    C     0.18269   0.16093   0.09354   0.00000  Uiso   1.00
C11    C     0.13215   0.16335   0.45134   0.00000  Uiso   1.00
C12    C     0.15170   0.06671   0.24868   0.00000  Uiso   1.00
C13    C     0.20118   0.16998   0.04866   0.00000  Uiso   1.00
C14    C     0.06930   0.13538   0.46839   0.00000  Uiso   1.00
C15    C     0.26403   0.19795   0.03161   0.00000  Uiso   1.00
C16    C     0.17541   0.17716   0.47894   0.00000  Uiso   1.00
C17    C     0.15792   0.15617   0.02106   0.00000  Uiso   1.00
C18    C     0.09827   0.12139   0.03377   0.00000  Uiso   1.00
C19    C     0.23506   0.21194   0.46623   0.00000  Uiso   1.00
C20    C     0.05337   0.11410   0.00935   0.00000  Uiso   1.00
C21    C     0.27996   0.21924   0.49065   0.00000  Uiso   1.00
C22    C     0.19012   0.32236   0.25198   0.00000  Uiso   1.00
C23    C     0.14321   0.01097   0.24802   0.00000  Uiso   1.00
C24    C     0.12847   0.16356   0.33306   0.00000  Uiso   1.00
Cu25   Cu    0.10737   0.16108   0.24516   0.00000  Uiso   1.00
Cu26   Cu    0.22596   0.17225   0.25484   0.00000  Uiso   1.00
F27    F     0.32870   0.08296   0.02474   0.00000  Uiso   1.00
F28    F     0.00462   0.25038   0.47526   0.00000  Uiso   1.00
F29    F     0.12036   0.14606   0.11337   0.00000  Uiso   1.00
F30    F     0.21297   0.18725   0.38663   0.00000  Uiso   1.00
F31    F     0.24729   0.01798   0.25675   0.00000  Uiso   1.00
F32    F     0.08604   0.31535   0.24325   0.00000  Uiso   1.00
F33    F     0.00367   0.20847   0.29431   0.00000  Uiso   1.00
F34    F     0.32967   0.12486   0.20569   0.00000  Uiso   1.00
H35    H     0.32570   0.20421   0.11973   0.00000  Uiso   1.00
H36    H     0.00763   0.12913   0.38027   0.00000  Uiso   1.00
H37    H     0.30913   0.10593   0.45623   0.00000  Uiso   1.00
H38    H     0.02420   0.22740   0.04377   0.00000  Uiso   1.00
H39    H     0.08530   0.09770   0.06196   0.00000  Uiso   1.00
H40    H     0.24803   0.23563   0.43804   0.00000  Uiso   1.00
N41    N     0.31506   0.18068   0.26212   0.00000  Uiso   1.00
N42    N     0.01827   0.15265   0.23788   0.00000  Uiso   1.00
O43    O     0.12815   0.23809   0.24686   0.00000  Uiso   1.00
O44    O     0.20518   0.09524   0.25314   0.00000  Uiso   1.00
O45    O     0.22829   0.24753   0.25503   0.00000  Uiso   1.00
O46    O     0.10504   0.08580   0.24497   0.00000  Uiso   1.00
O47    O     0.08851   0.15930   0.30854   0.00000  Uiso   1.00
O48    O     0.24482   0.17403   0.19146   0.00000  Uiso   1.00
O49    O     0.18866   0.16874   0.31671   0.00000  Uiso   1.00
O50    O     0.14468   0.16460   0.18329   0.00000  Uiso   1.00
C51    C     0.51496   0.26662   0.25132   0.00000  Uiso   1.00
C52    C     0.53820   0.16977   0.16694   0.00000  Uiso   1.00
C53    C     0.43954   0.15968   0.38051   0.00000  Uiso   1.00
C54    C     0.56046   0.17365   0.11949   0.00000  Uiso   1.00
C55    C     0.35782   0.12559   0.44300   0.00000  Uiso   1.00
C56    C     0.64218   0.20774   0.05700   0.00000  Uiso   1.00
C57    C     0.37588   0.13881   0.39958   0.00000  Uiso   1.00
C58    C     0.62412   0.19452   0.10042   0.00000  Uiso   1.00
C59    C     0.48397   0.17239   0.40646   0.00000  Uiso   1.00
C60    C     0.51603   0.16093   0.09354   0.00000  Uiso   1.00
C61    C     0.46548   0.16335   0.45134   0.00000  Uiso   1.00
C62    C     0.48504   0.06671   0.24868   0.00000  Uiso   1.00
C63    C     0.53452   0.16998   0.04866   0.00000  Uiso   1.00
C64    C     0.40263   0.13538   0.46839   0.00000  Uiso   1.00
C65    C     0.59736   0.19795   0.03161   0.00000  Uiso   1.00
C66    C     0.50875   0.17716   0.47894   0.00000  Uiso   1.00
C67    C     0.49125   0.15617   0.02106   0.00000  Uiso   1.00
C68    C     0.43160   0.12139   0.03377   0.00000  Uiso   1.00
C69    C     0.56839   0.21194   0.46623   0.00000  Uiso   1.00
C70    C     0.38670   0.11410   0.00935   0.00000  Uiso   1.00
C71    C     0.61329   0.21924   0.49065   0.00000  Uiso   1.00
C72    C     0.52345   0.32236   0.25198   0.00000  Uiso   1.00
C73    C     0.47655   0.01097   0.24802   0.00000  Uiso   1.00
C74    C     0.46180   0.16356   0.33306   0.00000  Uiso   1.00
Cu75   Cu    0.44071   0.16108   0.24516   0.00000  Uiso   1.00
Cu76   Cu    0.55929   0.17225   0.25484   0.00000  Uiso   1.00
F77    F     0.66203   0.08296   0.02474   0.00000  Uiso   1.00
F78    F     0.33796   0.25038   0.47526   0.00000  Uiso   1.00
F79    F     0.45370   0.14606   0.11337   0.00000  Uiso   1.00
F80    F     0.54631   0.18725   0.38663   0.00000  Uiso   1.00
F81    F     0.58063   0.01798   0.25675   0.00000  Uiso   1.00
F82    F     0.41937   0.31535   0.24325   0.00000  Uiso   1.00
F83    F     0.33700   0.20847   0.29431   0.00000  Uiso   1.00
F84    F     0.66300   0.12486   0.20569   0.00000  Uiso   1.00
H85    H     0.65903   0.20421   0.11973   0.00000  Uiso   1.00
H86    H     0.34096   0.12913   0.38027   0.00000  Uiso   1.00
H87    H     0.64246   0.10593   0.45623   0.00000  Uiso   1.00
H88    H     0.35753   0.22740   0.04377   0.00000  Uiso   1.00
H89    H     0.41863   0.09770   0.06196   0.00000  Uiso   1.00
H90    H     0.58136   0.23563   0.43804   0.00000  Uiso   1.00
N91    N     0.64839   0.18068   0.26212   0.00000  Uiso   1.00
N92    N     0.35161   0.15265   0.23788   0.00000  Uiso   1.00
O93    O     0.46148   0.23809   0.24686   0.00000  Uiso   1.00
O94    O     0.53852   0.09524   0.25314   0.00000  Uiso   1.00
O95    O     0.56163   0.24753   0.25503   0.00000  Uiso   1.00
O96    O     0.43837   0.08580   0.24497   0.00000  Uiso   1.00
O97    O     0.42185   0.15930   0.30854   0.00000  Uiso   1.00
O98    O     0.57815   0.17403   0.19146   0.00000  Uiso   1.00
O99    O     0.52199   0.16874   0.31671   0.00000  Uiso   1.00
O100   O     0.47801   0.16460   0.18329   0.00000  Uiso   1.00
C101   C     0.84830   0.26662   0.25132   0.00000  Uiso   1.00
C102   C     0.87153   0.16977   0.16694   0.00000  Uiso   1.00
C103   C     0.77287   0.15968   0.38051   0.00000  Uiso   1.00
C104   C     0.89380   0.17365   0.11949   0.00000  Uiso   1.00
C105   C     0.69115   0.12559   0.44300   0.00000  Uiso   1.00
C106   C     0.97551   0.20774   0.05700   0.00000  Uiso   1.00
C107   C     0.70922   0.13881   0.39958   0.00000  Uiso   1.00
C108   C     0.95745   0.19452   0.10042   0.00000  Uiso   1.00
C109   C     0.81731   0.17239   0.40646   0.00000  Uiso   1.00
C110   C     0.84936   0.16093   0.09354   0.00000  Uiso   1.00
C111   C     0.79881   0.16335   0.45134   0.00000  Uiso   1.00
C112   C     0.81837   0.06671   0.24868   0.00000  Uiso   1.00
C113   C     0.86785   0.16998   0.04866   0.00000  Uiso   1.00
C114   C     0.73597   0.13538   0.46839   0.00000  Uiso   1.00
C115   C     0.93069   0.19795   0.03161   0.00000  Uiso   1.00
C116   C     0.84208   0.17716   0.47894   0.00000  Uiso   1.00
C117   C     0.82458   0.15617   0.02106   0.00000  Uiso   1.00
C118   C     0.76494   0.12139   0.03377   0.00000  Uiso   1.00
C119   C     0.90172   0.21194   0.46623   0.00000  Uiso   1.00
C120   C     0.72004   0.11410   0.00935   0.00000  Uiso   1.00
C121   C     0.94662   0.21924   0.49065   0.00000  Uiso   1.00
C122   C     0.85679   0.32236   0.25198   0.00000  Uiso   1.00
C123   C     0.80988   0.01097   0.24802   0.00000  Uiso   1.00
C124   C     0.79513   0.16356   0.33306   0.00000  Uiso   1.00
Cu125  Cu    0.77404   0.16108   0.24516   0.00000  Uiso   1.00
Cu126  Cu    0.89263   0.17225   0.25484   0.00000  Uiso   1.00
F127   F     0.99537   0.08296   0.02474   0.00000  Uiso   1.00
F128   F     0.67129   0.25038   0.47526   0.00000  Uiso   1.00
F129   F     0.78703   0.14606   0.11337   0.00000  Uiso   1.00
F130   F     0.87964   0.18725   0.38663   0.00000  Uiso   1.00
F131   F     0.91396   0.01798   0.25675   0.00000  Uiso   1.00
F132   F     0.75271   0.31535   0.24325   0.00000  Uiso   1.00
F133   F     0.67033   0.20847   0.29431   0.00000  Uiso   1.00
F134   F     0.99633   0.12486   0.20569   0.00000  Uiso   1.00
H135   H     0.99237   0.20421   0.11973   0.00000  Uiso   1.00
H136   H     0.67430   0.12913   0.38027   0.00000  Uiso   1.00
H137   H     0.97580   0.10593   0.45623   0.00000  Uiso   1.00
H138   H     0.69086   0.22740   0.04377   0.00000  Uiso   1.00
H139   H     0.75196   0.09770   0.06196   0.00000  Uiso   1.00
H140   H     0.91469   0.23563   0.43804   0.00000  Uiso   1.00
N141   N     0.98173   0.18068   0.26212   0.00000  Uiso   1.00
N142   N     0.68494   0.15265   0.23788   0.00000  Uiso   1.00
O143   O     0.79482   0.23809   0.24686   0.00000  Uiso   1.00
O144   O     0.87185   0.09524   0.25314   0.00000  Uiso   1.00
O145   O     0.89496   0.24753   0.25503   0.00000  Uiso   1.00
O146   O     0.77171   0.08580   0.24497   0.00000  Uiso   1.00
O147   O     0.75518   0.15930   0.30854   0.00000  Uiso   1.00
O148   O     0.91149   0.17403   0.19146   0.00000  Uiso   1.00
O149   O     0.85532   0.16874   0.31671   0.00000  Uiso   1.00
O150   O     0.81134   0.16460   0.18329   0.00000  Uiso   1.00
C151   C     0.18163   0.59995   0.25132   0.00000  Uiso   1.00
C152   C     0.20487   0.50310   0.16694   0.00000  Uiso   1.00
C153   C     0.10620   0.49301   0.38051   0.00000  Uiso   1.00
C154   C     0.22713   0.50699   0.11949   0.00000  Uiso   1.00
C155   C     0.02448   0.45893   0.44300   0.00000  Uiso   1.00
C156   C     0.30884   0.54108   0.05700   0.00000  Uiso   1.00
C157   C     0.04255   0.47215   0.39958   0.00000  Uiso   1.00
C158   C     0.29078   0.52786   0.10042   0.00000  Uiso   1.00
C159   C     0.15064   0.50573   0.40646   0.00000  Uiso   1.00
C160   C     0.18269   0.49426   0.09354   0.00000  Uiso   1.00
C161   C     0.13215   0.49668   0.45134   0.00000  Uiso   1.00
C162   C     0.15170   0.40005   0.24868   0.00000  Uiso   1.00
C163   C     0.20118   0.50331   0.04866   0.00000  Uiso   1.00
C164   C     0.06930   0.46871   0.46839   0.00000  Uiso   1.00
C165   C     0.26403   0.53128   0.03161   0.00000  Uiso   1.00
C166   C     0.17541   0.51049   0.47894   0.00000  Uiso   1.00
C167   C     0.15792   0.48950   0.02106   0.00000  Uiso   1.00
C168   C     0.09827   0.45472   0.03377   0.00000  Uiso   1.00
C169   C     0.23506   0.54528   0.46623   0.00000  Uiso   1.00
C170   C     0.05337   0.44743   0.00935   0.00000  Uiso   1.00
C171   C     0.27996   0.55257   0.49065   0.00000  Uiso   1.00
C172   C     0.19012   0.65570   0.25198   0.00000  Uiso   1.00
C173   C     0.14321   0.34430   0.24802   0.00000  Uiso   1.00
C174   C     0.12847   0.49689   0.33306   0.00000  Uiso   1.00
Cu175  Cu    0.10737   0.49441   0.24516   0.00000  Uiso   1.00
Cu176  Cu    0.22596   0.50559   0.25484   0.00000  Uiso   1.00
F177   F     0.32870   0.41629   0.02474   0.00000  Uiso   1.00
F178   F     0.00462   0.58371   0.47526   0.00000  Uiso   1.00
F179   F     0.12036   0.47939   0.11337   0.00000  Uiso   1.00
F180   F     0.21297   0.52058   0.38663   0.00000  Uiso   1.00
F181   F     0.24729   0.35131   0.25675   0.00000  Uiso   1.00
F182   F     0.08604   0.64869   0.24325   0.00000  Uiso   1.00
F183   F     0.00367   0.54181   0.29431   0.00000  Uiso   1.00
F184   F     0.32967   0.45819   0.20569   0.00000  Uiso   1.00
H185   H     0.32570   0.53755   0.11973   0.00000  Uiso   1.00
H186   H     0.00763   0.46246   0.38027   0.00000  Uiso   1.00
H187   H     0.30913   0.43927   0.45623   0.00000  Uiso   1.00
H188   H     0.02420   0.56074   0.04377   0.00000  Uiso   1.00
H189   H     0.08530   0.43104   0.06196   0.00000  Uiso   1.00
H190   H     0.24803   0.56896   0.43804   0.00000  Uiso   1.00
N191   N     0.31506   0.51401   0.26212   0.00000  Uiso   1.00
N192   N     0.01827   0.48599   0.23788   0.00000  Uiso   1.00
O193   O     0.12815   0.57142   0.24686   0.00000  Uiso   1.00
O194   O     0.20518   0.42858   0.25314   0.00000  Uiso   1.00
O195   O     0.22829   0.58086   0.25503   0.00000  Uiso   1.00
O196   O     0.10504   0.41914   0.24497   0.00000  Uiso   1.00
O197   O     0.08851   0.49263   0.30854   0.00000  Uiso   1.00
O198   O     0.24482   0.50737   0.19146   0.00000  Uiso   1.00
O199   O     0.18866   0.50207   0.31671   0.00000  Uiso   1.00
O200   O     0.14468   0.49793   0.18329   0.00000  Uiso   1.00
C201   C     0.51496   0.59995   0.25132   0.00000  Uiso   1.00
C202   C     0.53820   0.50310   0.16694   0.00000  Uiso   1.00
C203   C     0.43954   0.49301   0.38051   0.00000  Uiso   1.00
C204   C     0.56046   0.50699   0.11949   0.00000  Uiso   1.00
C205   C     0.35782   0.45893   0.44300   0.00000  Uiso   1.00
C206   C     0.64218   0.54108   0.05700   0.00000  Uiso   1.00
C207   C     0.37588   0.47215   0.39958   0.00000  Uiso   1.00
C208   C     0.62412   0.52786   0.10042   0.00000  Uiso   1.00
C209   C     0.48397   0.50573   0.40646   0.00000  Uiso   1.00
C210   C     0.51603   0.49426   0.09354   0.00000  Uiso   1.00
C211   C     0.46548   0.49668   0.45134   0.00000  Uiso   1.00
C212   C     0.48504   0.40005   0.24868   0.00000  Uiso   1.00
C213   C     0.53452   0.50331   0.04866   0.00000  Uiso   1.00
C214   C     0.40263   0.46871   0.46839   0.00000  Uiso   1.00
C215   C     0.59736   0.53128   0.03161   0.00000  Uiso   1.00
C216   C     0.50875   0.51049   0.47894   0.00000  Uiso   1.00
C217   C     0.49125   0.48950   0.02106   0.00000  Uiso   1.00
C218   C     0.43160   0.45472   0.03377   0.00000  Uiso   1.00
C219   C     0.56839   0.54528   0.46623   0.00000  Uiso   1.00
C220   C     0.38670   0.44743   0.00935   0.00000  Uiso   1.00
C221   C     0.61329   0.55257   0.49065   0.00000  Uiso   1.00
C222   C     0.52345   0.65570   0.25198   0.00000  Uiso   1.00
C223   C     0.47655   0.34430   0.24802   0.00000  Uiso   1.00
C224   C     0.46180   0.49689   0.33306   0.00000  Uiso   1.00
Cu225  Cu    0.44071   0.49441   0.24516   0.00000  Uiso   1.00
Cu226  Cu    0.55929   0.50559   0.25484   0.00000  Uiso   1.00
F227   F     0.66203   0.41629   0.02474   0.00000  Uiso   1.00
F228   F     0.33796   0.58371   0.47526   0.00000  Uiso   1.00
F229   F     0.45370   0.47939   0.11337   0.00000  Uiso   1.00
F230   F     0.54631   0.52058   0.38663   0.00000  Uiso   1.00
F231   F     0.58063   0.35131   0.25675   0.00000  Uiso   1.00
F232   F     0.41937   0.64869   0.24325   0.00000  Uiso   1.00
F233   F     0.33700   0.54181   0.29431   0.00000  Uiso   1.00
F234   F     0.66300   0.45819   0.20569   0.00000  Uiso   1.00
H235   H     0.65903   0.53755   0.11973   0.00000  Uiso   1.00
H236   H     0.34096   0.46246   0.38027   0.00000  Uiso   1.00
H237   H     0.64246   0.43927   0.45623   0.00000  Uiso   1.00
H238   H     0.35753   0.56074   0.04377   0.00000  Uiso   1.00
H239   H     0.41863   0.43104   0.06196   0.00000  Uiso   1.00
H240   H     0.58136   0.56896   0.43804   0.00000  Uiso   1.00
N241   N     0.64839   0.51401   0.26212   0.00000  Uiso   1.00
N242   N     0.35161   0.48599   0.23788   0.00000  Uiso   1.00
O243   O     0.46148   0.57142   0.24686   0.00000  Uiso   1.00
O244   O     0.53852   0.42858   0.25314   0.00000  Uiso   1.00
O245   O     0.56163   0.58086   0.25503   0.00000  Uiso   1.00
O246   O     0.43837   0.41914   0.24497   0.00000  Uiso   1.00
O247   O     0.42185   0.49263   0.30854   0.00000  Uiso   1.00
O248   O     0.57815   0.50737   0.19146   0.00000  Uiso   1.00
O249   O     0.52199   0.50207   0.31671   0.00000  Uiso   1.00
O250   O     0.47801   0.49793   0.18329   0.00000  Uiso   1.00
C251   C     0.84830   0.59995   0.25132   0.00000  Uiso   1.00
C252   C     0.87153   0.50310   0.16694   0.00000  Uiso   1.00
C253   C     0.77287   0.49301   0.38051   0.00000  Uiso   1.00
C254   C     0.89380   0.50699   0.11949   0.00000  Uiso   1.00
C255   C     0.69115   0.45893   0.44300   0.00000  Uiso   1.00
C256   C     0.97551   0.54108   0.05700   0.00000  Uiso   1.00
C257   C     0.70922   0.47215   0.39958   0.00000  Uiso   1.00
C258   C     0.95745   0.52786   0.10042   0.00000  Uiso   1.00
C259   C     0.81731   0.50573   0.40646   0.00000  Uiso   1.00
C260   C     0.84936   0.49426   0.09354   0.00000  Uiso   1.00
C261   C     0.79881   0.49668   0.45134   0.00000  Uiso   1.00
C262   C     0.81837   0.40005   0.24868   0.00000  Uiso   1.00
C263   C     0.86785   0.50331   0.04866   0.00000  Uiso   1.00
C264   C     0.73597   0.46871   0.46839   0.00000  Uiso   1.00
C265   C     0.93069   0.53128   0.03161   0.00000  Uiso   1.00
C266   C     0.84208   0.51049   0.47894   0.00000  Uiso   1.00
C267   C     0.82458   0.48950   0.02106   0.00000  Uiso   1.00
C268   C     0.76494   0.45472   0.03377   0.00000  Uiso   1.00
C269   C     0.90172   0.54528   0.46623   0.00000  Uiso   1.00
C270   C     0.72004   0.44743   0.00935   0.00000  Uiso   1.00
C271   C     0.94662   0.55257   0.49065   0.00000  Uiso   1.00
C272   C     0.85679   0.65570   0.25198   0.00000  Uiso   1.00
C273   C     0.80988   0.34430   0.24802   0.00000  Uiso   1.00
C274   C     0.79513   0.49689   0.33306   0.00000  Uiso   1.00
Cu275  Cu    0.77404   0.49441   0.24516   0.00000  Uiso   1.00
Cu276  Cu    0.89263   0.50559   0.25484   0.00000  Uiso   1.00
F277   F     0.99537   0.41629   0.02474   0.00000  Uiso   1.00
F278   F     0.67129   0.58371   0.47526   0.00000  Uiso   1.00
F279   F     0.78703   0.47939   0.11337   0.00000  Uiso   1.00
F280   F     0.87964   0.52058   0.38663   0.00000  Uiso   1.00
F281   F     0.91396   0.35131   0.25675   0.00000  Uiso   1.00
F282   F     0.75271   0.64869   0.24325   0.00000  Uiso   1.00
F283   F     0.67033   0.54181   0.29431   0.00000  Uiso   1.00
F284   F     0.99633   0.45819   0.20569   0.00000  Uiso   1.00
H285   H     0.99237   0.53755   0.11973   0.00000  Uiso   1.00
H286   H     0.67430   0.46246   0.38027   0.00000  Uiso   1.00
H287   H     0.97580   0.43927   0.45623   0.00000  Uiso   1.00
H288   H     0.69086   0.56074   0.04377   0.00000  Uiso   1.00
H289   H     0.75196   0.43104   0.06196   0.00000  Uiso   1.00
H290   H     0.91469   0.56896   0.43804   0.00000  Uiso   1.00
N291   N     0.98173   0.51401   0.26212   0.00000  Uiso   1.00
N292   N     0.68494   0.48599   0.23788   0.00000  Uiso   1.00
O293   O     0.79482   0.57142   0.24686   0.00000  Uiso   1.00
O294   O     0.87185   0.42858   0.25314   0.00000  Uiso   1.00
O295   O     0.89496   0.58086   0.25503   0.00000  Uiso   1.00
O296   O     0.77171   0.41914   0.24497   0.00000  Uiso   1.00
O297   O     0.75518   0.49263   0.30854   0.00000  Uiso   1.00
O298   O     0.91149   0.50737   0.19146   0.00000  Uiso   1.00
O299   O     0.85532   0.50207   0.31671   0.00000  Uiso   1.00
O300   O     0.81134   0.49793   0.18329   0.00000  Uiso   1.00
C301   C     0.18163   0.93329   0.25132   0.00000  Uiso   1.00
C302   C     0.20487   0.83644   0.16694   0.00000  Uiso   1.00
C303   C     0.10620   0.82634   0.38051   0.00000  Uiso   1.00
C304   C     0.22713   0.84032   0.11949   0.00000  Uiso   1.00
C305   C     0.02448   0.79226   0.44300   0.00000  Uiso   1.00
C306   C     0.30884   0.87441   0.05700   0.00000  Uiso   1.00
C307   C     0.04255   0.80548   0.39958   0.00000  Uiso   1.00
C308   C     0.29078   0.86119   0.10042   0.00000  Uiso   1.00
C309   C     0.15064   0.83906   0.40646   0.00000  Uiso   1.00
C310   C     0.18269   0.82760   0.09354   0.00000  Uiso   1.00
C311   C     0.13215   0.83002   0.45134   0.00000  Uiso   1.00
C312   C     0.15170   0.73338   0.24868   0.00000  Uiso   1.00
C313   C     0.20118   0.83664   0.04866   0.00000  Uiso   1.00
C314   C     0.06930   0.80205   0.46839   0.00000  Uiso   1.00
C315   C     0.26403   0.86462   0.03161   0.00000  Uiso   1.00
C316   C     0.17541   0.84383   0.47894   0.00000  Uiso   1.00
C317   C     0.15792   0.82283   0.02106   0.00000  Uiso   1.00
C318   C     0.09827   0.78805   0.03377   0.00000  Uiso   1.00
C319   C     0.23506   0.87861   0.46623   0.00000  Uiso   1.00
C320   C     0.05337   0.78076   0.00935   0.00000  Uiso   1.00
C321   C     0.27996   0.88590   0.49065   0.00000  Uiso   1.00
C322   C     0.19012   0.98903   0.25198   0.00000  Uiso   1.00
C323   C     0.14321   0.67764   0.24802   0.00000  Uiso   1.00
C324   C     0.12847   0.83023   0.33306   0.00000  Uiso   1.00
Cu325  Cu    0.10737   0.82775   0.24516   0.00000  Uiso   1.00
Cu326  Cu    0.22596   0.83892   0.25484   0.00000  Uiso   1.00
F327   F     0.32870   0.74963   0.02474   0.00000  Uiso   1.00
F328   F     0.00462   0.91704   0.47526   0.00000  Uiso   1.00
F329   F     0.12036   0.81273   0.11337   0.00000  Uiso   1.00
F330   F     0.21297   0.85392   0.38663   0.00000  Uiso   1.00
F331   F     0.24729   0.68465   0.25675   0.00000  Uiso   1.00
F332   F     0.08604   0.98202   0.24325   0.00000  Uiso   1.00
F333   F     0.00367   0.87514   0.29431   0.00000  Uiso   1.00
F334   F     0.32967   0.79153   0.20569   0.00000  Uiso   1.00
H335   H     0.32570   0.87088   0.11973   0.00000  Uiso   1.00
H336   H     0.00763   0.79580   0.38027   0.00000  Uiso   1.00
H337   H     0.30913   0.77260   0.45623   0.00000  Uiso   1.00
H338   H     0.02420   0.89407   0.04377   0.00000  Uiso   1.00
H339   H     0.08530   0.76437   0.06196   0.00000  Uiso   1.00
H340   H     0.24803   0.90229   0.43804   0.00000  Uiso   1.00
N341   N     0.31506   0.84735   0.26212   0.00000  Uiso   1.00
N342   N     0.01827   0.81932   0.23788   0.00000  Uiso   1.00
O343   O     0.12815   0.90476   0.24686   0.00000  Uiso   1.00
O344   O     0.20518   0.76191   0.25314   0.00000  Uiso   1.00
O345   O     0.22829   0.91420   0.25503   0.00000  Uiso   1.00
O346   O     0.10504   0.75247   0.24497   0.00000  Uiso   1.00
O347   O     0.08851   0.82597   0.30854   0.00000  Uiso   1.00
O348   O     0.24482   0.84070   0.19146   0.00000  Uiso   1.00
O349   O     0.18866   0.83540   0.31671   0.00000  Uiso   1.00
O350   O     0.14468   0.83126   0.18329   0.00000  Uiso   1.00
C351   C     0.51496   0.93329   0.25132   0.00000  Uiso   1.00
C352   C     0.53820   0.83644   0.16694   0.00000  Uiso   1.00
C353   C     0.43954   0.82634   0.38051   0.00000  Uiso   1.00
C354   C     0.56046   0.84032   0.11949   0.00000  Uiso   1.00
C355   C     0.35782   0.79226   0.44300   0.00000  Uiso   1.00
C356   C     0.64218   0.87441   0.05700   0.00000  Uiso   1.00
C357   C     0.37588   0.80548   0.39958   0.00000  Uiso   1.00
C358   C     0.62412   0.86119   0.10042   0.00000  Uiso   1.00
C359   C     0.48397   0.83906   0.40646   0.00000  Uiso   1.00
C360   C     0.51603   0.82760   0.09354   0.00000  Uiso   1.00
C361   C     0.46548   0.83002   0.45134   0.00000  Uiso   1.00
C362   C     0.48504   0.73338   0.24868   0.00000  Uiso   1.00
C363   C     0.53452   0.83664   0.04866   0.00000  Uiso   1.00
C364   C     0.40263   0.80205   0.46839   0.00000  Uiso   1.00
C365   C     0.59736   0.86462   0.03161   0.00000  Uiso   1.00
C366   C     0.50875   0.84383   0.47894   0.00000  Uiso   1.00
C367   C     0.49125   0.82283   0.02106   0.00000  Uiso   1.00
C368   C     0.43160   0.78805   0.03377   0.00000  Uiso   1.00
C369   C     0.56839   0.87861   0.46623   0.00000  Uiso   1.00
C370   C     0.38670   0.78076   0.00935   0.00000  Uiso   1.00
C371   C     0.61329   0.88590   0.49065   0.00000  Uiso   1.00
C372   C     0.52345   0.98903   0.25198   0.00000  Uiso   1.00
C373   C     0.47655   0.67764   0.24802   0.00000  Uiso   1.00
C374   C     0.46180   0.83023   0.33306   0.00000  Uiso   1.00
Cu375  Cu    0.44071   0.82775   0.24516   0.00000  Uiso   1.00
Cu376  Cu    0.55929   0.83892   0.25484   0.00000  Uiso   1.00
F377   F     0.66203   0.74963   0.02474   0.00000  Uiso   1.00
F378   F     0.33796   0.91704   0.47526   0.00000  Uiso   1.00
F379   F     0.45370   0.81273   0.11337   0.00000  Uiso   1.00
F380   F     0.54631   0.85392   0.38663   0.00000  Uiso   1.00
F381   F     0.58063   0.68465   0.25675   0.00000  Uiso   1.00
F382   F     0.41937   0.98202   0.24325   0.00000  Uiso   1.00
F383   F     0.33700   0.87514   0.29431   0.00000  Uiso   1.00
F384   F     0.66300   0.79153   0.20569   0.00000  Uiso   1.00
H385   H     0.65903   0.87088   0.11973   0.00000  Uiso   1.00
H386   H     0.34096   0.79580   0.38027   0.00000  Uiso   1.00
H387   H     0.64246   0.77260   0.45623   0.00000  Uiso   1.00
H388   H     0.35753   0.89407   0.04377   0.00000  Uiso   1.00
H389   H     0.41863   0.76437   0.06196   0.00000  Uiso   1.00
H390   H     0.58136   0.90229   0.43804   0.00000  Uiso   1.00
N391   N     0.64839   0.84735   0.26212   0.00000  Uiso   1.00
N392   N     0.35161   0.81932   0.23788   0.00000  Uiso   1.00
O393   O     0.46148   0.90476   0.24686   0.00000  Uiso   1.00
O394   O     0.53852   0.76191   0.25314   0.00000  Uiso   1.00
O395   O     0.56163   0.91420   0.25503   0.00000  Uiso   1.00
O396   O     0.43837   0.75247   0.24497   0.00000  Uiso   1.00
O397   O     0.42185   0.82597   0.30854   0.00000  Uiso   1.00
O398   O     0.57815   0.84070   0.19146   0.00000  Uiso   1.00
O399   O     0.52199   0.83540   0.31671   0.00000  Uiso   1.00
O400   O     0.47801   0.83126   0.18329   0.00000  Uiso   1.00
C401   C     0.84830   0.93329   0.25132   0.00000  Uiso   1.00
C402   C     0.87153   0.83644   0.16694   0.00000  Uiso   1.00
C403   C     0.77287   0.82634   0.38051   0.00000  Uiso   1.00
C404   C     0.89380   0.84032   0.11949   0.00000  Uiso   1.00
C405   C     0.69115   0.79226   0.44300   0.00000  Uiso   1.00
C406   C     0.97551   0.87441   0.05700   0.00000  Uiso   1.00
C407   C     0.70922   0.80548   0.39958   0.00000  Uiso   1.00
C408   C     0.95745   0.86119   0.10042   0.00000  Uiso   1.00
C409   C     0.81731   0.83906   0.40646   0.00000  Uiso   1.00
C410   C     0.84936   0.82760   0.09354   0.00000  Uiso   1.00
C411   C     0.79881   0.83002   0.45134   0.00000  Uiso   1.00
C412   C     0.81837   0.73338   0.24868   0.00000  Uiso   1.00
C413   C     0.86785   0.83664   0.04866   0.00000  Uiso   1.00
C414   C     0.73597   0.80205   0.46839   0.00000  Uiso   1.00
C415   C     0.93069   0.86462   0.03161   0.00000  Uiso   1.00
C416   C     0.84208   0.84383   0.47894   0.00000  Uiso   1.00
C417   C     0.82458   0.82283   0.02106   0.00000  Uiso   1.00
C418   C     0.76494   0.78805   0.03377   0.00000  Uiso   1.00
C419   C     0.90172   0.87861   0.46623   0.00000  Uiso   1.00
C420   C     0.72004   0.78076   0.00935   0.00000  Uiso   1.00
C421   C     0.94662   0.88590   0.49065   0.00000  Uiso   1.00
C422   C     0.85679   0.98903   0.25198   0.00000  Uiso   1.00
C423   C     0.80988   0.67764   0.24802   0.00000  Uiso   1.00
C424   C     0.79513   0.83023   0.33306   0.00000  Uiso   1.00
Cu425  Cu    0.77404   0.82775   0.24516   0.00000  Uiso   1.00
Cu426  Cu    0.89263   0.83892   0.25484   0.00000  Uiso   1.00
F427   F     0.99537   0.74963   0.02474   0.00000  Uiso   1.00
F428   F     0.67129   0.91704   0.47526   0.00000  Uiso   1.00
F429   F     0.78703   0.81273   0.11337   0.00000  Uiso   1.00
F430   F     0.87964   0.85392   0.38663   0.00000  Uiso   1.00
F431   F     0.91396   0.68465   0.25675   0.00000  Uiso   1.00
F432   F     0.75271   0.98202   0.24325   0.00000  Uiso   1.00
F433   F     0.67033   0.87514   0.29431   0.00000  Uiso   1.00
F434   F     0.99633   0.79153   0.20569   0.00000  Uiso   1.00
H435   H     0.99237   0.87088   0.11973   0.00000  Uiso   1.00
H436   H     0.67430   0.79580   0.38027   0.00000  Uiso   1.00
H437   H     0.97580   0.77260   0.45623   0.00000  Uiso   1.00
H438   H     0.69086   0.89407   0.04377   0.00000  Uiso   1.00
H439   H     0.75196   0.76437   0.06196   0.00000  Uiso   1.00
H440   H     0.91469   0.90229   0.43804   0.00000  Uiso   1.00
N441   N     0.98173   0.84735   0.26212   0.00000  Uiso   1.00
N442   N     0.68494   0.81932   0.23788   0.00000  Uiso   1.00
O443   O     0.79482   0.90476   0.24686   0.00000  Uiso   1.00
O444   O     0.87185   0.76191   0.25314   0.00000  Uiso   1.00
O445   O     0.89496   0.91420   0.25503   0.00000  Uiso   1.00
O446   O     0.77171   0.75247   0.24497   0.00000  Uiso   1.00
O447   O     0.75518   0.82597   0.30854   0.00000  Uiso   1.00
O448   O     0.91149   0.84070   0.19146   0.00000  Uiso   1.00
O449   O     0.85532   0.83540   0.31671   0.00000  Uiso   1.00
O450   O     0.81134   0.83126   0.18329   0.00000  Uiso   1.00
C451   C     0.18163   0.26662   0.75132   0.00000  Uiso   1.00
C452   C     0.20487   0.16977   0.66694   0.00000  Uiso   1.00
C453   C     0.10620   0.15968   0.88051   0.00000  Uiso   1.00
C454   C     0.22713   0.17365   0.61949   0.00000  Uiso   1.00
C455   C     0.02448   0.12559   0.94300   0.00000  Uiso   1.00
C456   C     0.30884   0.20774   0.55700   0.00000  Uiso   1.00
C457   C     0.04255   0.13881   0.89958   0.00000  Uiso   1.00
C458   C     0.29078   0.19452   0.60042   0.00000  Uiso   1.00
C459   C     0.15064   0.17239   0.90646   0.00000  Uiso   1.00
C460   C     0.18269   0.16093   0.59354   0.00000  Uiso   1.00
C461   C     0.13215   0.16335   0.95134   0.00000  Uiso   1.00
C462   C     0.15170   0.06671   0.74868   0.00000  Uiso   1.00
C463   C     0.20118   0.16998   0.54866   0.00000  Uiso   1.00
C464   C     0.06930   0.13538   0.96839   0.00000  Uiso   1.00
C465   C     0.26403   0.19795   0.53161   0.00000  Uiso   1.00
C466   C     0.17541   0.17716   0.97894   0.00000  Uiso   1.00
C467   C     0.15792   0.15617   0.52106   0.00000  Uiso   1.00
C468   C     0.09827   0.12139   0.53377   0.00000  Uiso   1.00
C469   C     0.23506   0.21194   0.96623   0.00000  Uiso   1.00
C470   C     0.05337   0.11410   0.50935   0.00000  Uiso   1.00
C471   C     0.27996   0.21924   0.99065   0.00000  Uiso   1.00
C472   C     0.19012   0.32236   0.75198   0.00000  Uiso   1.00
C473   C     0.14321   0.01097   0.74802   0.00000  Uiso   1.00
C474   C     0.12847   0.16356   0.83306   0.00000  Uiso   1.00
Cu475  Cu    0.10737   0.16108   0.74516   0.00000  Uiso   1.00
Cu476  Cu    0.22596   0.17225   0.75484   0.00000  Uiso   1.00
F477   F     0.32870   0.08296   0.52474   0.00000  Uiso   1.00
F478   F     0.00462   0.25038   0.97526   0.00000  Uiso   1.00
F479   F     0.12036   0.14606   0.61337   0.00000  Uiso   1.00
F480   F     0.21297   0.18725   0.88663   0.00000  Uiso   1.00
F481   F     0.24729   0.01798   0.75675   0.00000  Uiso   1.00
F482   F     0.08604   0.31535   0.74325   0.00000  Uiso   1.00
F483   F     0.00367   0.20847   0.79431   0.00000  Uiso   1.00
F484   F     0.32967   0.12486   0.70569   0.00000  Uiso   1.00
H485   H     0.32570   0.20421   0.61973   0.00000  Uiso   1.00
H486   H     0.00763   0.12913   0.88027   0.00000  Uiso   1.00
H487   H     0.30913   0.10593   0.95623   0.00000  Uiso   1.00
H488   H     0.02420   0.22740   0.54377   0.00000  Uiso   1.00
H489   H     0.08530   0.09770   0.56196   0.00000  Uiso   1.00
H490   H     0.24803   0.23563   0.93804   0.00000  Uiso   1.00
N491   N     0.31506   0.18068   0.76212   0.00000  Uiso   1.00
N492   N     0.01827   0.15265   0.73788   0.00000  Uiso   1.00
O493   O     0.12815   0.23809   0.74686   0.00000  Uiso   1.00
O494   O     0.20518   0.09524   0.75314   0.00000  Uiso   1.00
O495   O     0.22829   0.24753   0.75503   0.00000  Uiso   1.00
O496   O     0.10504   0.08580   0.74497   0.00000  Uiso   1.00
O497   O     0.08851   0.15930   0.80854   0.00000  Uiso   1.00
O498   O     0.24482   0.17403   0.69146   0.00000  Uiso   1.00
O499   O     0.18866   0.16874   0.81671   0.00000  Uiso   1.00
O500   O     0.14468   0.16460   0.68329   0.00000  Uiso   1.00
C501   C     0.51496   0.26662   0.75132   0.00000  Uiso   1.00
C502   C     0.53820   0.16977   0.66694   0.00000  Uiso   1.00
C503   C     0.43954   0.15968   0.88051   0.00000  Uiso   1.00
C504   C     0.56046   0.17365   0.61949   0.00000  Uiso   1.00
C505   C     0.35782   0.12559   0.94300   0.00000  Uiso   1.00
C506   C     0.64218   0.20774   0.55700   0.00000  Uiso   1.00
C507   C     0.37588   0.13881   0.89958   0.00000  Uiso   1.00
C508   C     0.62412   0.19452   0.60042   0.00000  Uiso   1.00
C509   C     0.48397   0.17239   0.90646   0.00000  Uiso   1.00
C510   C     0.51603   0.16093   0.59354   0.00000  Uiso   1.00
C511   C     0.46548   0.16335   0.95134   0.00000  Uiso   1.00
C512   C     0.48504   0.06671   0.74868   0.00000  Uiso   1.00
C513   C     0.53452   0.16998   0.54866   0.00000  Uiso   1.00
C514   C     0.40263   0.13538   0.96839   0.00000  Uiso   1.00
C515   C     0.59736   0.19795   0.53161   0.00000  Uiso   1.00
C516   C     0.50875   0.17716   0.97894   0.00000  Uiso   1.00
C517   C     0.49125   0.15617   0.52106   0.00000  Uiso   1.00
C518   C     0.43160   0.12139   0.53377   0.00000  Uiso   1.00
C519   C     0.56839   0.21194   0.96623   0.00000  Uiso   1.00
C520   C     0.38670   0.11410   0.50935   0.00000  Uiso   1.00
C521   C     0.61329   0.21924   0.99065   0.00000  Uiso   1.00
C522   C     0.52345   0.32236   0.75198   0.00000  Uiso   1.00
C523   C     0.47655   0.01097   0.74802   0.00000  Uiso   1.00
C524   C     0.46180   0.16356   0.83306   0.00000  Uiso   1.00
Cu525  Cu    0.44071   0.16108   0.74516   0.00000  Uiso   1.00
Cu526  Cu    0.55929   0.17225   0.75484   0.00000  Uiso   1.00
F527   F     0.66203   0.08296   0.52474   0.00000  Uiso   1.00
F528   F     0.33796   0.25038   0.97526   0.00000  Uiso   1.00
F529   F     0.45370   0.14606   0.61337   0.00000  Uiso   1.00
F530   F     0.54631   0.18725   0.88663   0.00000  Uiso   1.00
F531   F     0.58063   0.01798   0.75675   0.00000  Uiso   1.00
F532   F     0.41937   0.31535   0.74325   0.00000  Uiso   1.00
F533   F     0.33700   0.20847   0.79431   0.00000  Uiso   1.00
F534   F     0.66300   0.12486   0.70569   0.00000  Uiso   1.00
H535   H     0.65903   0.20421   0.61973   0.00000  Uiso   1.00
H536   H     0.34096   0.12913   0.88027   0.00000  Uiso   1.00
H537   H     0.64246   0.10593   0.95623   0.00000  Uiso   1.00
H538   H     0.35753   0.22740   0.54377   0.00000  Uiso   1.00
H539   H     0.41863   0.09770   0.56196   0.00000  Uiso   1.00
H540   H     0.58136   0.23563   0.93804   0.00000  Uiso   1.00
N541   N     0.64839   0.18068   0.76212   0.00000  Uiso   1.00
N542   N     0.35161   0.15265   0.73788   0.00000  Uiso   1.00
O543   O     0.46148   0.23809   0.74686   0.00000  Uiso   1.00
O544   O     0.53852   0.09524   0.75314   0.00000  Uiso   1.00
O545   O     0.56163   0.24753   0.75503   0.00000  Uiso   1.00
O546   O     0.43837   0.08580   0.74497   0.00000  Uiso   1.00
O547   O     0.42185   0.15930   0.80854   0.00000  Uiso   1.00
O548   O     0.57815   0.17403   0.69146   0.00000  Uiso   1.00
O549   O     0.52199   0.16874   0.81671   0.00000  Uiso   1.00
O550   O     0.47801   0.16460   0.68329   0.00000  Uiso   1.00
C551   C     0.84830   0.26662   0.75132   0.00000  Uiso   1.00
C552   C     0.87153   0.16977   0.66694   0.00000  Uiso   1.00
C553   C     0.77287   0.15968   0.88051   0.00000  Uiso   1.00
C554   C     0.89380   0.17365   0.61949   0.00000  Uiso   1.00
C555   C     0.69115   0.12559   0.94300   0.00000  Uiso   1.00
C556   C     0.97551   0.20774   0.55700   0.00000  Uiso   1.00
C557   C     0.70922   0.13881   0.89958   0.00000  Uiso   1.00
C558   C     0.95745   0.19452   0.60042   0.00000  Uiso   1.00
C559   C     0.81731   0.17239   0.90646   0.00000  Uiso   1.00
C560   C     0.84936   0.16093   0.59354   0.00000  Uiso   1.00
C561   C     0.79881   0.16335   0.95134   0.00000  Uiso   1.00
C562   C     0.81837   0.06671   0.74868   0.00000  Uiso   1.00
C563   C     0.86785   0.16998   0.54866   0.00000  Uiso   1.00
C564   C     0.73597   0.13538   0.96839   0.00000  Uiso   1.00
C565   C     0.93069   0.19795   0.53161   0.00000  Uiso   1.00
C566   C     0.84208   0.17716   0.97894   0.00000  Uiso   1.00
C567   C     0.82458   0.15617   0.52106   0.00000  Uiso   1.00
C568   C     0.76494   0.12139   0.53377   0.00000  Uiso   1.00
C569   C     0.90172   0.21194   0.96623   0.00000  Uiso   1.00
C570   C     0.72004   0.11410   0.50935   0.00000  Uiso   1.00
C571   C     0.94662   0.21924   0.99065   0.00000  Uiso   1.00
C572   C     0.85679   0.32236   0.75198   0.00000  Uiso   1.00
C573   C     0.80988   0.01097   0.74802   0.00000  Uiso   1.00
C574   C     0.79513   0.16356   0.83306   0.00000  Uiso   1.00
Cu575  Cu    0.77404   0.16108   0.74516   0.00000  Uiso   1.00
Cu576  Cu    0.89263   0.17225   0.75484   0.00000  Uiso   1.00
F577   F     0.99537   0.08296   0.52474   0.00000  Uiso   1.00
F578   F     0.67129   0.25038   0.97526   0.00000  Uiso   1.00
F579   F     0.78703   0.14606   0.61337   0.00000  Uiso   1.00
F580   F     0.87964   0.18725   0.88663   0.00000  Uiso   1.00
F581   F     0.91396   0.01798   0.75675   0.00000  Uiso   1.00
F582   F     0.75271   0.31535   0.74325   0.00000  Uiso   1.00
F583   F     0.67033   0.20847   0.79431   0.00000  Uiso   1.00
F584   F     0.99633   0.12486   0.70569   0.00000  Uiso   1.00
H585   H     0.99237   0.20421   0.61973   0.00000  Uiso   1.00
H586   H     0.67430   0.12913   0.88027   0.00000  Uiso   1.00
H587   H     0.97580   0.10593   0.95623   0.00000  Uiso   1.00
H588   H     0.69086   0.22740   0.54377   0.00000  Uiso   1.00
H589   H     0.75196   0.09770   0.56196   0.00000  Uiso   1.00
H590   H     0.91469   0.23563   0.93804   0.00000  Uiso   1.00
N591   N     0.98173   0.18068   0.76212   0.00000  Uiso   1.00
N592   N     0.68494   0.15265   0.73788   0.00000  Uiso   1.00
O593   O     0.79482   0.23809   0.74686   0.00000  Uiso   1.00
O594   O     0.87185   0.09524   0.75314   0.00000  Uiso   1.00
O595   O     0.89496   0.24753   0.75503   0.00000  Uiso   1.00
O596   O     0.77171   0.08580   0.74497   0.00000  Uiso   1.00
O597   O     0.75518   0.15930   0.80854   0.00000  Uiso   1.00
O598   O     0.91149   0.17403   0.69146   0.00000  Uiso   1.00
O599   O     0.85532   0.16874   0.81671   0.00000  Uiso   1.00
O600   O     0.81134   0.16460   0.68329   0.00000  Uiso   1.00
C601   C     0.18163   0.59995   0.75132   0.00000  Uiso   1.00
C602   C     0.20487   0.50310   0.66694   0.00000  Uiso   1.00
C603   C     0.10620   0.49301   0.88051   0.00000  Uiso   1.00
C604   C     0.22713   0.50699   0.61949   0.00000  Uiso   1.00
C605   C     0.02448   0.45893   0.94300   0.00000  Uiso   1.00
C606   C     0.30884   0.54108   0.55700   0.00000  Uiso   1.00
C607   C     0.04255   0.47215   0.89958   0.00000  Uiso   1.00
C608   C     0.29078   0.52786   0.60042   0.00000  Uiso   1.00
C609   C     0.15064   0.50573   0.90646   0.00000  Uiso   1.00
C610   C     0.18269   0.49426   0.59354   0.00000  Uiso   1.00
C611   C     0.13215   0.49668   0.95134   0.00000  Uiso   1.00
C612   C     0.15170   0.40005   0.74868   0.00000  Uiso   1.00
C613   C     0.20118   0.50331   0.54866   0.00000  Uiso   1.00
C614   C     0.06930   0.46871   0.96839   0.00000  Uiso   1.00
C615   C     0.26403   0.53128   0.53161   0.00000  Uiso   1.00
C616   C     0.17541   0.51049   0.97894   0.00000  Uiso   1.00
C617   C     0.15792   0.48950   0.52106   0.00000  Uiso   1.00
C618   C     0.09827   0.45472   0.53377   0.00000  Uiso   1.00
C619   C     0.23506   0.54528   0.96623   0.00000  Uiso   1.00
C620   C     0.05337   0.44743   0.50935   0.00000  Uiso   1.00
C621   C     0.27996   0.55257   0.99065   0.00000  Uiso   1.00
C622   C     0.19012   0.65570   0.75198   0.00000  Uiso   1.00
C623   C     0.14321   0.34430   0.74802   0.00000  Uiso   1.00
C624   C     0.12847   0.49689   0.83306   0.00000  Uiso   1.00
Cu625  Cu    0.10737   0.49441   0.74516   0.00000  Uiso   1.00
Cu626  Cu    0.22596   0.50559   0.75484   0.00000  Uiso   1.00
F627   F     0.32870   0.41629   0.52474   0.00000  Uiso   1.00
F628   F     0.00462   0.58371   0.97526   0.00000  Uiso   1.00
F629   F     0.12036   0.47939   0.61337   0.00000  Uiso   1.00
F630   F     0.21297   0.52058   0.88663   0.00000  Uiso   1.00
F631   F     0.24729   0.35131   0.75675   0.00000  Uiso   1.00
F632   F     0.08604   0.64869   0.74325   0.00000  Uiso   1.00
F633   F     0.00367   0.54181   0.79431   0.00000  Uiso   1.00
F634   F     0.32967   0.45819   0.70569   0.00000  Uiso   1.00
H635   H     0.32570   0.53755   0.61973   0.00000  Uiso   1.00
H636   H     0.00763   0.46246   0.88027   0.00000  Uiso   1.00
H637   H     0.30913   0.43927   0.95623   0.00000  Uiso   1.00
H638   H     0.02420   0.56074   0.54377   0.00000  Uiso   1.00
H639   H     0.08530   0.43104   0.56196   0.00000  Uiso   1.00
H640   H     0.24803   0.56896   0.93804   0.00000  Uiso   1.00
N641   N     0.31506   0.51401   0.76212   0.00000  Uiso   1.00
N642   N     0.01827   0.48599   0.73788   0.00000  Uiso   1.00
O643   O     0.12815   0.57142   0.74686   0.00000  Uiso   1.00
O644   O     0.20518   0.42858   0.75314   0.00000  Uiso   1.00
O645   O     0.22829   0.58086   0.75503   0.00000  Uiso   1.00
O646   O     0.10504   0.41914   0.74497   0.00000  Uiso   1.00
O647   O     0.08851   0.49263   0.80854   0.00000  Uiso   1.00
O648   O     0.24482   0.50737   0.69146   0.00000  Uiso   1.00
O649   O     0.18866   0.50207   0.81671   0.00000  Uiso   1.00
O650   O     0.14468   0.49793   0.68329   0.00000  Uiso   1.00
C651   C     0.51496   0.59995   0.75132   0.00000  Uiso   1.00
C652   C     0.53820   0.50310   0.66694   0.00000  Uiso   1.00
C653   C     0.43954   0.49301   0.88051   0.00000  Uiso   1.00
C654   C     0.56046   0.50699   0.61949   0.00000  Uiso   1.00
C655   C     0.35782   0.45893   0.94300   0.00000  Uiso   1.00
C656   C     0.64218   0.54108   0.55700   0.00000  Uiso   1.00
C657   C     0.37588   0.47215   0.89958   0.00000  Uiso   1.00
C658   C     0.62412   0.52786   0.60042   0.00000  Uiso   1.00
C659   C     0.48397   0.50573   0.90646   0.00000  Uiso   1.00
C660   C     0.51603   0.49426   0.59354   0.00000  Uiso   1.00
C661   C     0.46548   0.49668   0.95134   0.00000  Uiso   1.00
C662   C     0.48504   0.40005   0.74868   0.00000  Uiso   1.00
C663   C     0.53452   0.50331   0.54866   0.00000  Uiso   1.00
C664   C     0.40263   0.46871   0.96839   0.00000  Uiso   1.00
C665   C     0.59736   0.53128   0.53161   0.00000  Uiso   1.00
C666   C     0.50875   0.51049   0.97894   0.00000  Uiso   1.00
C667   C     0.49125   0.48950   0.52106   0.00000  Uiso   1.00
C668   C     0.43160   0.45472   0.53377   0.00000  Uiso   1.00
C669   C     0.56839   0.54528   0.96623   0.00000  Uiso   1.00
C670   C     0.38670   0.44743   0.50935   0.00000  Uiso   1.00
C671   C     0.61329   0.55257   0.99065   0.00000  Uiso   1.00
C672   C     0.52345   0.65570   0.75198   0.00000  Uiso   1.00
C673   C     0.47655   0.34430   0.74802   0.00000  Uiso   1.00
C674   C     0.46180   0.49689   0.83306   0.00000  Uiso   1.00
Cu675  Cu    0.44071   0.49441   0.74516   0.00000  Uiso   1.00
Cu676  Cu    0.55929   0.50559   0.75484   0.00000  Uiso   1.00
F677   F     0.66203   0.41629   0.52474   0.00000  Uiso   1.00
F678   F     0.33796   0.58371   0.97526   0.00000  Uiso   1.00
F679   F     0.45370   0.47939   0.61337   0.00000  Uiso   1.00
F680   F     0.54631   0.52058   0.88663   0.00000  Uiso   1.00
F681   F     0.58063   0.35131   0.75675   0.00000  Uiso   1.00
F682   F     0.41937   0.64869   0.74325   0.00000  Uiso   1.00
F683   F     0.33700   0.54181   0.79431   0.00000  Uiso   1.00
F684   F     0.66300   0.45819   0.70569   0.00000  Uiso   1.00
H685   H     0.65903   0.53755   0.61973   0.00000  Uiso   1.00
H686   H     0.34096   0.46246   0.88027   0.00000  Uiso   1.00
H687   H     0.64246   0.43927   0.95623   0.00000  Uiso   1.00
H688   H     0.35753   0.56074   0.54377   0.00000  Uiso   1.00
H689   H     0.41863   0.43104   0.56196   0.00000  Uiso   1.00
H690   H     0.58136   0.56896   0.93804   0.00000  Uiso   1.00
N691   N     0.64839   0.51401   0.76212   0.00000  Uiso   1.00
N692   N     0.35161   0.48599   0.73788   0.00000  Uiso   1.00
O693   O     0.46148   0.57142   0.74686   0.00000  Uiso   1.00
O694   O     0.53852   0.42858   0.75314   0.00000  Uiso   1.00
O695   O     0.56163   0.58086   0.75503   0.00000  Uiso   1.00
O696   O     0.43837   0.41914   0.74497   0.00000  Uiso   1.00
O697   O     0.42185   0.49263   0.80854   0.00000  Uiso   1.00
O698   O     0.57815   0.50737   0.69146   0.00000  Uiso   1.00
O699   O     0.52199   0.50207   0.81671   0.00000  Uiso   1.00
O700   O     0.47801   0.49793   0.68329   0.00000  Uiso   1.00
C701   C     0.84830   0.59995   0.75132   0.00000  Uiso   1.00
C702   C     0.87153   0.50310   0.66694   0.00000  Uiso   1.00
C703   C     0.77287   0.49301   0.88051   0.00000  Uiso   1.00
C704   C     0.89380   0.50699   0.61949   0.00000  Uiso   1.00
C705   C     0.69115   0.45893   0.94300   0.00000  Uiso   1.00
C706   C     0.97551   0.54108   0.55700   0.00000  Uiso   1.00
C707   C     0.70922   0.47215   0.89958   0.00000  Uiso   1.00
C708   C     0.95745   0.52786   0.60042   0.00000  Uiso   1.00
C709   C     0.81731   0.50573   0.90646   0.00000  Uiso   1.00
C710   C     0.84936   0.49426   0.59354   0.00000  Uiso   1.00
C711   C     0.79881   0.49668   0.95134   0.00000  Uiso   1.00
C712   C     0.81837   0.40005   0.74868   0.00000  Uiso   1.00
C713   C     0.86785   0.50331   0.54866   0.00000  Uiso   1.00
C714   C     0.73597   0.46871   0.96839   0.00000  Uiso   1.00
C715   C     0.93069   0.53128   0.53161   0.00000  Uiso   1.00
C716   C     0.84208   0.51049   0.97894   0.00000  Uiso   1.00
C717   C     0.82458   0.48950   0.52106   0.00000  Uiso   1.00
C718   C     0.76494   0.45472   0.53377   0.00000  Uiso   1.00
C719   C     0.90172   0.54528   0.96623   0.00000  Uiso   1.00
C720   C     0.72004   0.44743   0.50935   0.00000  Uiso   1.00
C721   C     0.94662   0.55257   0.99065   0.00000  Uiso   1.00
C722   C     0.85679   0.65570   0.75198   0.00000  Uiso   1.00
C723   C     0.80988   0.34430   0.74802   0.00000  Uiso   1.00
C724   C     0.79513   0.49689   0.83306   0.00000  Uiso   1.00
Cu725  Cu    0.77404   0.49441   0.74516   0.00000  Uiso   1.00
Cu726  Cu    0.89263   0.50559   0.75484   0.00000  Uiso   1.00
F727   F     0.99537   0.41629   0.52474   0.00000  Uiso   1.00
F728   F     0.67129   0.58371   0.97526   0.00000  Uiso   1.00
F729   F     0.78703   0.47939   0.61337   0.00000  Uiso   1.00
F730   F     0.87964   0.52058   0.88663   0.00000  Uiso   1.00
F731   F     0.91396   0.35131   0.75675   0.00000  Uiso   1.00
F732   F     0.75271   0.64869   0.74325   0.00000  Uiso   1.00
F733   F     0.67033   0.54181   0.79431   0.00000  Uiso   1.00
F734   F     0.99633   0.45819   0.70569   0.00000  Uiso   1.00
H735   H     0.99237   0.53755   0.61973   0.00000  Uiso   1.00
H736   H     0.67430   0.46246   0.88027   0.00000  Uiso   1.00
H737   H     0.97580   0.43927   0.95623   0.00000  Uiso   1.00
H738   H     0.69086   0.56074   0.54377   0.00000  Uiso   1.00
H739   H     0.75196   0.43104   0.56196   0.00000  Uiso   1.00
H740   H     0.91469   0.56896   0.93804   0.00000  Uiso   1.00
N741   N     0.98173   0.51401   0.76212   0.00000  Uiso   1.00
N742   N     0.68494   0.48599   0.73788   0.00000  Uiso   1.00
O743   O     0.79482   0.57142   0.74686   0.00000  Uiso   1.00
O744   O     0.87185   0.42858   0.75314   0.00000  Uiso   1.00
O745   O     0.89496   0.58086   0.75503   0.00000  Uiso   1.00
O746   O     0.77171   0.41914   0.74497   0.00000  Uiso   1.00
O747   O     0.75518   0.49263   0.80854   0.00000  Uiso   1.00
O748   O     0.91149   0.50737   0.69146   0.00000  Uiso   1.00
O749   O     0.85532   0.50207   0.81671   0.00000  Uiso   1.00
O750   O     0.81134   0.49793   0.68329   0.00000  Uiso   1.00
C751   C     0.18163   0.93329   0.75132   0.00000  Uiso   1.00
C752   C     0.20487   0.83644   0.66694   0.00000  Uiso   1.00
C753   C     0.10620   0.82634   0.88051   0.00000  Uiso   1.00
C754   C     0.22713   0.84032   0.61949   0.00000  Uiso   1.00
C755   C     0.02448   0.79226   0.94300   0.00000  Uiso   1.00
C756   C     0.30884   0.87441   0.55700   0.00000  Uiso   1.00
C757   C     0.04255   0.80548   0.89958   0.00000  Uiso   1.00
C758   C     0.29078   0.86119   0.60042   0.00000  Uiso   1.00
C759   C     0.15064   0.83906   0.90646   0.00000  Uiso   1.00
C760   C     0.18269   0.82760   0.59354   0.00000  Uiso   1.00
C761   C     0.13215   0.83002   0.95134   0.00000  Uiso   1.00
C762   C     0.15170   0.73338   0.74868   0.00000  Uiso   1.00
C763   C     0.20118   0.83664   0.54866   0.00000  Uiso   1.00
C764   C     0.06930   0.80205   0.96839   0.00000  Uiso   1.00
C765   C     0.26403   0.86462   0.53161   0.00000  Uiso   1.00
C766   C     0.17541   0.84383   0.97894   0.00000  Uiso   1.00
C767   C     0.15792   0.82283   0.52106   0.00000  Uiso   1.00
C768   C     0.09827   0.78805   0.53377   0.00000  Uiso   1.00
C769   C     0.23506   0.87861   0.96623   0.00000  Uiso   1.00
C770   C     0.05337   0.78076   0.50935   0.00000  Uiso   1.00
C771   C     0.27996   0.88590   0.99065   0.00000  Uiso   1.00
C772   C     0.19012   0.98903   0.75198   0.00000  Uiso   1.00
C773   C     0.14321   0.67764   0.74802   0.00000  Uiso   1.00
C774   C     0.12847   0.83023   0.83306   0.00000  Uiso   1.00
Cu775  Cu    0.10737   0.82775   0.74516   0.00000  Uiso   1.00
Cu776  Cu    0.22596   0.83892   0.75484   0.00000  Uiso   1.00
F777   F     0.32870   0.74963   0.52474   0.00000  Uiso   1.00
F778   F     0.00462   0.91704   0.97526   0.00000  Uiso   1.00
F779   F     0.12036   0.81273   0.61337   0.00000  Uiso   1.00
F780   F     0.21297   0.85392   0.88663   0.00000  Uiso   1.00
F781   F     0.24729   0.68465   0.75675   0.00000  Uiso   1.00
F782   F     0.08604   0.98202   0.74325   0.00000  Uiso   1.00
F783   F     0.00367   0.87514   0.79431   0.00000  Uiso   1.00
F784   F     0.32967   0.79153   0.70569   0.00000  Uiso   1.00
H785   H     0.32570   0.87088   0.61973   0.00000  Uiso   1.00
H786   H     0.00763   0.79580   0.88027   0.00000  Uiso   1.00
H787   H     0.30913   0.77260   0.95623   0.00000  Uiso   1.00
H788   H     0.02420   0.89407   0.54377   0.00000  Uiso   1.00
H789   H     0.08530   0.76437   0.56196   0.00000  Uiso   1.00
H790   H     0.24803   0.90229   0.93804   0.00000  Uiso   1.00
N791   N     0.31506   0.84735   0.76212   0.00000  Uiso   1.00
N792   N     0.01827   0.81932   0.73788   0.00000  Uiso   1.00
O793   O     0.12815   0.90476   0.74686   0.00000  Uiso   1.00
O794   O     0.20518   0.76191   0.75314   0.00000  Uiso   1.00
O795   O     0.22829   0.91420   0.75503   0.00000  Uiso   1.00
O796   O     0.10504   0.75247   0.74497   0.00000  Uiso   1.00
O797   O     0.08851   0.82597   0.80854   0.00000  Uiso   1.00
O798   O     0.24482   0.84070   0.69146   0.00000  Uiso   1.00
O799   O     0.18866   0.83540   0.81671   0.00000  Uiso   1.00
O800   O     0.14468   0.83126   0.68329   0.00000  Uiso   1.00
C801   C     0.51496   0.93329   0.75132   0.00000  Uiso   1.00
C802   C     0.53820   0.83644   0.66694   0.00000  Uiso   1.00
C803   C     0.43954   0.82634   0.88051   0.00000  Uiso   1.00
C804   C     0.56046   0.84032   0.61949   0.00000  Uiso   1.00
C805   C     0.35782   0.79226   0.94300   0.00000  Uiso   1.00
C806   C     0.64218   0.87441   0.55700   0.00000  Uiso   1.00
C807   C     0.37588   0.80548   0.89958   0.00000  Uiso   1.00
C808   C     0.62412   0.86119   0.60042   0.00000  Uiso   1.00
C809   C     0.48397   0.83906   0.90646   0.00000  Uiso   1.00
C810   C     0.51603   0.82760   0.59354   0.00000  Uiso   1.00
C811   C     0.46548   0.83002   0.95134   0.00000  Uiso   1.00
C812   C     0.48504   0.73338   0.74868   0.00000  Uiso   1.00
C813   C     0.53452   0.83664   0.54866   0.00000  Uiso   1.00
C814   C     0.40263   0.80205   0.96839   0.00000  Uiso   1.00
C815   C     0.59736   0.86462   0.53161   0.00000  Uiso   1.00
C816   C     0.50875   0.84383   0.97894   0.00000  Uiso   1.00
C817   C     0.49125   0.82283   0.52106   0.00000  Uiso   1.00
C818   C     0.43160   0.78805   0.53377   0.00000  Uiso   1.00
C819   C     0.56839   0.87861   0.96623   0.00000  Uiso   1.00
C820   C     0.38670   0.78076   0.50935   0.00000  Uiso   1.00
C821   C     0.61329   0.88590   0.99065   0.00000  Uiso   1.00
C822   C     0.52345   0.98903   0.75198   0.00000  Uiso   1.00
C823   C     0.47655   0.67764   0.74802   0.00000  Uiso   1.00
C824   C     0.46180   0.83023   0.83306   0.00000  Uiso   1.00
Cu825  Cu    0.44071   0.82775   0.74516   0.00000  Uiso   1.00
Cu826  Cu    0.55929   0.83892   0.75484   0.00000  Uiso   1.00
F827   F     0.66203   0.74963   0.52474   0.00000  Uiso   1.00
F828   F     0.33796   0.91704   0.97526   0.00000  Uiso   1.00
F829   F     0.45370   0.81273   0.61337   0.00000  Uiso   1.00
F830   F     0.54631   0.85392   0.88663   0.00000  Uiso   1.00
F831   F     0.58063   0.68465   0.75675   0.00000  Uiso   1.00
F832   F     0.41937   0.98202   0.74325   0.00000  Uiso   1.00
F833   F     0.33700   0.87514   0.79431   0.00000  Uiso   1.00
F834   F     0.66300   0.79153   0.70569   0.00000  Uiso   1.00
H835   H     0.65903   0.87088   0.61973   0.00000  Uiso   1.00
H836   H     0.34096   0.79580   0.88027   0.00000  Uiso   1.00
H837   H     0.64246   0.77260   0.95623   0.00000  Uiso   1.00
H838   H     0.35753   0.89407   0.54377   0.00000  Uiso   1.00
H839   H     0.41863   0.76437   0.56196   0.00000  Uiso   1.00
H840   H     0.58136   0.90229   0.93804   0.00000  Uiso   1.00
N841   N     0.64839   0.84735   0.76212   0.00000  Uiso   1.00
N842   N     0.35161   0.81932   0.73788   0.00000  Uiso   1.00
O843   O     0.46148   0.90476   0.74686   0.00000  Uiso   1.00
O844   O     0.53852   0.76191   0.75314   0.00000  Uiso   1.00
O845   O     0.56163   0.91420   0.75503   0.00000  Uiso   1.00
O846   O     0.43837   0.75247   0.74497   0.00000  Uiso   1.00
O847   O     0.42185   0.82597   0.80854   0.00000  Uiso   1.00
O848   O     0.57815   0.84070   0.69146   0.00000  Uiso   1.00
O849   O     0.52199   0.83540   0.81671   0.00000  Uiso   1.00
O850   O     0.47801   0.83126   0.68329   0.00000  Uiso   1.00
C851   C     0.84830   0.93329   0.75132   0.00000  Uiso   1.00
C852   C     0.87153   0.83644   0.66694   0.00000  Uiso   1.00
C853   C     0.77287   0.82634   0.88051   0.00000  Uiso   1.00
C854   C     0.89380   0.84032   0.61949   0.00000  Uiso   1.00
C855   C     0.69115   0.79226   0.94300   0.00000  Uiso   1.00
C856   C     0.97551   0.87441   0.55700   0.00000  Uiso   1.00
C857   C     0.70922   0.80548   0.89958   0.00000  Uiso   1.00
C858   C     0.95745   0.86119   0.60042   0.00000  Uiso   1.00
C859   C     0.81731   0.83906   0.90646   0.00000  Uiso   1.00
C860   C     0.84936   0.82760   0.59354   0.00000  Uiso   1.00
C861   C     0.79881   0.83002   0.95134   0.00000  Uiso   1.00
C862   C     0.81837   0.73338   0.74868   0.00000  Uiso   1.00
C863   C     0.86785   0.83664   0.54866   0.00000  Uiso   1.00
C864   C     0.73597   0.80205   0.96839   0.00000  Uiso   1.00
C865   C     0.93069   0.86462   0.53161   0.00000  Uiso   1.00
C866   C     0.84208   0.84383   0.97894   0.00000  Uiso   1.00
C867   C     0.82458   0.82283   0.52106   0.00000  Uiso   1.00
C868   C     0.76494   0.78805   0.53377   0.00000  Uiso   1.00
C869   C     0.90172   0.87861   0.96623   0.00000  Uiso   1.00
C870   C     0.72004   0.78076   0.50935   0.00000  Uiso   1.00
C871   C     0.94662   0.88590   0.99065   0.00000  Uiso   1.00
C872   C     0.85679   0.98903   0.75198   0.00000  Uiso   1.00
C873   C     0.80988   0.67764   0.74802   0.00000  Uiso   1.00
C874   C     0.79513   0.83023   0.83306   0.00000  Uiso   1.00
Cu875  Cu    0.77404   0.82775   0.74516   0.00000  Uiso   1.00
Cu876  Cu    0.89263   0.83892   0.75484   0.00000  Uiso   1.00
F877   F     0.99537   0.74963   0.52474   0.00000  Uiso   1.00
F878   F     0.67129   0.91704   0.97526   0.00000  Uiso   1.00
F879   F     0.78703   0.81273   0.61337   0.00000  Uiso   1.00
F880   F     0.87964   0.85392   0.88663   0.00000  Uiso   1.00
F881   F     0.91396   0.68465   0.75675   0.00000  Uiso   1.00
F882   F     0.75271   0.98202   0.74325   0.00000  Uiso   1.00
F883   F     0.67033   0.87514   0.79431   0.00000  Uiso   1.00
F884   F     0.99633   0.79153   0.70569   0.00000  Uiso   1.00
H885   H     0.99237   0.87088   0.61973   0.00000  Uiso   1.00
H886   H     0.67430   0.79580   0.88027   0.00000  Uiso   1.00
H887   H     0.97580   0.77260   0.95623   0.00000  Uiso   1.00
H888   H     0.69086   0.89407   0.54377   0.00000  Uiso   1.00
H889   H     0.75196   0.76437   0.56196   0.00000  Uiso   1.00
H890   H     0.91469   0.90229   0.93804   0.00000  Uiso   1.00
N891   N     0.98173   0.84735   0.76212   0.00000  Uiso   1.00
N892   N     0.68494   0.81932   0.73788   0.00000  Uiso   1.00
O893   O     0.79482   0.90476   0.74686   0.00000  Uiso   1.00
O894   O     0.87185   0.76191   0.75314   0.00000  Uiso   1.00
O895   O     0.89496   0.91420   0.75503   0.00000  Uiso   1.00
O896   O     0.77171   0.75247   0.74497   0.00000  Uiso   1.00
O897   O     0.75518   0.82597   0.80854   0.00000  Uiso   1.00
O898   O     0.91149   0.84070   0.69146   0.00000  Uiso   1.00
O899   O     0.85532   0.83540   0.81671   0.00000  Uiso   1.00
O900   O     0.81134   0.83126   0.68329   0.00000  Uiso   1.00
loop_
_geom_bond_atom_site_label_1
_geom_bond_atom_site_label_2
_geom_bond_distance
_geom_bond_site_symmetry_2
_ccdc_geom_bond_type
C1     C22     1.428   .     S
C1     O45     1.288   .     A
C1     O43     1.289   .     A
C2     C4      1.473   .     S
C2     O50     1.293   .     A
C2     O48     1.306   .     A
C3     C9      1.411   .     A
C3     C7      1.398   .     A
C3     C24     1.473   .     S
C4     C8      1.398   .     A
C4     C10     1.411   .     A
C5     C14     1.405   .     A
C5     C7      1.391   .     A
C5     H137    1.084   1_455 S
C6     C8      1.391   .     A
C6     C15     1.405   .     A
C6     H88     1.084   .     S
C7     H36     1.083   .     S
C8     H35     1.083   .     S
C9     C11     1.410   .     A
C9     F30     1.356   .     S
C10    C13     1.410   .     A
C10    F29     1.356   .     S
C11    C14     1.419   .     A
C11    C16     1.431   .     A
C12    O44     1.289   .     A
C12    O46     1.288   .     A
C12    C23     1.428   .     S
C13    C17     1.431   .     A
C13    C15     1.419   .     A
C14    C470    1.393   .     S
C15    C471    1.393   1_554 S
C16    C19     1.415   .     A
C16    C467    1.422   .     S
C17    C18     1.415   .     A
C17    C466    1.422   1_554 S
C18    H39     1.076   .     S
C18    C20     1.387   .     A
C19    C21     1.387   .     A
C19    H40     1.076   .     S
C20    C464    1.393   1_554 S
C20    F127    1.359   1_455 S
C21    C465    1.393   .     S
C21    F78     1.359   .     S
C22    C173    1.341   .     S
C22    F181    1.364   .     S
C23    C322    1.341   1_545 S
C23    F332    1.364   1_545 S
C24    O49     1.293   .     A
C24    O47     1.306   .     A
Cu25   N42     2.019   .     S
Cu25   O47     1.959   .     S
Cu25   O43     1.963   .     S
Cu25   Cu26    2.688   .     S
Cu25   O50     1.940   .     S
Cu25   O46     1.961   .     S
Cu26   O44     1.963   .     S
Cu26   O48     1.959   .     S
Cu26   O49     1.940   .     S
Cu26   O45     1.961   .     S
Cu26   N41     2.019   .     S
F27    C70     1.359   .     S
F28    C121    1.359   1_455 S
F31    C322    1.364   1_545 S
F32    C173    1.364   .     S
F33    N141    1.335   1_455 S
F34    N92     1.335   .     S
H37    C55     1.084   .     S
H38    C106    1.084   1_455 S
N41    F83     1.335   .     S
N41    N92     1.290   .     S
N42    F134    1.335   1_455 S
N42    N141    1.290   1_455 S
C51    C72     1.428   .     S
C51    O95     1.288   .     A
C51    O93     1.289   .     A
C52    C54     1.473   .     S
C52    O100    1.293   .     A
C52    O98     1.306   .     A
C53    C59     1.411   .     A
C53    C57     1.398   .     A
C53    C74     1.473   .     S
C54    C58     1.398   .     A
C54    C60     1.411   .     A
C55    C64     1.405   .     A
C55    C57     1.391   .     A
C56    C58     1.391   .     A
C56    C65     1.405   .     A
C56    H138    1.084   .     S
C57    H86     1.083   .     S
C58    H85     1.083   .     S
C59    C61     1.410   .     A
C59    F80     1.356   .     S
C60    C63     1.410   .     A
C60    F79     1.356   .     S
C61    C64     1.419   .     A
C61    C66     1.431   .     A
C62    O94     1.289   .     A
C62    O96     1.288   .     A
C62    C73     1.428   .     S
C63    C67     1.431   .     A
C63    C65     1.419   .     A
C64    C520    1.393   .     S
C65    C521    1.393   1_554 S
C66    C69     1.415   .     A
C66    C517    1.422   .     S
C67    C68     1.415   .     A
C67    C516    1.422   1_554 S
C68    H89     1.076   .     S
C68    C70     1.387   .     A
C69    C71     1.387   .     A
C69    H90     1.076   .     S
C70    C514    1.393   1_554 S
C71    C515    1.393   .     S
C71    F128    1.359   .     S
C72    C223    1.341   .     S
C72    F231    1.364   .     S
C73    C372    1.341   1_545 S
C73    F382    1.364   1_545 S
C74    O99     1.293   .     A
C74    O97     1.306   .     A
Cu75   N92     2.019   .     S
Cu75   O97     1.959   .     S
Cu75   O93     1.963   .     S
Cu75   Cu76    2.688   .     S
Cu75   O100    1.940   .     S
Cu75   O96     1.961   .     S
Cu76   O94     1.963   .     S
Cu76   O98     1.959   .     S
Cu76   O99     1.940   .     S
Cu76   O95     1.961   .     S
Cu76   N91     2.019   .     S
F77    C120    1.359   .     S
F81    C372    1.364   1_545 S
F82    C223    1.364   .     S
F84    N142    1.335   .     S
H87    C105    1.084   .     S
N91    F133    1.335   .     S
N91    N142    1.290   .     S
C101   C122    1.428   .     S
C101   O145    1.288   .     A
C101   O143    1.289   .     A
C102   C104    1.473   .     S
C102   O150    1.293   .     A
C102   O148    1.306   .     A
C103   C109    1.411   .     A
C103   C107    1.398   .     A
C103   C124    1.473   .     S
C104   C108    1.398   .     A
C104   C110    1.411   .     A
C105   C114    1.405   .     A
C105   C107    1.391   .     A
C106   C108    1.391   .     A
C106   C115    1.405   .     A
C106   H38     1.084   1_655 S
C107   H136    1.083   .     S
C108   H135    1.083   .     S
C109   C111    1.410   .     A
C109   F130    1.356   .     S
C110   C113    1.410   .     A
C110   F129    1.356   .     S
C111   C114    1.419   .     A
C111   C116    1.431   .     A
C112   O144    1.289   .     A
C112   O146    1.288   .     A
C112   C123    1.428   .     S
C113   C117    1.431   .     A
C113   C115    1.419   .     A
C114   C570    1.393   .     S
C115   C571    1.393   1_554 S
C116   C119    1.415   .     A
C116   C567    1.422   .     S
C117   C118    1.415   .     A
C117   C566    1.422   1_554 S
C118   H139    1.076   .     S
C118   C120    1.387   .     A
C119   C121    1.387   .     A
C119   H140    1.076   .     S
C120   C564    1.393   1_554 S
C121   C565    1.393   .     S
C121   F28     1.359   1_655 S
C122   C273    1.341   .     S
C122   F281    1.364   .     S
C123   C422    1.341   1_545 S
C123   F432    1.364   1_545 S
C124   O149    1.293   .     A
C124   O147    1.306   .     A
Cu125  N142    2.019   .     S
Cu125  O147    1.959   .     S
Cu125  O143    1.963   .     S
Cu125  Cu126   2.688   .     S
Cu125  O150    1.940   .     S
Cu125  O146    1.961   .     S
Cu126  O144    1.963   .     S
Cu126  O148    1.959   .     S
Cu126  O149    1.940   .     S
Cu126  O145    1.961   .     S
Cu126  N141    2.019   .     S
F127   C20     1.359   1_655 S
F131   C422    1.364   1_545 S
F132   C273    1.364   .     S
F134   N42     1.335   1_655 S
H137   C5      1.084   1_655 S
N141   F33     1.335   1_655 S
N141   N42     1.290   1_655 S
C151   C172    1.428   .     S
C151   O195    1.288   .     A
C151   O193    1.289   .     A
C152   C154    1.473   .     S
C152   O200    1.293   .     A
C152   O198    1.306   .     A
C153   C159    1.411   .     A
C153   C157    1.398   .     A
C153   C174    1.473   .     S
C154   C158    1.398   .     A
C154   C160    1.411   .     A
C155   C164    1.405   .     A
C155   C157    1.391   .     A
C155   H287    1.084   1_455 S
C156   C158    1.391   .     A
C156   C165    1.405   .     A
C156   H238    1.084   .     S
C157   H186    1.083   .     S
C158   H185    1.083   .     S
C159   C161    1.410   .     A
C159   F180    1.356   .     S
C160   C163    1.410   .     A
C160   F179    1.356   .     S
C161   C164    1.419   .     A
C161   C166    1.431   .     A
C162   O194    1.289   .     A
C162   O196    1.288   .     A
C162   C173    1.428   .     S
C163   C167    1.431   .     A
C163   C165    1.419   .     A
C164   C620    1.393   .     S
C165   C621    1.393   1_554 S
C166   C169    1.415   .     A
C166   C617    1.422   .     S
C167   C168    1.415   .     A
C167   C616    1.422   1_554 S
C168   H189    1.076   .     S
C168   C170    1.387   .     A
C169   C171    1.387   .     A
C169   H190    1.076   .     S
C170   C614    1.393   1_554 S
C170   F277    1.359   1_455 S
C171   C615    1.393   .     S
C171   F228    1.359   .     S
C172   C323    1.341   .     S
C172   F331    1.364   .     S
C174   O199    1.293   .     A
C174   O197    1.306   .     A
Cu175  N192    2.019   .     S
Cu175  O197    1.959   .     S
Cu175  O193    1.963   .     S
Cu175  Cu176   2.688   .     S
Cu175  O200    1.940   .     S
Cu175  O196    1.961   .     S
Cu176  O194    1.963   .     S
Cu176  O198    1.959   .     S
Cu176  O199    1.940   .     S
Cu176  O195    1.961   .     S
Cu176  N191    2.019   .     S
F177   C220    1.359   .     S
F178   C271    1.359   1_455 S
F182   C323    1.364   .     S
F183   N291    1.335   1_455 S
F184   N242    1.335   .     S
H187   C205    1.084   .     S
H188   C256    1.084   1_455 S
N191   F233    1.335   .     S
N191   N242    1.290   .     S
N192   F284    1.335   1_455 S
N192   N291    1.290   1_455 S
C201   C222    1.428   .     S
C201   O245    1.288   .     A
C201   O243    1.289   .     A
C202   C204    1.473   .     S
C202   O250    1.293   .     A
C202   O248    1.306   .     A
C203   C209    1.411   .     A
C203   C207    1.398   .     A
C203   C224    1.473   .     S
C204   C208    1.398   .     A
C204   C210    1.411   .     A
C205   C214    1.405   .     A
C205   C207    1.391   .     A
C206   C208    1.391   .     A
C206   C215    1.405   .     A
C206   H288    1.084   .     S
C207   H236    1.083   .     S
C208   H235    1.083   .     S
C209   C211    1.410   .     A
C209   F230    1.356   .     S
C210   C213    1.410   .     A
C210   F229    1.356   .     S
C211   C214    1.419   .     A
C211   C216    1.431   .     A
C212   O244    1.289   .     A
C212   O246    1.288   .     A
C212   C223    1.428   .     S
C213   C217    1.431   .     A
C213   C215    1.419   .     A
C214   C670    1.393   .     S
C215   C671    1.393   1_554 S
C216   C219    1.415   .     A
C216   C667    1.422   .     S
C217   C218    1.415   .     A
C217   C666    1.422   1_554 S
C218   H239    1.076   .     S
C218   C220    1.387   .     A
C219   C221    1.387   .     A
C219   H240    1.076   .     S
C220   C664    1.393   1_554 S
C221   C665    1.393   .     S
C221   F278    1.359   .     S
C222   C373    1.341   .     S
C222   F381    1.364   .     S
C224   O249    1.293   .     A
C224   O247    1.306   .     A
Cu225  N242    2.019   .     S
Cu225  O247    1.959   .     S
Cu225  O243    1.963   .     S
Cu225  Cu226   2.688   .     S
Cu225  O250    1.940   .     S
Cu225  O246    1.961   .     S
Cu226  O244    1.963   .     S
Cu226  O248    1.959   .     S
Cu226  O249    1.940   .     S
Cu226  O245    1.961   .     S
Cu226  N241    2.019   .     S
F227   C270    1.359   .     S
F232   C373    1.364   .     S
F234   N292    1.335   .     S
H237   C255    1.084   .     S
N241   F283    1.335   .     S
N241   N292    1.290   .     S
C251   C272    1.428   .     S
C251   O295    1.288   .     A
C251   O293    1.289   .     A
C252   C254    1.473   .     S
C252   O300    1.293   .     A
C252   O298    1.306   .     A
C253   C259    1.411   .     A
C253   C257    1.398   .     A
C253   C274    1.473   .     S
C254   C258    1.398   .     A
C254   C260    1.411   .     A
C255   C264    1.405   .     A
C255   C257    1.391   .     A
C256   C258    1.391   .     A
C256   C265    1.405   .     A
C256   H188    1.084   1_655 S
C257   H286    1.083   .     S
C258   H285    1.083   .     S
C259   C261    1.410   .     A
C259   F280    1.356   .     S
C260   C263    1.410   .     A
C260   F279    1.356   .     S
C261   C264    1.419   .     A
C261   C266    1.431   .     A
C262   O294    1.289   .     A
C262   O296    1.288   .     A
C262   C273    1.428   .     S
C263   C267    1.431   .     A
C263   C265    1.419   .     A
C264   C720    1.393   .     S
C265   C721    1.393   1_554 S
C266   C269    1.415   .     A
C266   C717    1.422   .     S
C267   C268    1.415   .     A
C267   C716    1.422   1_554 S
C268   H289    1.076   .     S
C268   C270    1.387   .     A
C269   C271    1.387   .     A
C269   H290    1.076   .     S
C270   C714    1.393   1_554 S
C271   C715    1.393   .     S
C271   F178    1.359   1_655 S
C272   C423    1.341   .     S
C272   F431    1.364   .     S
C274   O299    1.293   .     A
C274   O297    1.306   .     A
Cu275  N292    2.019   .     S
Cu275  O297    1.959   .     S
Cu275  O293    1.963   .     S
Cu275  Cu276   2.688   .     S
Cu275  O300    1.940   .     S
Cu275  O296    1.961   .     S
Cu276  O294    1.963   .     S
Cu276  O298    1.959   .     S
Cu276  O299    1.940   .     S
Cu276  O295    1.961   .     S
Cu276  N291    2.019   .     S
F277   C170    1.359   1_655 S
F282   C423    1.364   .     S
F284   N192    1.335   1_655 S
H287   C155    1.084   1_655 S
N291   F183    1.335   1_655 S
N291   N192    1.290   1_655 S
C301   C322    1.428   .     S
C301   O345    1.288   .     A
C301   O343    1.289   .     A
C302   C304    1.473   .     S
C302   O350    1.293   .     A
C302   O348    1.306   .     A
C303   C309    1.411   .     A
C303   C307    1.398   .     A
C303   C324    1.473   .     S
C304   C308    1.398   .     A
C304   C310    1.411   .     A
C305   C314    1.405   .     A
C305   C307    1.391   .     A
C305   H437    1.084   1_455 S
C306   C308    1.391   .     A
C306   C315    1.405   .     A
C306   H388    1.084   .     S
C307   H336    1.083   .     S
C308   H335    1.083   .     S
C309   C311    1.410   .     A
C309   F330    1.356   .     S
C310   C313    1.410   .     A
C310   F329    1.356   .     S
C311   C314    1.419   .     A
C311   C316    1.431   .     A
C312   O344    1.289   .     A
C312   O346    1.288   .     A
C312   C323    1.428   .     S
C313   C317    1.431   .     A
C313   C315    1.419   .     A
C314   C770    1.393   .     S
C315   C771    1.393   1_554 S
C316   C319    1.415   .     A
C316   C767    1.422   .     S
C317   C318    1.415   .     A
C317   C766    1.422   1_554 S
C318   H339    1.076   .     S
C318   C320    1.387   .     A
C319   C321    1.387   .     A
C319   H340    1.076   .     S
C320   C764    1.393   1_554 S
C320   F427    1.359   1_455 S
C321   C765    1.393   .     S
C321   F378    1.359   .     S
C322   C23     1.341   1_565 S
C322   F31     1.364   1_565 S
C324   O349    1.293   .     A
C324   O347    1.306   .     A
Cu325  N342    2.019   .     S
Cu325  O347    1.959   .     S
Cu325  O343    1.963   .     S
Cu325  Cu326   2.688   .     S
Cu325  O350    1.940   .     S
Cu325  O346    1.961   .     S
Cu326  O344    1.963   .     S
Cu326  O348    1.959   .     S
Cu326  O349    1.940   .     S
Cu326  O345    1.961   .     S
Cu326  N341    2.019   .     S
F327   C370    1.359   .     S
F328   C421    1.359   1_455 S
F332   C23     1.364   1_565 S
F333   N441    1.335   1_455 S
F334   N392    1.335   .     S
H337   C355    1.084   .     S
H338   C406    1.084   1_455 S
N341   F383    1.335   .     S
N341   N392    1.290   .     S
N342   F434    1.335   1_455 S
N342   N441    1.290   1_455 S
C351   C372    1.428   .     S
C351   O395    1.288   .     A
C351   O393    1.289   .     A
C352   C354    1.473   .     S
C352   O400    1.293   .     A
C352   O398    1.306   .     A
C353   C359    1.411   .     A
C353   C357    1.398   .     A
C353   C374    1.473   .     S
C354   C358    1.398   .     A
C354   C360    1.411   .     A
C355   C364    1.405   .     A
C355   C357    1.391   .     A
C356   C358    1.391   .     A
C356   C365    1.405   .     A
C356   H438    1.084   .     S
C357   H386    1.083   .     S
C358   H385    1.083   .     S
C359   C361    1.410   .     A
C359   F380    1.356   .     S
C360   C363    1.410   .     A
C360   F379    1.356   .     S
C361   C364    1.419   .     A
C361   C366    1.431   .     A
C362   O394    1.289   .     A
C362   O396    1.288   .     A
C362   C373    1.428   .     S
C363   C367    1.431   .     A
C363   C365    1.419   .     A
C364   C820    1.393   .     S
C365   C821    1.393   1_554 S
C366   C369    1.415   .     A
C366   C817    1.422   .     S
C367   C368    1.415   .     A
C367   C816    1.422   1_554 S
C368   H389    1.076   .     S
C368   C370    1.387   .     A
C369   C371    1.387   .     A
C369   H390    1.076   .     S
C370   C814    1.393   1_554 S
C371   C815    1.393   .     S
C371   F428    1.359   .     S
C372   C73     1.341   1_565 S
C372   F81     1.364   1_565 S
C374   O399    1.293   .     A
C374   O397    1.306   .     A
Cu375  N392    2.019   .     S
Cu375  O397    1.959   .     S
Cu375  O393    1.963   .     S
Cu375  Cu376   2.688   .     S
Cu375  O400    1.940   .     S
Cu375  O396    1.961   .     S
Cu376  O394    1.963   .     S
Cu376  O398    1.959   .     S
Cu376  O399    1.940   .     S
Cu376  O395    1.961   .     S
Cu376  N391    2.019   .     S
F377   C420    1.359   .     S
F382   C73     1.364   1_565 S
F384   N442    1.335   .     S
H387   C405    1.084   .     S
N391   F433    1.335   .     S
N391   N442    1.290   .     S
C401   C422    1.428   .     S
C401   O445    1.288   .     A
C401   O443    1.289   .     A
C402   C404    1.473   .     S
C402   O450    1.293   .     A
C402   O448    1.306   .     A
C403   C409    1.411   .     A
C403   C407    1.398   .     A
C403   C424    1.473   .     S
C404   C408    1.398   .     A
C404   C410    1.411   .     A
C405   C414    1.405   .     A
C405   C407    1.391   .     A
C406   C408    1.391   .     A
C406   C415    1.405   .     A
C406   H338    1.084   1_655 S
C407   H436    1.083   .     S
C408   H435    1.083   .     S
C409   C411    1.410   .     A
C409   F430    1.356   .     S
C410   C413    1.410   .     A
C410   F429    1.356   .     S
C411   C414    1.419   .     A
C411   C416    1.431   .     A
C412   O444    1.289   .     A
C412   O446    1.288   .     A
C412   C423    1.428   .     S
C413   C417    1.431   .     A
C413   C415    1.419   .     A
C414   C870    1.393   .     S
C415   C871    1.393   1_554 S
C416   C419    1.415   .     A
C416   C867    1.422   .     S
C417   C418    1.415   .     A
C417   C866    1.422   1_554 S
C418   H439    1.076   .     S
C418   C420    1.387   .     A
C419   C421    1.387   .     A
C419   H440    1.076   .     S
C420   C864    1.393   1_554 S
C421   C865    1.393   .     S
C421   F328    1.359   1_655 S
C422   C123    1.341   1_565 S
C422   F131    1.364   1_565 S
C424   O449    1.293   .     A
C424   O447    1.306   .     A
Cu425  N442    2.019   .     S
Cu425  O447    1.959   .     S
Cu425  O443    1.963   .     S
Cu425  Cu426   2.688   .     S
Cu425  O450    1.940   .     S
Cu425  O446    1.961   .     S
Cu426  O444    1.963   .     S
Cu426  O448    1.959   .     S
Cu426  O449    1.940   .     S
Cu426  O445    1.961   .     S
Cu426  N441    2.019   .     S
F427   C320    1.359   1_655 S
F432   C123    1.364   1_565 S
F434   N342    1.335   1_655 S
H437   C305    1.084   1_655 S
N441   F333    1.335   1_655 S
N441   N342    1.290   1_655 S
C451   C472    1.428   .     S
C451   O495    1.288   .     A
C451   O493    1.289   .     A
C452   C454    1.473   .     S
C452   O500    1.293   .     A
C452   O498    1.306   .     A
C453   C459    1.411   .     A
C453   C457    1.398   .     A
C453   C474    1.473   .     S
C454   C458    1.398   .     A
C454   C460    1.411   .     A
C455   C464    1.405   .     A
C455   C457    1.391   .     A
C455   H587    1.084   1_455 S
C456   C458    1.391   .     A
C456   C465    1.405   .     A
C456   H538    1.084   .     S
C457   H486    1.083   .     S
C458   H485    1.083   .     S
C459   C461    1.410   .     A
C459   F480    1.356   .     S
C460   C463    1.410   .     A
C460   F479    1.356   .     S
C461   C464    1.419   .     A
C461   C466    1.431   .     A
C462   O494    1.289   .     A
C462   O496    1.288   .     A
C462   C473    1.428   .     S
C463   C467    1.431   .     A
C463   C465    1.419   .     A
C464   C20     1.393   1_556 S
C466   C469    1.415   .     A
C466   C17     1.422   1_556 S
C467   C468    1.415   .     A
C468   H489    1.076   .     S
C468   C470    1.387   .     A
C469   C471    1.387   .     A
C469   H490    1.076   .     S
C470   F577    1.359   1_455 S
C471   C15     1.393   1_556 S
C471   F528    1.359   .     S
C472   C623    1.341   .     S
C472   F631    1.364   .     S
C473   C772    1.341   1_545 S
C473   F782    1.364   1_545 S
C474   O499    1.293   .     A
C474   O497    1.306   .     A
Cu475  N492    2.019   .     S
Cu475  O497    1.959   .     S
Cu475  O493    1.963   .     S
Cu475  Cu476   2.688   .     S
Cu475  O500    1.940   .     S
Cu475  O496    1.961   .     S
Cu476  O494    1.963   .     S
Cu476  O498    1.959   .     S
Cu476  O499    1.940   .     S
Cu476  O495    1.961   .     S
Cu476  N491    2.019   .     S
F477   C520    1.359   .     S
F478   C571    1.359   1_455 S
F481   C772    1.364   1_545 S
F482   C623    1.364   .     S
F483   N591    1.335   1_455 S
F484   N542    1.335   .     S
H487   C505    1.084   .     S
H488   C556    1.084   1_455 S
N491   F533    1.335   .     S
N491   N542    1.290   .     S
N492   F584    1.335   1_455 S
N492   N591    1.290   1_455 S
C501   C522    1.428   .     S
C501   O545    1.288   .     A
C501   O543    1.289   .     A
C502   C504    1.473   .     S
C502   O550    1.293   .     A
C502   O548    1.306   .     A
C503   C509    1.411   .     A
C503   C507    1.398   .     A
C503   C524    1.473   .     S
C504   C508    1.398   .     A
C504   C510    1.411   .     A
C505   C514    1.405   .     A
C505   C507    1.391   .     A
C506   C508    1.391   .     A
C506   C515    1.405   .     A
C506   H588    1.084   .     S
C507   H536    1.083   .     S
C508   H535    1.083   .     S
C509   C511    1.410   .     A
C509   F530    1.356   .     S
C510   C513    1.410   .     A
C510   F529    1.356   .     S
C511   C514    1.419   .     A
C511   C516    1.431   .     A
C512   O544    1.289   .     A
C512   O546    1.288   .     A
C512   C523    1.428   .     S
C513   C517    1.431   .     A
C513   C515    1.419   .     A
C514   C70     1.393   1_556 S
C516   C519    1.415   .     A
C516   C67     1.422   1_556 S
C517   C518    1.415   .     A
C518   H539    1.076   .     S
C518   C520    1.387   .     A
C519   C521    1.387   .     A
C519   H540    1.076   .     S
C521   C65     1.393   1_556 S
C521   F578    1.359   .     S
C522   C673    1.341   .     S
C522   F681    1.364   .     S
C523   C822    1.341   1_545 S
C523   F832    1.364   1_545 S
C524   O549    1.293   .     A
C524   O547    1.306   .     A
Cu525  N542    2.019   .     S
Cu525  O547    1.959   .     S
Cu525  O543    1.963   .     S
Cu525  Cu526   2.688   .     S
Cu525  O550    1.940   .     S
Cu525  O546    1.961   .     S
Cu526  O544    1.963   .     S
Cu526  O548    1.959   .     S
Cu526  O549    1.940   .     S
Cu526  O545    1.961   .     S
Cu526  N541    2.019   .     S
F527   C570    1.359   .     S
F531   C822    1.364   1_545 S
F532   C673    1.364   .     S
F534   N592    1.335   .     S
H537   C555    1.084   .     S
N541   F583    1.335   .     S
N541   N592    1.290   .     S
C551   C572    1.428   .     S
C551   O595    1.288   .     A
C551   O593    1.289   .     A
C552   C554    1.473   .     S
C552   O600    1.293   .     A
C552   O598    1.306   .     A
C553   C559    1.411   .     A
C553   C557    1.398   .     A
C553   C574    1.473   .     S
C554   C558    1.398   .     A
C554   C560    1.411   .     A
C555   C564    1.405   .     A
C555   C557    1.391   .     A
C556   C558    1.391   .     A
C556   C565    1.405   .     A
C556   H488    1.084   1_655 S
C557   H586    1.083   .     S
C558   H585    1.083   .     S
C559   C561    1.410   .     A
C559   F580    1.356   .     S
C560   C563    1.410   .     A
C560   F579    1.356   .     S
C561   C564    1.419   .     A
C561   C566    1.431   .     A
C562   O594    1.289   .     A
C562   O596    1.288   .     A
C562   C573    1.428   .     S
C563   C567    1.431   .     A
C563   C565    1.419   .     A
C564   C120    1.393   1_556 S
C566   C569    1.415   .     A
C566   C117    1.422   1_556 S
C567   C568    1.415   .     A
C568   H589    1.076   .     S
C568   C570    1.387   .     A
C569   C571    1.387   .     A
C569   H590    1.076   .     S
C571   C115    1.393   1_556 S
C571   F478    1.359   1_655 S
C572   C723    1.341   .     S
C572   F731    1.364   .     S
C573   C872    1.341   1_545 S
C573   F882    1.364   1_545 S
C574   O599    1.293   .     A
C574   O597    1.306   .     A
Cu575  N592    2.019   .     S
Cu575  O597    1.959   .     S
Cu575  O593    1.963   .     S
Cu575  Cu576   2.688   .     S
Cu575  O600    1.940   .     S
Cu575  O596    1.961   .     S
Cu576  O594    1.963   .     S
Cu576  O598    1.959   .     S
Cu576  O599    1.940   .     S
Cu576  O595    1.961   .     S
Cu576  N591    2.019   .     S
F577   C470    1.359   1_655 S
F581   C872    1.364   1_545 S
F582   C723    1.364   .     S
F584   N492    1.335   1_655 S
H587   C455    1.084   1_655 S
N591   F483    1.335   1_655 S
N591   N492    1.290   1_655 S
C601   C622    1.428   .     S
C601   O645    1.288   .     A
C601   O643    1.289   .     A
C602   C604    1.473   .     S
C602   O650    1.293   .     A
C602   O648    1.306   .     A
C603   C609    1.411   .     A
C603   C607    1.398   .     A
C603   C624    1.473   .     S
C604   C608    1.398   .     A
C604   C610    1.411   .     A
C605   C614    1.405   .     A
C605   C607    1.391   .     A
C605   H737    1.084   1_455 S
C606   C608    1.391   .     A
C606   C615    1.405   .     A
C606   H688    1.084   .     S
C607   H636    1.083   .     S
C608   H635    1.083   .     S
C609   C611    1.410   .     A
C609   F630    1.356   .     S
C610   C613    1.410   .     A
C610   F629    1.356   .     S
C611   C614    1.419   .     A
C611   C616    1.431   .     A
C612   O644    1.289   .     A
C612   O646    1.288   .     A
C612   C623    1.428   .     S
C613   C617    1.431   .     A
C613   C615    1.419   .     A
C614   C170    1.393   1_556 S
C616   C619    1.415   .     A
C616   C167    1.422   1_556 S
C617   C618    1.415   .     A
C618   H639    1.076   .     S
C618   C620    1.387   .     A
C619   C621    1.387   .     A
C619   H640    1.076   .     S
C620   F727    1.359   1_455 S
C621   C165    1.393   1_556 S
C621   F678    1.359   .     S
C622   C773    1.341   .     S
C622   F781    1.364   .     S
C624   O649    1.293   .     A
C624   O647    1.306   .     A
Cu625  N642    2.019   .     S
Cu625  O647    1.959   .     S
Cu625  O643    1.963   .     S
Cu625  Cu626   2.688   .     S
Cu625  O650    1.940   .     S
Cu625  O646    1.961   .     S
Cu626  O644    1.963   .     S
Cu626  O648    1.959   .     S
Cu626  O649    1.940   .     S
Cu626  O645    1.961   .     S
Cu626  N641    2.019   .     S
F627   C670    1.359   .     S
F628   C721    1.359   1_455 S
F632   C773    1.364   .     S
F633   N741    1.335   1_455 S
F634   N692    1.335   .     S
H637   C655    1.084   .     S
H638   C706    1.084   1_455 S
N641   F683    1.335   .     S
N641   N692    1.290   .     S
N642   F734    1.335   1_455 S
N642   N741    1.290   1_455 S
C651   C672    1.428   .     S
C651   O695    1.288   .     A
C651   O693    1.289   .     A
C652   C654    1.473   .     S
C652   O700    1.293   .     A
C652   O698    1.306   .     A
C653   C659    1.411   .     A
C653   C657    1.398   .     A
C653   C674    1.473   .     S
C654   C658    1.398   .     A
C654   C660    1.411   .     A
C655   C664    1.405   .     A
C655   C657    1.391   .     A
C656   C658    1.391   .     A
C656   C665    1.405   .     A
C656   H738    1.084   .     S
C657   H686    1.083   .     S
C658   H685    1.083   .     S
C659   C661    1.410   .     A
C659   F680    1.356   .     S
C660   C663    1.410   .     A
C660   F679    1.356   .     S
C661   C664    1.419   .     A
C661   C666    1.431   .     A
C662   O694    1.289   .     A
C662   O696    1.288   .     A
C662   C673    1.428   .     S
C663   C667    1.431   .     A
C663   C665    1.419   .     A
C664   C220    1.393   1_556 S
C666   C669    1.415   .     A
C666   C217    1.422   1_556 S
C667   C668    1.415   .     A
C668   H689    1.076   .     S
C668   C670    1.387   .     A
C669   C671    1.387   .     A
C669   H690    1.076   .     S
C671   C215    1.393   1_556 S
C671   F728    1.359   .     S
C672   C823    1.341   .     S
C672   F831    1.364   .     S
C674   O699    1.293   .     A
C674   O697    1.306   .     A
Cu675  N692    2.019   .     S
Cu675  O697    1.959   .     S
Cu675  O693    1.963   .     S
Cu675  Cu676   2.688   .     S
Cu675  O700    1.940   .     S
Cu675  O696    1.961   .     S
Cu676  O694    1.963   .     S
Cu676  O698    1.959   .     S
Cu676  O699    1.940   .     S
Cu676  O695    1.961   .     S
Cu676  N691    2.019   .     S
F677   C720    1.359   .     S
F682   C823    1.364   .     S
F684   N742    1.335   .     S
H687   C705    1.084   .     S
N691   F733    1.335   .     S
N691   N742    1.290   .     S
C701   C722    1.428   .     S
C701   O745    1.288   .     A
C701   O743    1.289   .     A
C702   C704    1.473   .     S
C702   O750    1.293   .     A
C702   O748    1.306   .     A
C703   C709    1.411   .     A
C703   C707    1.398   .     A
C703   C724    1.473   .     S
C704   C708    1.398   .     A
C704   C710    1.411   .     A
C705   C714    1.405   .     A
C705   C707    1.391   .     A
C706   C708    1.391   .     A
C706   C715    1.405   .     A
C706   H638    1.084   1_655 S
C707   H736    1.083   .     S
C708   H735    1.083   .     S
C709   C711    1.410   .     A
C709   F730    1.356   .     S
C710   C713    1.410   .     A
C710   F729    1.356   .     S
C711   C714    1.419   .     A
C711   C716    1.431   .     A
C712   O744    1.289   .     A
C712   O746    1.288   .     A
C712   C723    1.428   .     S
C713   C717    1.431   .     A
C713   C715    1.419   .     A
C714   C270    1.393   1_556 S
C716   C719    1.415   .     A
C716   C267    1.422   1_556 S
C717   C718    1.415   .     A
C718   H739    1.076   .     S
C718   C720    1.387   .     A
C719   C721    1.387   .     A
C719   H740    1.076   .     S
C721   C265    1.393   1_556 S
C721   F628    1.359   1_655 S
C722   C873    1.341   .     S
C722   F881    1.364   .     S
C724   O749    1.293   .     A
C724   O747    1.306   .     A
Cu725  N742    2.019   .     S
Cu725  O747    1.959   .     S
Cu725  O743    1.963   .     S
Cu725  Cu726   2.688   .     S
Cu725  O750    1.940   .     S
Cu725  O746    1.961   .     S
Cu726  O744    1.963   .     S
Cu726  O748    1.959   .     S
Cu726  O749    1.940   .     S
Cu726  O745    1.961   .     S
Cu726  N741    2.019   .     S
F727   C620    1.359   1_655 S
F732   C873    1.364   .     S
F734   N642    1.335   1_655 S
H737   C605    1.084   1_655 S
N741   F633    1.335   1_655 S
N741   N642    1.290   1_655 S
C751   C772    1.428   .     S
C751   O795    1.288   .     A
C751   O793    1.289   .     A
C752   C754    1.473   .     S
C752   O800    1.293   .     A
C752   O798    1.306   .     A
C753   C759    1.411   .     A
C753   C757    1.398   .     A
C753   C774    1.473   .     S
C754   C758    1.398   .     A
C754   C760    1.411   .     A
C755   C764    1.405   .     A
C755   C757    1.391   .     A
C755   H887    1.084   1_455 S
C756   C758    1.391   .     A
C756   C765    1.405   .     A
C756   H838    1.084   .     S
C757   H786    1.083   .     S
C758   H785    1.083   .     S
C759   C761    1.410   .     A
C759   F780    1.356   .     S
C760   C763    1.410   .     A
C760   F779    1.356   .     S
C761   C764    1.419   .     A
C761   C766    1.431   .     A
C762   O794    1.289   .     A
C762   O796    1.288   .     A
C762   C773    1.428   .     S
C763   C767    1.431   .     A
C763   C765    1.419   .     A
C764   C320    1.393   1_556 S
C766   C769    1.415   .     A
C766   C317    1.422   1_556 S
C767   C768    1.415   .     A
C768   H789    1.076   .     S
C768   C770    1.387   .     A
C769   C771    1.387   .     A
C769   H790    1.076   .     S
C770   F877    1.359   1_455 S
C771   C315    1.393   1_556 S
C771   F828    1.359   .     S
C772   C473    1.341   1_565 S
C772   F481    1.364   1_565 S
C774   O799    1.293   .     A
C774   O797    1.306   .     A
Cu775  N792    2.019   .     S
Cu775  O797    1.959   .     S
Cu775  O793    1.963   .     S
Cu775  Cu776   2.688   .     S
Cu775  O800    1.940   .     S
Cu775  O796    1.961   .     S
Cu776  O794    1.963   .     S
Cu776  O798    1.959   .     S
Cu776  O799    1.940   .     S
Cu776  O795    1.961   .     S
Cu776  N791    2.019   .     S
F777   C820    1.359   .     S
F778   C871    1.359   1_455 S
F782   C473    1.364   1_565 S
F783   N891    1.335   1_455 S
F784   N842    1.335   .     S
H787   C805    1.084   .     S
H788   C856    1.084   1_455 S
N791   F833    1.335   .     S
N791   N842    1.290   .     S
N792   F884    1.335   1_455 S
N792   N891    1.290   1_455 S
C801   C822    1.428   .     S
C801   O845    1.288   .     A
C801   O843    1.289   .     A
C802   C804    1.473   .     S
C802   O850    1.293   .     A
C802   O848    1.306   .     A
C803   C809    1.411   .     A
C803   C807    1.398   .     A
C803   C824    1.473   .     S
C804   C808    1.398   .     A
C804   C810    1.411   .     A
C805   C814    1.405   .     A
C805   C807    1.391   .     A
C806   C808    1.391   .     A
C806   C815    1.405   .     A
C806   H888    1.084   .     S
C807   H836    1.083   .     S
C808   H835    1.083   .     S
C809   C811    1.410   .     A
C809   F830    1.356   .     S
C810   C813    1.410   .     A
C810   F829    1.356   .     S
C811   C814    1.419   .     A
C811   C816    1.431   .     A
C812   O844    1.289   .     A
C812   O846    1.288   .     A
C812   C823    1.428   .     S
C813   C817    1.431   .     A
C813   C815    1.419   .     A
C814   C370    1.393   1_556 S
C816   C819    1.415   .     A
C816   C367    1.422   1_556 S
C817   C818    1.415   .     A
C818   H839    1.076   .     S
C818   C820    1.387   .     A
C819   C821    1.387   .     A
C819   H840    1.076   .     S
C821   C365    1.393   1_556 S
C821   F878    1.359   .     S
C822   C523    1.341   1_565 S
C822   F531    1.364   1_565 S
C824   O849    1.293   .     A
C824   O847    1.306   .     A
Cu825  N842    2.019   .     S
Cu825  O847    1.959   .     S
Cu825  O843    1.963   .     S
Cu825  Cu826   2.688   .     S
Cu825  O850    1.940   .     S
Cu825  O846    1.961   .     S
Cu826  O844    1.963   .     S
Cu826  O848    1.959   .     S
Cu826  O849    1.940   .     S
Cu826  O845    1.961   .     S
Cu826  N841    2.019   .     S
F827   C870    1.359   .     S
F832   C523    1.364   1_565 S
F834   N892    1.335   .     S
H837   C855    1.084   .     S
N841   F883    1.335   .     S
N841   N892    1.290   .     S
C851   C872    1.428   .     S
C851   O895    1.288   .     A
C851   O893    1.289   .     A
C852   C854    1.473   .     S
C852   O900    1.293   .     A
C852   O898    1.306   .     A
C853   C859    1.411   .     A
C853   C857    1.398   .     A
C853   C874    1.473   .     S
C854   C858    1.398   .     A
C854   C860    1.411   .     A
C855   C864    1.405   .     A
C855   C857    1.391   .     A
C856   C858    1.391   .     A
C856   C865    1.405   .     A
C856   H788    1.084   1_655 S
C857   H886    1.083   .     S
C858   H885    1.083   .     S
C859   C861    1.410   .     A
C859   F880    1.356   .     S
C860   C863    1.410   .     A
C860   F879    1.356   .     S
C861   C864    1.419   .     A
C861   C866    1.431   .     A
C862   O894    1.289   .     A
C862   O896    1.288   .     A
C862   C873    1.428   .     S
C863   C867    1.431   .     A
C863   C865    1.419   .     A
C864   C420    1.393   1_556 S
C866   C869    1.415   .     A
C866   C417    1.422   1_556 S
C867   C868    1.415   .     A
C868   H889    1.076   .     S
C868   C870    1.387   .     A
C869   C871    1.387   .     A
C869   H890    1.076   .     S
C871   C415    1.393   1_556 S
C871   F778    1.359   1_655 S
C872   C573    1.341   1_565 S
C872   F581    1.364   1_565 S
C874   O899    1.293   .     A
C874   O897    1.306   .     A
Cu875  N892    2.019   .     S
Cu875  O897    1.959   .     S
Cu875  O893    1.963   .     S
Cu875  Cu876   2.688   .     S
Cu875  O900    1.940   .     S
Cu875  O896    1.961   .     S
Cu876  O894    1.963   .     S
Cu876  O898    1.959   .     S
Cu876  O899    1.940   .     S
Cu876  O895    1.961   .     S
Cu876  N891    2.019   .     S
F877   C770    1.359   1_655 S
F882   C573    1.364   1_565 S
F884   N792    1.335   1_655 S
H887   C755    1.084   1_655 S
N891   F783    1.335   1_655 S
N891   N792    1.290   1_655 S
