data_str_m2_o1_o5_pcu_sym.26
_audit_creation_date              2020-01-03
_audit_creation_method            'Materials Studio'
_symmetry_space_group_name_H-M    'P1'
_symmetry_Int_Tables_number       1
_symmetry_cell_setting            triclinic
loop_
_symmetry_equiv_pos_as_xyz
  x,y,z
_cell_length_a                    32.4820
_cell_length_b                    29.4266
_cell_length_c                    26.9425
_cell_angle_alpha                 90.0016
_cell_angle_beta                  94.1761
_cell_angle_gamma                 89.9998
loop_
_atom_site_label
_atom_site_type_symbol
_atom_site_fract_x
_atom_site_fract_y
_atom_site_fract_z
_atom_site_U_iso_or_equiv
_atom_site_adp_type
_atom_site_occupancy
C1     C     0.08766   0.16664   0.16702   0.00000  Uiso   1.00
C2     C     0.02129   0.20765   0.16755   0.00000  Uiso   1.00
C3     C     0.29042   0.16651   0.16584   0.00000  Uiso   1.00
C4     C     0.04291   0.16651   0.16746   0.00000  Uiso   1.00
C5     C     0.14749   0.02402   0.12776   0.00000  Uiso   1.00
C6     C     0.19148   0.30905   0.20086   0.00000  Uiso   1.00
C7     C     0.18584   0.02402   0.20557   0.00000  Uiso   1.00
C8     C     0.14186   0.30905   0.13246   0.00000  Uiso   1.00
C9     C     0.13410   0.04435   0.07677   0.00000  Uiso   1.00
C10    C     0.09273   0.06992   0.07446   0.00000  Uiso   1.00
C11    C     0.22948   0.28879   0.22999   0.00000  Uiso   1.00
C12    C     0.24567   0.16664   0.16631   0.00000  Uiso   1.00
C13    C     0.22252   0.26778   0.28083   0.00000  Uiso   1.00
C14    C     0.19923   0.04434   0.25657   0.00000  Uiso   1.00
C15    C     0.24059   0.06993   0.25889   0.00000  Uiso   1.00
C16    C     0.10391   0.28877   0.10325   0.00000  Uiso   1.00
C17    C     0.11093   0.26783   0.05240   0.00000  Uiso   1.00
C18    C     0.16683   0.16665   0.07391   0.00000  Uiso   1.00
C19    C     0.16651   0.16665   0.25942   0.00000  Uiso   1.00
C20    C     0.16675   0.16659   0.02199   0.00000  Uiso   1.00
C21    C     0.16659   0.16659   0.31135   0.00000  Uiso   1.00
C22    C     0.02134   0.12525   0.16721   0.00000  Uiso   1.00
C23    C     0.31204   0.20765   0.16567   0.00000  Uiso   1.00
C24    C     0.31200   0.12525   0.16616   0.00000  Uiso   1.00
Cu25   Cu    0.16667   0.21355   0.16667   0.00000  Uiso   1.00
Cu26   Cu    0.16667   0.11978   0.16667   0.00000  Uiso   1.00
H27    H     0.03725   0.09294   0.16804   0.00000  Uiso   1.00
H28    H     0.18990   0.27101   0.29013   0.00000  Uiso   1.00
H29    H     0.23224   0.23163   0.28162   0.00000  Uiso   1.00
H30    H     0.24206   0.28521   0.31060   0.00000  Uiso   1.00
H31    H     0.24710   0.26670   0.20757   0.00000  Uiso   1.00
H32    H     0.25320   0.31557   0.23658   0.00000  Uiso   1.00
H33    H     0.25905   0.06010   0.22760   0.00000  Uiso   1.00
H34    H     0.23661   0.10719   0.25875   0.00000  Uiso   1.00
H35    H     0.25898   0.06146   0.29408   0.00000  Uiso   1.00
H36    H     0.17377   0.06149   0.27376   0.00000  Uiso   1.00
H37    H     0.20305   0.01738   0.28486   0.00000  Uiso   1.00
H38    H     0.29639   0.24000   0.16389   0.00000  Uiso   1.00
H39    H     0.14358   0.27105   0.04317   0.00000  Uiso   1.00
H40    H     0.10120   0.23168   0.05152   0.00000  Uiso   1.00
H41    H     0.09144   0.28530   0.02261   0.00000  Uiso   1.00
H42    H     0.08630   0.26661   0.12560   0.00000  Uiso   1.00
H43    H     0.08016   0.31552   0.09668   0.00000  Uiso   1.00
H44    H     0.29609   0.09294   0.16538   0.00000  Uiso   1.00
H45    H     0.03694   0.24001   0.16925   0.00000  Uiso   1.00
H46    H     0.07428   0.06009   0.10576   0.00000  Uiso   1.00
H47    H     0.09671   0.10718   0.07459   0.00000  Uiso   1.00
H48    H     0.07434   0.06145   0.03928   0.00000  Uiso   1.00
H49    H     0.15956   0.06151   0.05957   0.00000  Uiso   1.00
H50    H     0.13029   0.01741   0.04846   0.00000  Uiso   1.00
N51    N     0.16667   0.28402   0.16667   0.00000  Uiso   1.00
N52    N     0.16667   0.04931   0.16667   0.00000  Uiso   1.00
O53    O     0.10655   0.20625   0.16666   0.00000  Uiso   1.00
O54    O     0.22679   0.12709   0.16667   0.00000  Uiso   1.00
O55    O     0.22679   0.20625   0.16667   0.00000  Uiso   1.00
O56    O     0.10655   0.12709   0.16666   0.00000  Uiso   1.00
O57    O     0.16667   0.20625   0.09613   0.00000  Uiso   1.00
O58    O     0.16667   0.12708   0.23720   0.00000  Uiso   1.00
O59    O     0.16667   0.20625   0.23720   0.00000  Uiso   1.00
O60    O     0.16667   0.12708   0.09613   0.00000  Uiso   1.00
C61    C     0.42099   0.16664   0.16702   0.00000  Uiso   1.00
C62    C     0.35462   0.20765   0.16755   0.00000  Uiso   1.00
C63    C     0.62375   0.16651   0.16584   0.00000  Uiso   1.00
C64    C     0.37625   0.16651   0.16746   0.00000  Uiso   1.00
C65    C     0.48083   0.02402   0.12776   0.00000  Uiso   1.00
C66    C     0.52482   0.30905   0.20086   0.00000  Uiso   1.00
C67    C     0.51918   0.02402   0.20557   0.00000  Uiso   1.00
C68    C     0.47520   0.30905   0.13246   0.00000  Uiso   1.00
C69    C     0.46743   0.04435   0.07677   0.00000  Uiso   1.00
C70    C     0.42606   0.06992   0.07446   0.00000  Uiso   1.00
C71    C     0.56281   0.28879   0.22999   0.00000  Uiso   1.00
C72    C     0.57900   0.16664   0.16631   0.00000  Uiso   1.00
C73    C     0.55585   0.26778   0.28083   0.00000  Uiso   1.00
C74    C     0.53257   0.04434   0.25657   0.00000  Uiso   1.00
C75    C     0.57393   0.06993   0.25889   0.00000  Uiso   1.00
C76    C     0.43724   0.28877   0.10325   0.00000  Uiso   1.00
C77    C     0.44427   0.26783   0.05240   0.00000  Uiso   1.00
C78    C     0.50016   0.16665   0.07391   0.00000  Uiso   1.00
C79    C     0.49984   0.16665   0.25942   0.00000  Uiso   1.00
C80    C     0.50008   0.16659   0.02199   0.00000  Uiso   1.00
C81    C     0.49992   0.16659   0.31135   0.00000  Uiso   1.00
C82    C     0.35467   0.12525   0.16721   0.00000  Uiso   1.00
C83    C     0.64537   0.20765   0.16567   0.00000  Uiso   1.00
C84    C     0.64533   0.12525   0.16616   0.00000  Uiso   1.00
Cu85   Cu    0.50000   0.21355   0.16667   0.00000  Uiso   1.00
Cu86   Cu    0.50000   0.11978   0.16667   0.00000  Uiso   1.00
H87    H     0.37059   0.09294   0.16804   0.00000  Uiso   1.00
H88    H     0.52323   0.27101   0.29013   0.00000  Uiso   1.00
H89    H     0.56557   0.23163   0.28162   0.00000  Uiso   1.00
H90    H     0.57539   0.28521   0.31060   0.00000  Uiso   1.00
H91    H     0.58043   0.26670   0.20757   0.00000  Uiso   1.00
H92    H     0.58653   0.31557   0.23658   0.00000  Uiso   1.00
H93    H     0.59238   0.06010   0.22760   0.00000  Uiso   1.00
H94    H     0.56994   0.10719   0.25875   0.00000  Uiso   1.00
H95    H     0.59231   0.06146   0.29408   0.00000  Uiso   1.00
H96    H     0.50710   0.06149   0.27376   0.00000  Uiso   1.00
H97    H     0.53638   0.01738   0.28486   0.00000  Uiso   1.00
H98    H     0.62972   0.24000   0.16389   0.00000  Uiso   1.00
H99    H     0.47691   0.27105   0.04317   0.00000  Uiso   1.00
H100   H     0.43453   0.23168   0.05152   0.00000  Uiso   1.00
H101   H     0.42477   0.28530   0.02261   0.00000  Uiso   1.00
H102   H     0.41963   0.26661   0.12560   0.00000  Uiso   1.00
H103   H     0.41349   0.31552   0.09668   0.00000  Uiso   1.00
H104   H     0.62942   0.09294   0.16538   0.00000  Uiso   1.00
H105   H     0.37027   0.24001   0.16925   0.00000  Uiso   1.00
H106   H     0.40762   0.06009   0.10576   0.00000  Uiso   1.00
H107   H     0.43004   0.10718   0.07459   0.00000  Uiso   1.00
H108   H     0.40767   0.06145   0.03928   0.00000  Uiso   1.00
H109   H     0.49289   0.06151   0.05957   0.00000  Uiso   1.00
H110   H     0.46363   0.01741   0.04846   0.00000  Uiso   1.00
N111   N     0.50000   0.28402   0.16667   0.00000  Uiso   1.00
N112   N     0.50000   0.04931   0.16667   0.00000  Uiso   1.00
O113   O     0.43988   0.20625   0.16666   0.00000  Uiso   1.00
O114   O     0.56012   0.12709   0.16667   0.00000  Uiso   1.00
O115   O     0.56012   0.20625   0.16667   0.00000  Uiso   1.00
O116   O     0.43988   0.12709   0.16666   0.00000  Uiso   1.00
O117   O     0.50000   0.20625   0.09613   0.00000  Uiso   1.00
O118   O     0.50000   0.12708   0.23720   0.00000  Uiso   1.00
O119   O     0.50000   0.20625   0.23720   0.00000  Uiso   1.00
O120   O     0.50000   0.12708   0.09613   0.00000  Uiso   1.00
C121   C     0.75433   0.16664   0.16702   0.00000  Uiso   1.00
C122   C     0.68796   0.20765   0.16755   0.00000  Uiso   1.00
C123   C     0.95709   0.16651   0.16584   0.00000  Uiso   1.00
C124   C     0.70958   0.16651   0.16746   0.00000  Uiso   1.00
C125   C     0.81416   0.02402   0.12776   0.00000  Uiso   1.00
C126   C     0.85815   0.30905   0.20086   0.00000  Uiso   1.00
C127   C     0.85251   0.02402   0.20557   0.00000  Uiso   1.00
C128   C     0.80853   0.30905   0.13246   0.00000  Uiso   1.00
C129   C     0.80076   0.04435   0.07677   0.00000  Uiso   1.00
C130   C     0.75940   0.06992   0.07446   0.00000  Uiso   1.00
C131   C     0.89614   0.28879   0.22999   0.00000  Uiso   1.00
C132   C     0.91234   0.16664   0.16631   0.00000  Uiso   1.00
C133   C     0.88919   0.26778   0.28083   0.00000  Uiso   1.00
C134   C     0.86590   0.04434   0.25657   0.00000  Uiso   1.00
C135   C     0.90726   0.06993   0.25889   0.00000  Uiso   1.00
C136   C     0.77058   0.28877   0.10325   0.00000  Uiso   1.00
C137   C     0.77760   0.26783   0.05240   0.00000  Uiso   1.00
C138   C     0.83350   0.16665   0.07391   0.00000  Uiso   1.00
C139   C     0.83317   0.16665   0.25942   0.00000  Uiso   1.00
C140   C     0.83342   0.16659   0.02199   0.00000  Uiso   1.00
C141   C     0.83325   0.16659   0.31135   0.00000  Uiso   1.00
C142   C     0.68801   0.12525   0.16721   0.00000  Uiso   1.00
C143   C     0.97870   0.20765   0.16567   0.00000  Uiso   1.00
C144   C     0.97866   0.12525   0.16616   0.00000  Uiso   1.00
Cu145  Cu    0.83333   0.21355   0.16667   0.00000  Uiso   1.00
Cu146  Cu    0.83333   0.11978   0.16667   0.00000  Uiso   1.00
H147   H     0.70392   0.09294   0.16804   0.00000  Uiso   1.00
H148   H     0.85656   0.27101   0.29013   0.00000  Uiso   1.00
H149   H     0.89890   0.23163   0.28162   0.00000  Uiso   1.00
H150   H     0.90873   0.28521   0.31060   0.00000  Uiso   1.00
H151   H     0.91376   0.26670   0.20757   0.00000  Uiso   1.00
H152   H     0.91987   0.31557   0.23658   0.00000  Uiso   1.00
H153   H     0.92572   0.06010   0.22760   0.00000  Uiso   1.00
H154   H     0.90327   0.10719   0.25875   0.00000  Uiso   1.00
H155   H     0.92565   0.06146   0.29408   0.00000  Uiso   1.00
H156   H     0.84043   0.06149   0.27376   0.00000  Uiso   1.00
H157   H     0.86971   0.01738   0.28486   0.00000  Uiso   1.00
H158   H     0.96305   0.24000   0.16389   0.00000  Uiso   1.00
H159   H     0.81024   0.27105   0.04317   0.00000  Uiso   1.00
H160   H     0.76786   0.23168   0.05152   0.00000  Uiso   1.00
H161   H     0.75811   0.28530   0.02261   0.00000  Uiso   1.00
H162   H     0.75297   0.26661   0.12560   0.00000  Uiso   1.00
H163   H     0.74683   0.31552   0.09668   0.00000  Uiso   1.00
H164   H     0.96275   0.09294   0.16538   0.00000  Uiso   1.00
H165   H     0.70360   0.24001   0.16925   0.00000  Uiso   1.00
H166   H     0.74095   0.06009   0.10576   0.00000  Uiso   1.00
H167   H     0.76338   0.10718   0.07459   0.00000  Uiso   1.00
H168   H     0.74101   0.06145   0.03928   0.00000  Uiso   1.00
H169   H     0.82623   0.06151   0.05957   0.00000  Uiso   1.00
H170   H     0.79696   0.01741   0.04846   0.00000  Uiso   1.00
N171   N     0.83333   0.28402   0.16667   0.00000  Uiso   1.00
N172   N     0.83333   0.04931   0.16667   0.00000  Uiso   1.00
O173   O     0.77321   0.20625   0.16666   0.00000  Uiso   1.00
O174   O     0.89345   0.12709   0.16667   0.00000  Uiso   1.00
O175   O     0.89345   0.20625   0.16667   0.00000  Uiso   1.00
O176   O     0.77321   0.12709   0.16666   0.00000  Uiso   1.00
O177   O     0.83333   0.20625   0.09613   0.00000  Uiso   1.00
O178   O     0.83333   0.12708   0.23720   0.00000  Uiso   1.00
O179   O     0.83333   0.20625   0.23720   0.00000  Uiso   1.00
O180   O     0.83333   0.12708   0.09613   0.00000  Uiso   1.00
C181   C     0.08766   0.49997   0.16702   0.00000  Uiso   1.00
C182   C     0.02129   0.54098   0.16755   0.00000  Uiso   1.00
C183   C     0.29042   0.49984   0.16584   0.00000  Uiso   1.00
C184   C     0.04291   0.49984   0.16746   0.00000  Uiso   1.00
C185   C     0.14749   0.35735   0.12776   0.00000  Uiso   1.00
C186   C     0.19148   0.64239   0.20086   0.00000  Uiso   1.00
C187   C     0.18584   0.35735   0.20557   0.00000  Uiso   1.00
C188   C     0.14186   0.64238   0.13246   0.00000  Uiso   1.00
C189   C     0.13410   0.37768   0.07677   0.00000  Uiso   1.00
C190   C     0.09273   0.40326   0.07446   0.00000  Uiso   1.00
C191   C     0.22948   0.62213   0.22999   0.00000  Uiso   1.00
C192   C     0.24567   0.49997   0.16631   0.00000  Uiso   1.00
C193   C     0.22252   0.60112   0.28083   0.00000  Uiso   1.00
C194   C     0.19923   0.37767   0.25657   0.00000  Uiso   1.00
C195   C     0.24059   0.40326   0.25889   0.00000  Uiso   1.00
C196   C     0.10391   0.62210   0.10325   0.00000  Uiso   1.00
C197   C     0.11093   0.60116   0.05240   0.00000  Uiso   1.00
C198   C     0.16683   0.49999   0.07391   0.00000  Uiso   1.00
C199   C     0.16651   0.49999   0.25942   0.00000  Uiso   1.00
C200   C     0.16675   0.49992   0.02199   0.00000  Uiso   1.00
C201   C     0.16659   0.49993   0.31135   0.00000  Uiso   1.00
C202   C     0.02134   0.45858   0.16721   0.00000  Uiso   1.00
C203   C     0.31204   0.54098   0.16567   0.00000  Uiso   1.00
C204   C     0.31200   0.45858   0.16616   0.00000  Uiso   1.00
Cu205  Cu    0.16667   0.54689   0.16667   0.00000  Uiso   1.00
Cu206  Cu    0.16667   0.45311   0.16667   0.00000  Uiso   1.00
H207   H     0.03725   0.42628   0.16804   0.00000  Uiso   1.00
H208   H     0.18990   0.60434   0.29013   0.00000  Uiso   1.00
H209   H     0.23224   0.56496   0.28162   0.00000  Uiso   1.00
H210   H     0.24206   0.61854   0.31060   0.00000  Uiso   1.00
H211   H     0.24710   0.60003   0.20757   0.00000  Uiso   1.00
H212   H     0.25320   0.64891   0.23658   0.00000  Uiso   1.00
H213   H     0.25905   0.39344   0.22760   0.00000  Uiso   1.00
H214   H     0.23661   0.44052   0.25875   0.00000  Uiso   1.00
H215   H     0.25898   0.39479   0.29408   0.00000  Uiso   1.00
H216   H     0.17377   0.39483   0.27376   0.00000  Uiso   1.00
H217   H     0.20305   0.35071   0.28486   0.00000  Uiso   1.00
H218   H     0.29639   0.57334   0.16389   0.00000  Uiso   1.00
H219   H     0.14358   0.60438   0.04317   0.00000  Uiso   1.00
H220   H     0.10120   0.56501   0.05152   0.00000  Uiso   1.00
H221   H     0.09144   0.61864   0.02261   0.00000  Uiso   1.00
H222   H     0.08630   0.59994   0.12560   0.00000  Uiso   1.00
H223   H     0.08016   0.64885   0.09668   0.00000  Uiso   1.00
H224   H     0.29609   0.42628   0.16538   0.00000  Uiso   1.00
H225   H     0.03694   0.57334   0.16925   0.00000  Uiso   1.00
H226   H     0.07428   0.39343   0.10576   0.00000  Uiso   1.00
H227   H     0.09671   0.44052   0.07459   0.00000  Uiso   1.00
H228   H     0.07434   0.39478   0.03928   0.00000  Uiso   1.00
H229   H     0.15956   0.39484   0.05957   0.00000  Uiso   1.00
H230   H     0.13029   0.35074   0.04846   0.00000  Uiso   1.00
N231   N     0.16667   0.61736   0.16667   0.00000  Uiso   1.00
N232   N     0.16667   0.38264   0.16667   0.00000  Uiso   1.00
O233   O     0.10655   0.53958   0.16666   0.00000  Uiso   1.00
O234   O     0.22679   0.46042   0.16667   0.00000  Uiso   1.00
O235   O     0.22679   0.53958   0.16667   0.00000  Uiso   1.00
O236   O     0.10655   0.46042   0.16666   0.00000  Uiso   1.00
O237   O     0.16667   0.53959   0.09613   0.00000  Uiso   1.00
O238   O     0.16667   0.46041   0.23720   0.00000  Uiso   1.00
O239   O     0.16667   0.53959   0.23720   0.00000  Uiso   1.00
O240   O     0.16667   0.46041   0.09613   0.00000  Uiso   1.00
C241   C     0.42099   0.49997   0.16702   0.00000  Uiso   1.00
C242   C     0.35462   0.54098   0.16755   0.00000  Uiso   1.00
C243   C     0.62375   0.49984   0.16584   0.00000  Uiso   1.00
C244   C     0.37625   0.49984   0.16746   0.00000  Uiso   1.00
C245   C     0.48083   0.35735   0.12776   0.00000  Uiso   1.00
C246   C     0.52482   0.64239   0.20086   0.00000  Uiso   1.00
C247   C     0.51918   0.35735   0.20557   0.00000  Uiso   1.00
C248   C     0.47520   0.64238   0.13246   0.00000  Uiso   1.00
C249   C     0.46743   0.37768   0.07677   0.00000  Uiso   1.00
C250   C     0.42606   0.40326   0.07446   0.00000  Uiso   1.00
C251   C     0.56281   0.62213   0.22999   0.00000  Uiso   1.00
C252   C     0.57900   0.49997   0.16631   0.00000  Uiso   1.00
C253   C     0.55585   0.60112   0.28083   0.00000  Uiso   1.00
C254   C     0.53257   0.37767   0.25657   0.00000  Uiso   1.00
C255   C     0.57393   0.40326   0.25889   0.00000  Uiso   1.00
C256   C     0.43724   0.62210   0.10325   0.00000  Uiso   1.00
C257   C     0.44427   0.60116   0.05240   0.00000  Uiso   1.00
C258   C     0.50016   0.49999   0.07391   0.00000  Uiso   1.00
C259   C     0.49984   0.49999   0.25942   0.00000  Uiso   1.00
C260   C     0.50008   0.49992   0.02199   0.00000  Uiso   1.00
C261   C     0.49992   0.49993   0.31135   0.00000  Uiso   1.00
C262   C     0.35467   0.45858   0.16721   0.00000  Uiso   1.00
C263   C     0.64537   0.54098   0.16567   0.00000  Uiso   1.00
C264   C     0.64533   0.45858   0.16616   0.00000  Uiso   1.00
Cu265  Cu    0.50000   0.54689   0.16667   0.00000  Uiso   1.00
Cu266  Cu    0.50000   0.45311   0.16667   0.00000  Uiso   1.00
H267   H     0.37059   0.42628   0.16804   0.00000  Uiso   1.00
H268   H     0.52323   0.60434   0.29013   0.00000  Uiso   1.00
H269   H     0.56557   0.56496   0.28162   0.00000  Uiso   1.00
H270   H     0.57539   0.61854   0.31060   0.00000  Uiso   1.00
H271   H     0.58043   0.60003   0.20757   0.00000  Uiso   1.00
H272   H     0.58653   0.64891   0.23658   0.00000  Uiso   1.00
H273   H     0.59238   0.39344   0.22760   0.00000  Uiso   1.00
H274   H     0.56994   0.44052   0.25875   0.00000  Uiso   1.00
H275   H     0.59231   0.39479   0.29408   0.00000  Uiso   1.00
H276   H     0.50710   0.39483   0.27376   0.00000  Uiso   1.00
H277   H     0.53638   0.35071   0.28486   0.00000  Uiso   1.00
H278   H     0.62972   0.57334   0.16389   0.00000  Uiso   1.00
H279   H     0.47691   0.60438   0.04317   0.00000  Uiso   1.00
H280   H     0.43453   0.56501   0.05152   0.00000  Uiso   1.00
H281   H     0.42477   0.61864   0.02261   0.00000  Uiso   1.00
H282   H     0.41963   0.59994   0.12560   0.00000  Uiso   1.00
H283   H     0.41349   0.64885   0.09668   0.00000  Uiso   1.00
H284   H     0.62942   0.42628   0.16538   0.00000  Uiso   1.00
H285   H     0.37027   0.57334   0.16925   0.00000  Uiso   1.00
H286   H     0.40762   0.39343   0.10576   0.00000  Uiso   1.00
H287   H     0.43004   0.44052   0.07459   0.00000  Uiso   1.00
H288   H     0.40767   0.39478   0.03928   0.00000  Uiso   1.00
H289   H     0.49289   0.39484   0.05957   0.00000  Uiso   1.00
H290   H     0.46363   0.35074   0.04846   0.00000  Uiso   1.00
N291   N     0.50000   0.61736   0.16667   0.00000  Uiso   1.00
N292   N     0.50000   0.38264   0.16667   0.00000  Uiso   1.00
O293   O     0.43988   0.53958   0.16666   0.00000  Uiso   1.00
O294   O     0.56012   0.46042   0.16667   0.00000  Uiso   1.00
O295   O     0.56012   0.53958   0.16667   0.00000  Uiso   1.00
O296   O     0.43988   0.46042   0.16666   0.00000  Uiso   1.00
O297   O     0.50000   0.53959   0.09613   0.00000  Uiso   1.00
O298   O     0.50000   0.46041   0.23720   0.00000  Uiso   1.00
O299   O     0.50000   0.53959   0.23720   0.00000  Uiso   1.00
O300   O     0.50000   0.46041   0.09613   0.00000  Uiso   1.00
C301   C     0.75433   0.49997   0.16702   0.00000  Uiso   1.00
C302   C     0.68796   0.54098   0.16755   0.00000  Uiso   1.00
C303   C     0.95709   0.49984   0.16584   0.00000  Uiso   1.00
C304   C     0.70958   0.49984   0.16746   0.00000  Uiso   1.00
C305   C     0.81416   0.35735   0.12776   0.00000  Uiso   1.00
C306   C     0.85815   0.64239   0.20086   0.00000  Uiso   1.00
C307   C     0.85251   0.35735   0.20557   0.00000  Uiso   1.00
C308   C     0.80853   0.64238   0.13246   0.00000  Uiso   1.00
C309   C     0.80076   0.37768   0.07677   0.00000  Uiso   1.00
C310   C     0.75940   0.40326   0.07446   0.00000  Uiso   1.00
C311   C     0.89614   0.62213   0.22999   0.00000  Uiso   1.00
C312   C     0.91234   0.49997   0.16631   0.00000  Uiso   1.00
C313   C     0.88919   0.60112   0.28083   0.00000  Uiso   1.00
C314   C     0.86590   0.37767   0.25657   0.00000  Uiso   1.00
C315   C     0.90726   0.40326   0.25889   0.00000  Uiso   1.00
C316   C     0.77058   0.62210   0.10325   0.00000  Uiso   1.00
C317   C     0.77760   0.60116   0.05240   0.00000  Uiso   1.00
C318   C     0.83350   0.49999   0.07391   0.00000  Uiso   1.00
C319   C     0.83317   0.49999   0.25942   0.00000  Uiso   1.00
C320   C     0.83342   0.49992   0.02199   0.00000  Uiso   1.00
C321   C     0.83325   0.49993   0.31135   0.00000  Uiso   1.00
C322   C     0.68801   0.45858   0.16721   0.00000  Uiso   1.00
C323   C     0.97870   0.54098   0.16567   0.00000  Uiso   1.00
C324   C     0.97866   0.45858   0.16616   0.00000  Uiso   1.00
Cu325  Cu    0.83333   0.54689   0.16667   0.00000  Uiso   1.00
Cu326  Cu    0.83333   0.45311   0.16667   0.00000  Uiso   1.00
H327   H     0.70392   0.42628   0.16804   0.00000  Uiso   1.00
H328   H     0.85656   0.60434   0.29013   0.00000  Uiso   1.00
H329   H     0.89890   0.56496   0.28162   0.00000  Uiso   1.00
H330   H     0.90873   0.61854   0.31060   0.00000  Uiso   1.00
H331   H     0.91376   0.60003   0.20757   0.00000  Uiso   1.00
H332   H     0.91987   0.64891   0.23658   0.00000  Uiso   1.00
H333   H     0.92572   0.39344   0.22760   0.00000  Uiso   1.00
H334   H     0.90327   0.44052   0.25875   0.00000  Uiso   1.00
H335   H     0.92565   0.39479   0.29408   0.00000  Uiso   1.00
H336   H     0.84043   0.39483   0.27376   0.00000  Uiso   1.00
H337   H     0.86971   0.35071   0.28486   0.00000  Uiso   1.00
H338   H     0.96305   0.57334   0.16389   0.00000  Uiso   1.00
H339   H     0.81024   0.60438   0.04317   0.00000  Uiso   1.00
H340   H     0.76786   0.56501   0.05152   0.00000  Uiso   1.00
H341   H     0.75811   0.61864   0.02261   0.00000  Uiso   1.00
H342   H     0.75297   0.59994   0.12560   0.00000  Uiso   1.00
H343   H     0.74683   0.64885   0.09668   0.00000  Uiso   1.00
H344   H     0.96275   0.42628   0.16538   0.00000  Uiso   1.00
H345   H     0.70360   0.57334   0.16925   0.00000  Uiso   1.00
H346   H     0.74095   0.39343   0.10576   0.00000  Uiso   1.00
H347   H     0.76338   0.44052   0.07459   0.00000  Uiso   1.00
H348   H     0.74101   0.39478   0.03928   0.00000  Uiso   1.00
H349   H     0.82623   0.39484   0.05957   0.00000  Uiso   1.00
H350   H     0.79696   0.35074   0.04846   0.00000  Uiso   1.00
N351   N     0.83333   0.61736   0.16667   0.00000  Uiso   1.00
N352   N     0.83333   0.38264   0.16667   0.00000  Uiso   1.00
O353   O     0.77321   0.53958   0.16666   0.00000  Uiso   1.00
O354   O     0.89345   0.46042   0.16667   0.00000  Uiso   1.00
O355   O     0.89345   0.53958   0.16667   0.00000  Uiso   1.00
O356   O     0.77321   0.46042   0.16666   0.00000  Uiso   1.00
O357   O     0.83333   0.53959   0.09613   0.00000  Uiso   1.00
O358   O     0.83333   0.46041   0.23720   0.00000  Uiso   1.00
O359   O     0.83333   0.53959   0.23720   0.00000  Uiso   1.00
O360   O     0.83333   0.46041   0.09613   0.00000  Uiso   1.00
C361   C     0.08766   0.83331   0.16702   0.00000  Uiso   1.00
C362   C     0.02129   0.87432   0.16755   0.00000  Uiso   1.00
C363   C     0.29042   0.83317   0.16584   0.00000  Uiso   1.00
C364   C     0.04291   0.83317   0.16746   0.00000  Uiso   1.00
C365   C     0.14749   0.69068   0.12776   0.00000  Uiso   1.00
C366   C     0.19148   0.97572   0.20086   0.00000  Uiso   1.00
C367   C     0.18584   0.69068   0.20557   0.00000  Uiso   1.00
C368   C     0.14186   0.97572   0.13246   0.00000  Uiso   1.00
C369   C     0.13410   0.71101   0.07677   0.00000  Uiso   1.00
C370   C     0.09273   0.73659   0.07446   0.00000  Uiso   1.00
C371   C     0.22948   0.95546   0.22999   0.00000  Uiso   1.00
C372   C     0.24567   0.83331   0.16631   0.00000  Uiso   1.00
C373   C     0.22252   0.93445   0.28083   0.00000  Uiso   1.00
C374   C     0.19923   0.71100   0.25657   0.00000  Uiso   1.00
C375   C     0.24059   0.73659   0.25889   0.00000  Uiso   1.00
C376   C     0.10391   0.95543   0.10325   0.00000  Uiso   1.00
C377   C     0.11093   0.93450   0.05240   0.00000  Uiso   1.00
C378   C     0.16683   0.83332   0.07391   0.00000  Uiso   1.00
C379   C     0.16651   0.83332   0.25942   0.00000  Uiso   1.00
C380   C     0.16675   0.83326   0.02199   0.00000  Uiso   1.00
C381   C     0.16659   0.83326   0.31135   0.00000  Uiso   1.00
C382   C     0.02134   0.79191   0.16721   0.00000  Uiso   1.00
C383   C     0.31204   0.87432   0.16567   0.00000  Uiso   1.00
C384   C     0.31200   0.79191   0.16616   0.00000  Uiso   1.00
Cu385  Cu    0.16667   0.88022   0.16667   0.00000  Uiso   1.00
Cu386  Cu    0.16667   0.78645   0.16667   0.00000  Uiso   1.00
H387   H     0.03725   0.75961   0.16804   0.00000  Uiso   1.00
H388   H     0.18990   0.93767   0.29013   0.00000  Uiso   1.00
H389   H     0.23224   0.89829   0.28162   0.00000  Uiso   1.00
H390   H     0.24206   0.95188   0.31060   0.00000  Uiso   1.00
H391   H     0.24710   0.93337   0.20757   0.00000  Uiso   1.00
H392   H     0.25320   0.98224   0.23658   0.00000  Uiso   1.00
H393   H     0.25905   0.72677   0.22760   0.00000  Uiso   1.00
H394   H     0.23661   0.77385   0.25875   0.00000  Uiso   1.00
H395   H     0.25898   0.72812   0.29408   0.00000  Uiso   1.00
H396   H     0.17377   0.72816   0.27376   0.00000  Uiso   1.00
H397   H     0.20305   0.68404   0.28486   0.00000  Uiso   1.00
H398   H     0.29639   0.90667   0.16389   0.00000  Uiso   1.00
H399   H     0.14358   0.93772   0.04317   0.00000  Uiso   1.00
H400   H     0.10120   0.89834   0.05152   0.00000  Uiso   1.00
H401   H     0.09144   0.95197   0.02261   0.00000  Uiso   1.00
H402   H     0.08630   0.93328   0.12560   0.00000  Uiso   1.00
H403   H     0.08016   0.98219   0.09668   0.00000  Uiso   1.00
H404   H     0.29609   0.75961   0.16538   0.00000  Uiso   1.00
H405   H     0.03694   0.90668   0.16925   0.00000  Uiso   1.00
H406   H     0.07428   0.72676   0.10576   0.00000  Uiso   1.00
H407   H     0.09671   0.77385   0.07459   0.00000  Uiso   1.00
H408   H     0.07434   0.72811   0.03928   0.00000  Uiso   1.00
H409   H     0.15956   0.72817   0.05957   0.00000  Uiso   1.00
H410   H     0.13029   0.68407   0.04846   0.00000  Uiso   1.00
N411   N     0.16667   0.95069   0.16667   0.00000  Uiso   1.00
N412   N     0.16667   0.71598   0.16667   0.00000  Uiso   1.00
O413   O     0.10655   0.87291   0.16666   0.00000  Uiso   1.00
O414   O     0.22679   0.79375   0.16667   0.00000  Uiso   1.00
O415   O     0.22679   0.87291   0.16667   0.00000  Uiso   1.00
O416   O     0.10655   0.79375   0.16666   0.00000  Uiso   1.00
O417   O     0.16667   0.87292   0.09613   0.00000  Uiso   1.00
O418   O     0.16667   0.79375   0.23720   0.00000  Uiso   1.00
O419   O     0.16667   0.87292   0.23720   0.00000  Uiso   1.00
O420   O     0.16667   0.79375   0.09613   0.00000  Uiso   1.00
C421   C     0.42099   0.83331   0.16702   0.00000  Uiso   1.00
C422   C     0.35462   0.87432   0.16755   0.00000  Uiso   1.00
C423   C     0.62375   0.83317   0.16584   0.00000  Uiso   1.00
C424   C     0.37625   0.83317   0.16746   0.00000  Uiso   1.00
C425   C     0.48083   0.69068   0.12776   0.00000  Uiso   1.00
C426   C     0.52482   0.97572   0.20086   0.00000  Uiso   1.00
C427   C     0.51918   0.69068   0.20557   0.00000  Uiso   1.00
C428   C     0.47520   0.97572   0.13246   0.00000  Uiso   1.00
C429   C     0.46743   0.71101   0.07677   0.00000  Uiso   1.00
C430   C     0.42606   0.73659   0.07446   0.00000  Uiso   1.00
C431   C     0.56281   0.95546   0.22999   0.00000  Uiso   1.00
C432   C     0.57900   0.83331   0.16631   0.00000  Uiso   1.00
C433   C     0.55585   0.93445   0.28083   0.00000  Uiso   1.00
C434   C     0.53257   0.71100   0.25657   0.00000  Uiso   1.00
C435   C     0.57393   0.73659   0.25889   0.00000  Uiso   1.00
C436   C     0.43724   0.95543   0.10325   0.00000  Uiso   1.00
C437   C     0.44427   0.93450   0.05240   0.00000  Uiso   1.00
C438   C     0.50016   0.83332   0.07391   0.00000  Uiso   1.00
C439   C     0.49984   0.83332   0.25942   0.00000  Uiso   1.00
C440   C     0.50008   0.83326   0.02199   0.00000  Uiso   1.00
C441   C     0.49992   0.83326   0.31135   0.00000  Uiso   1.00
C442   C     0.35467   0.79191   0.16721   0.00000  Uiso   1.00
C443   C     0.64537   0.87432   0.16567   0.00000  Uiso   1.00
C444   C     0.64533   0.79191   0.16616   0.00000  Uiso   1.00
Cu445  Cu    0.50000   0.88022   0.16667   0.00000  Uiso   1.00
Cu446  Cu    0.50000   0.78645   0.16667   0.00000  Uiso   1.00
H447   H     0.37059   0.75961   0.16804   0.00000  Uiso   1.00
H448   H     0.52323   0.93767   0.29013   0.00000  Uiso   1.00
H449   H     0.56557   0.89829   0.28162   0.00000  Uiso   1.00
H450   H     0.57539   0.95188   0.31060   0.00000  Uiso   1.00
H451   H     0.58043   0.93337   0.20757   0.00000  Uiso   1.00
H452   H     0.58653   0.98224   0.23658   0.00000  Uiso   1.00
H453   H     0.59238   0.72677   0.22760   0.00000  Uiso   1.00
H454   H     0.56994   0.77385   0.25875   0.00000  Uiso   1.00
H455   H     0.59231   0.72812   0.29408   0.00000  Uiso   1.00
H456   H     0.50710   0.72816   0.27376   0.00000  Uiso   1.00
H457   H     0.53638   0.68404   0.28486   0.00000  Uiso   1.00
H458   H     0.62972   0.90667   0.16389   0.00000  Uiso   1.00
H459   H     0.47691   0.93772   0.04317   0.00000  Uiso   1.00
H460   H     0.43453   0.89834   0.05152   0.00000  Uiso   1.00
H461   H     0.42477   0.95197   0.02261   0.00000  Uiso   1.00
H462   H     0.41963   0.93328   0.12560   0.00000  Uiso   1.00
H463   H     0.41349   0.98219   0.09668   0.00000  Uiso   1.00
H464   H     0.62942   0.75961   0.16538   0.00000  Uiso   1.00
H465   H     0.37027   0.90668   0.16925   0.00000  Uiso   1.00
H466   H     0.40762   0.72676   0.10576   0.00000  Uiso   1.00
H467   H     0.43004   0.77385   0.07459   0.00000  Uiso   1.00
H468   H     0.40767   0.72811   0.03928   0.00000  Uiso   1.00
H469   H     0.49289   0.72817   0.05957   0.00000  Uiso   1.00
H470   H     0.46363   0.68407   0.04846   0.00000  Uiso   1.00
N471   N     0.50000   0.95069   0.16667   0.00000  Uiso   1.00
N472   N     0.50000   0.71598   0.16667   0.00000  Uiso   1.00
O473   O     0.43988   0.87291   0.16666   0.00000  Uiso   1.00
O474   O     0.56012   0.79375   0.16667   0.00000  Uiso   1.00
O475   O     0.56012   0.87291   0.16667   0.00000  Uiso   1.00
O476   O     0.43988   0.79375   0.16666   0.00000  Uiso   1.00
O477   O     0.50000   0.87292   0.09613   0.00000  Uiso   1.00
O478   O     0.50000   0.79375   0.23720   0.00000  Uiso   1.00
O479   O     0.50000   0.87292   0.23720   0.00000  Uiso   1.00
O480   O     0.50000   0.79375   0.09613   0.00000  Uiso   1.00
C481   C     0.75433   0.83331   0.16702   0.00000  Uiso   1.00
C482   C     0.68796   0.87432   0.16755   0.00000  Uiso   1.00
C483   C     0.95709   0.83317   0.16584   0.00000  Uiso   1.00
C484   C     0.70958   0.83317   0.16746   0.00000  Uiso   1.00
C485   C     0.81416   0.69068   0.12776   0.00000  Uiso   1.00
C486   C     0.85815   0.97572   0.20086   0.00000  Uiso   1.00
C487   C     0.85251   0.69068   0.20557   0.00000  Uiso   1.00
C488   C     0.80853   0.97572   0.13246   0.00000  Uiso   1.00
C489   C     0.80076   0.71101   0.07677   0.00000  Uiso   1.00
C490   C     0.75940   0.73659   0.07446   0.00000  Uiso   1.00
C491   C     0.89614   0.95546   0.22999   0.00000  Uiso   1.00
C492   C     0.91234   0.83331   0.16631   0.00000  Uiso   1.00
C493   C     0.88919   0.93445   0.28083   0.00000  Uiso   1.00
C494   C     0.86590   0.71100   0.25657   0.00000  Uiso   1.00
C495   C     0.90726   0.73659   0.25889   0.00000  Uiso   1.00
C496   C     0.77058   0.95543   0.10325   0.00000  Uiso   1.00
C497   C     0.77760   0.93450   0.05240   0.00000  Uiso   1.00
C498   C     0.83350   0.83332   0.07391   0.00000  Uiso   1.00
C499   C     0.83317   0.83332   0.25942   0.00000  Uiso   1.00
C500   C     0.83342   0.83326   0.02199   0.00000  Uiso   1.00
C501   C     0.83325   0.83326   0.31135   0.00000  Uiso   1.00
C502   C     0.68801   0.79191   0.16721   0.00000  Uiso   1.00
C503   C     0.97870   0.87432   0.16567   0.00000  Uiso   1.00
C504   C     0.97866   0.79191   0.16616   0.00000  Uiso   1.00
Cu505  Cu    0.83333   0.88022   0.16667   0.00000  Uiso   1.00
Cu506  Cu    0.83333   0.78645   0.16667   0.00000  Uiso   1.00
H507   H     0.70392   0.75961   0.16804   0.00000  Uiso   1.00
H508   H     0.85656   0.93767   0.29013   0.00000  Uiso   1.00
H509   H     0.89890   0.89829   0.28162   0.00000  Uiso   1.00
H510   H     0.90873   0.95188   0.31060   0.00000  Uiso   1.00
H511   H     0.91376   0.93337   0.20757   0.00000  Uiso   1.00
H512   H     0.91987   0.98224   0.23658   0.00000  Uiso   1.00
H513   H     0.92572   0.72677   0.22760   0.00000  Uiso   1.00
H514   H     0.90327   0.77385   0.25875   0.00000  Uiso   1.00
H515   H     0.92565   0.72812   0.29408   0.00000  Uiso   1.00
H516   H     0.84043   0.72816   0.27376   0.00000  Uiso   1.00
H517   H     0.86971   0.68404   0.28486   0.00000  Uiso   1.00
H518   H     0.96305   0.90667   0.16389   0.00000  Uiso   1.00
H519   H     0.81024   0.93772   0.04317   0.00000  Uiso   1.00
H520   H     0.76786   0.89834   0.05152   0.00000  Uiso   1.00
H521   H     0.75811   0.95197   0.02261   0.00000  Uiso   1.00
H522   H     0.75297   0.93328   0.12560   0.00000  Uiso   1.00
H523   H     0.74683   0.98219   0.09668   0.00000  Uiso   1.00
H524   H     0.96275   0.75961   0.16538   0.00000  Uiso   1.00
H525   H     0.70360   0.90668   0.16925   0.00000  Uiso   1.00
H526   H     0.74095   0.72676   0.10576   0.00000  Uiso   1.00
H527   H     0.76338   0.77385   0.07459   0.00000  Uiso   1.00
H528   H     0.74101   0.72811   0.03928   0.00000  Uiso   1.00
H529   H     0.82623   0.72817   0.05957   0.00000  Uiso   1.00
H530   H     0.79696   0.68407   0.04846   0.00000  Uiso   1.00
N531   N     0.83333   0.95069   0.16667   0.00000  Uiso   1.00
N532   N     0.83333   0.71598   0.16667   0.00000  Uiso   1.00
O533   O     0.77321   0.87291   0.16666   0.00000  Uiso   1.00
O534   O     0.89345   0.79375   0.16667   0.00000  Uiso   1.00
O535   O     0.89345   0.87291   0.16667   0.00000  Uiso   1.00
O536   O     0.77321   0.79375   0.16666   0.00000  Uiso   1.00
O537   O     0.83333   0.87292   0.09613   0.00000  Uiso   1.00
O538   O     0.83333   0.79375   0.23720   0.00000  Uiso   1.00
O539   O     0.83333   0.87292   0.23720   0.00000  Uiso   1.00
O540   O     0.83333   0.79375   0.09613   0.00000  Uiso   1.00
C541   C     0.08766   0.16664   0.50035   0.00000  Uiso   1.00
C542   C     0.02129   0.20765   0.50088   0.00000  Uiso   1.00
C543   C     0.29042   0.16651   0.49917   0.00000  Uiso   1.00
C544   C     0.04291   0.16651   0.50080   0.00000  Uiso   1.00
C545   C     0.14749   0.02402   0.46109   0.00000  Uiso   1.00
C546   C     0.19148   0.30905   0.53419   0.00000  Uiso   1.00
C547   C     0.18584   0.02402   0.53890   0.00000  Uiso   1.00
C548   C     0.14186   0.30905   0.46579   0.00000  Uiso   1.00
C549   C     0.13410   0.04435   0.41010   0.00000  Uiso   1.00
C550   C     0.09273   0.06992   0.40779   0.00000  Uiso   1.00
C551   C     0.22948   0.28879   0.56333   0.00000  Uiso   1.00
C552   C     0.24567   0.16664   0.49964   0.00000  Uiso   1.00
C553   C     0.22252   0.26778   0.61416   0.00000  Uiso   1.00
C554   C     0.19923   0.04434   0.58990   0.00000  Uiso   1.00
C555   C     0.24059   0.06993   0.59223   0.00000  Uiso   1.00
C556   C     0.10391   0.28877   0.43658   0.00000  Uiso   1.00
C557   C     0.11093   0.26783   0.38573   0.00000  Uiso   1.00
C558   C     0.16683   0.16665   0.40725   0.00000  Uiso   1.00
C559   C     0.16651   0.16665   0.59275   0.00000  Uiso   1.00
C560   C     0.16675   0.16659   0.35532   0.00000  Uiso   1.00
C561   C     0.16659   0.16659   0.64468   0.00000  Uiso   1.00
C562   C     0.02134   0.12525   0.50054   0.00000  Uiso   1.00
C563   C     0.31204   0.20765   0.49900   0.00000  Uiso   1.00
C564   C     0.31200   0.12525   0.49949   0.00000  Uiso   1.00
Cu565  Cu    0.16667   0.21355   0.50000   0.00000  Uiso   1.00
Cu566  Cu    0.16667   0.11978   0.50000   0.00000  Uiso   1.00
H567   H     0.03725   0.09294   0.50137   0.00000  Uiso   1.00
H568   H     0.18990   0.27101   0.62347   0.00000  Uiso   1.00
H569   H     0.23224   0.23163   0.61495   0.00000  Uiso   1.00
H570   H     0.24206   0.28521   0.64394   0.00000  Uiso   1.00
H571   H     0.24710   0.26670   0.54090   0.00000  Uiso   1.00
H572   H     0.25320   0.31557   0.56991   0.00000  Uiso   1.00
H573   H     0.25905   0.06010   0.56093   0.00000  Uiso   1.00
H574   H     0.23661   0.10719   0.59208   0.00000  Uiso   1.00
H575   H     0.25898   0.06146   0.62741   0.00000  Uiso   1.00
H576   H     0.17377   0.06149   0.60710   0.00000  Uiso   1.00
H577   H     0.20305   0.01738   0.61819   0.00000  Uiso   1.00
H578   H     0.29639   0.24000   0.49723   0.00000  Uiso   1.00
H579   H     0.14358   0.27105   0.37650   0.00000  Uiso   1.00
H580   H     0.10120   0.23168   0.38485   0.00000  Uiso   1.00
H581   H     0.09144   0.28530   0.35595   0.00000  Uiso   1.00
H582   H     0.08630   0.26661   0.45894   0.00000  Uiso   1.00
H583   H     0.08016   0.31552   0.43002   0.00000  Uiso   1.00
H584   H     0.29609   0.09294   0.49872   0.00000  Uiso   1.00
H585   H     0.03694   0.24001   0.50258   0.00000  Uiso   1.00
H586   H     0.07428   0.06009   0.43909   0.00000  Uiso   1.00
H587   H     0.09671   0.10718   0.40793   0.00000  Uiso   1.00
H588   H     0.07434   0.06145   0.37261   0.00000  Uiso   1.00
H589   H     0.15956   0.06151   0.39291   0.00000  Uiso   1.00
H590   H     0.13029   0.01741   0.38179   0.00000  Uiso   1.00
N591   N     0.16667   0.28402   0.50000   0.00000  Uiso   1.00
N592   N     0.16667   0.04931   0.50000   0.00000  Uiso   1.00
O593   O     0.10655   0.20625   0.50000   0.00000  Uiso   1.00
O594   O     0.22679   0.12709   0.50000   0.00000  Uiso   1.00
O595   O     0.22679   0.20625   0.50000   0.00000  Uiso   1.00
O596   O     0.10655   0.12709   0.50000   0.00000  Uiso   1.00
O597   O     0.16667   0.20625   0.42946   0.00000  Uiso   1.00
O598   O     0.16667   0.12708   0.57054   0.00000  Uiso   1.00
O599   O     0.16667   0.20625   0.57054   0.00000  Uiso   1.00
O600   O     0.16667   0.12708   0.42946   0.00000  Uiso   1.00
C601   C     0.42099   0.16664   0.50035   0.00000  Uiso   1.00
C602   C     0.35462   0.20765   0.50088   0.00000  Uiso   1.00
C603   C     0.62375   0.16651   0.49917   0.00000  Uiso   1.00
C604   C     0.37625   0.16651   0.50080   0.00000  Uiso   1.00
C605   C     0.48083   0.02402   0.46109   0.00000  Uiso   1.00
C606   C     0.52482   0.30905   0.53419   0.00000  Uiso   1.00
C607   C     0.51918   0.02402   0.53890   0.00000  Uiso   1.00
C608   C     0.47520   0.30905   0.46579   0.00000  Uiso   1.00
C609   C     0.46743   0.04435   0.41010   0.00000  Uiso   1.00
C610   C     0.42606   0.06992   0.40779   0.00000  Uiso   1.00
C611   C     0.56281   0.28879   0.56333   0.00000  Uiso   1.00
C612   C     0.57900   0.16664   0.49964   0.00000  Uiso   1.00
C613   C     0.55585   0.26778   0.61416   0.00000  Uiso   1.00
C614   C     0.53257   0.04434   0.58990   0.00000  Uiso   1.00
C615   C     0.57393   0.06993   0.59223   0.00000  Uiso   1.00
C616   C     0.43724   0.28877   0.43658   0.00000  Uiso   1.00
C617   C     0.44427   0.26783   0.38573   0.00000  Uiso   1.00
C618   C     0.50016   0.16665   0.40725   0.00000  Uiso   1.00
C619   C     0.49984   0.16665   0.59275   0.00000  Uiso   1.00
C620   C     0.50008   0.16659   0.35532   0.00000  Uiso   1.00
C621   C     0.49992   0.16659   0.64468   0.00000  Uiso   1.00
C622   C     0.35467   0.12525   0.50054   0.00000  Uiso   1.00
C623   C     0.64537   0.20765   0.49900   0.00000  Uiso   1.00
C624   C     0.64533   0.12525   0.49949   0.00000  Uiso   1.00
Cu625  Cu    0.50000   0.21355   0.50000   0.00000  Uiso   1.00
Cu626  Cu    0.50000   0.11978   0.50000   0.00000  Uiso   1.00
H627   H     0.37059   0.09294   0.50137   0.00000  Uiso   1.00
H628   H     0.52323   0.27101   0.62347   0.00000  Uiso   1.00
H629   H     0.56557   0.23163   0.61495   0.00000  Uiso   1.00
H630   H     0.57539   0.28521   0.64394   0.00000  Uiso   1.00
H631   H     0.58043   0.26670   0.54090   0.00000  Uiso   1.00
H632   H     0.58653   0.31557   0.56991   0.00000  Uiso   1.00
H633   H     0.59238   0.06010   0.56093   0.00000  Uiso   1.00
H634   H     0.56994   0.10719   0.59208   0.00000  Uiso   1.00
H635   H     0.59231   0.06146   0.62741   0.00000  Uiso   1.00
H636   H     0.50710   0.06149   0.60710   0.00000  Uiso   1.00
H637   H     0.53638   0.01738   0.61819   0.00000  Uiso   1.00
H638   H     0.62972   0.24000   0.49723   0.00000  Uiso   1.00
H639   H     0.47691   0.27105   0.37650   0.00000  Uiso   1.00
H640   H     0.43453   0.23168   0.38485   0.00000  Uiso   1.00
H641   H     0.42477   0.28530   0.35595   0.00000  Uiso   1.00
H642   H     0.41963   0.26661   0.45894   0.00000  Uiso   1.00
H643   H     0.41349   0.31552   0.43002   0.00000  Uiso   1.00
H644   H     0.62942   0.09294   0.49872   0.00000  Uiso   1.00
H645   H     0.37027   0.24001   0.50258   0.00000  Uiso   1.00
H646   H     0.40762   0.06009   0.43909   0.00000  Uiso   1.00
H647   H     0.43004   0.10718   0.40793   0.00000  Uiso   1.00
H648   H     0.40767   0.06145   0.37261   0.00000  Uiso   1.00
H649   H     0.49289   0.06151   0.39291   0.00000  Uiso   1.00
H650   H     0.46363   0.01741   0.38179   0.00000  Uiso   1.00
N651   N     0.50000   0.28402   0.50000   0.00000  Uiso   1.00
N652   N     0.50000   0.04931   0.50000   0.00000  Uiso   1.00
O653   O     0.43988   0.20625   0.50000   0.00000  Uiso   1.00
O654   O     0.56012   0.12709   0.50000   0.00000  Uiso   1.00
O655   O     0.56012   0.20625   0.50000   0.00000  Uiso   1.00
O656   O     0.43988   0.12709   0.50000   0.00000  Uiso   1.00
O657   O     0.50000   0.20625   0.42946   0.00000  Uiso   1.00
O658   O     0.50000   0.12708   0.57054   0.00000  Uiso   1.00
O659   O     0.50000   0.20625   0.57054   0.00000  Uiso   1.00
O660   O     0.50000   0.12708   0.42946   0.00000  Uiso   1.00
C661   C     0.75433   0.16664   0.50035   0.00000  Uiso   1.00
C662   C     0.68796   0.20765   0.50088   0.00000  Uiso   1.00
C663   C     0.95709   0.16651   0.49917   0.00000  Uiso   1.00
C664   C     0.70958   0.16651   0.50080   0.00000  Uiso   1.00
C665   C     0.81416   0.02402   0.46109   0.00000  Uiso   1.00
C666   C     0.85815   0.30905   0.53419   0.00000  Uiso   1.00
C667   C     0.85251   0.02402   0.53890   0.00000  Uiso   1.00
C668   C     0.80853   0.30905   0.46579   0.00000  Uiso   1.00
C669   C     0.80076   0.04435   0.41010   0.00000  Uiso   1.00
C670   C     0.75940   0.06992   0.40779   0.00000  Uiso   1.00
C671   C     0.89614   0.28879   0.56333   0.00000  Uiso   1.00
C672   C     0.91234   0.16664   0.49964   0.00000  Uiso   1.00
C673   C     0.88919   0.26778   0.61416   0.00000  Uiso   1.00
C674   C     0.86590   0.04434   0.58990   0.00000  Uiso   1.00
C675   C     0.90726   0.06993   0.59223   0.00000  Uiso   1.00
C676   C     0.77058   0.28877   0.43658   0.00000  Uiso   1.00
C677   C     0.77760   0.26783   0.38573   0.00000  Uiso   1.00
C678   C     0.83350   0.16665   0.40725   0.00000  Uiso   1.00
C679   C     0.83317   0.16665   0.59275   0.00000  Uiso   1.00
C680   C     0.83342   0.16659   0.35532   0.00000  Uiso   1.00
C681   C     0.83325   0.16659   0.64468   0.00000  Uiso   1.00
C682   C     0.68801   0.12525   0.50054   0.00000  Uiso   1.00
C683   C     0.97870   0.20765   0.49900   0.00000  Uiso   1.00
C684   C     0.97866   0.12525   0.49949   0.00000  Uiso   1.00
Cu685  Cu    0.83333   0.21355   0.50000   0.00000  Uiso   1.00
Cu686  Cu    0.83333   0.11978   0.50000   0.00000  Uiso   1.00
H687   H     0.70392   0.09294   0.50137   0.00000  Uiso   1.00
H688   H     0.85656   0.27101   0.62347   0.00000  Uiso   1.00
H689   H     0.89890   0.23163   0.61495   0.00000  Uiso   1.00
H690   H     0.90873   0.28521   0.64394   0.00000  Uiso   1.00
H691   H     0.91376   0.26670   0.54090   0.00000  Uiso   1.00
H692   H     0.91987   0.31557   0.56991   0.00000  Uiso   1.00
H693   H     0.92572   0.06010   0.56093   0.00000  Uiso   1.00
H694   H     0.90327   0.10719   0.59208   0.00000  Uiso   1.00
H695   H     0.92565   0.06146   0.62741   0.00000  Uiso   1.00
H696   H     0.84043   0.06149   0.60710   0.00000  Uiso   1.00
H697   H     0.86971   0.01738   0.61819   0.00000  Uiso   1.00
H698   H     0.96305   0.24000   0.49723   0.00000  Uiso   1.00
H699   H     0.81024   0.27105   0.37650   0.00000  Uiso   1.00
H700   H     0.76786   0.23168   0.38485   0.00000  Uiso   1.00
H701   H     0.75811   0.28530   0.35595   0.00000  Uiso   1.00
H702   H     0.75297   0.26661   0.45894   0.00000  Uiso   1.00
H703   H     0.74683   0.31552   0.43002   0.00000  Uiso   1.00
H704   H     0.96275   0.09294   0.49872   0.00000  Uiso   1.00
H705   H     0.70360   0.24001   0.50258   0.00000  Uiso   1.00
H706   H     0.74095   0.06009   0.43909   0.00000  Uiso   1.00
H707   H     0.76338   0.10718   0.40793   0.00000  Uiso   1.00
H708   H     0.74101   0.06145   0.37261   0.00000  Uiso   1.00
H709   H     0.82623   0.06151   0.39291   0.00000  Uiso   1.00
H710   H     0.79696   0.01741   0.38179   0.00000  Uiso   1.00
N711   N     0.83333   0.28402   0.50000   0.00000  Uiso   1.00
N712   N     0.83333   0.04931   0.50000   0.00000  Uiso   1.00
O713   O     0.77321   0.20625   0.50000   0.00000  Uiso   1.00
O714   O     0.89345   0.12709   0.50000   0.00000  Uiso   1.00
O715   O     0.89345   0.20625   0.50000   0.00000  Uiso   1.00
O716   O     0.77321   0.12709   0.50000   0.00000  Uiso   1.00
O717   O     0.83333   0.20625   0.42946   0.00000  Uiso   1.00
O718   O     0.83333   0.12708   0.57054   0.00000  Uiso   1.00
O719   O     0.83333   0.20625   0.57054   0.00000  Uiso   1.00
O720   O     0.83333   0.12708   0.42946   0.00000  Uiso   1.00
C721   C     0.08766   0.49997   0.50035   0.00000  Uiso   1.00
C722   C     0.02129   0.54098   0.50088   0.00000  Uiso   1.00
C723   C     0.29042   0.49984   0.49917   0.00000  Uiso   1.00
C724   C     0.04291   0.49984   0.50080   0.00000  Uiso   1.00
C725   C     0.14749   0.35735   0.46109   0.00000  Uiso   1.00
C726   C     0.19148   0.64239   0.53419   0.00000  Uiso   1.00
C727   C     0.18584   0.35735   0.53890   0.00000  Uiso   1.00
C728   C     0.14186   0.64238   0.46579   0.00000  Uiso   1.00
C729   C     0.13410   0.37768   0.41010   0.00000  Uiso   1.00
C730   C     0.09273   0.40326   0.40779   0.00000  Uiso   1.00
C731   C     0.22948   0.62213   0.56333   0.00000  Uiso   1.00
C732   C     0.24567   0.49997   0.49964   0.00000  Uiso   1.00
C733   C     0.22252   0.60112   0.61416   0.00000  Uiso   1.00
C734   C     0.19923   0.37767   0.58990   0.00000  Uiso   1.00
C735   C     0.24059   0.40326   0.59223   0.00000  Uiso   1.00
C736   C     0.10391   0.62210   0.43658   0.00000  Uiso   1.00
C737   C     0.11093   0.60116   0.38573   0.00000  Uiso   1.00
C738   C     0.16683   0.49999   0.40725   0.00000  Uiso   1.00
C739   C     0.16651   0.49999   0.59275   0.00000  Uiso   1.00
C740   C     0.16675   0.49992   0.35532   0.00000  Uiso   1.00
C741   C     0.16659   0.49993   0.64468   0.00000  Uiso   1.00
C742   C     0.02134   0.45858   0.50054   0.00000  Uiso   1.00
C743   C     0.31204   0.54098   0.49900   0.00000  Uiso   1.00
C744   C     0.31200   0.45858   0.49949   0.00000  Uiso   1.00
Cu745  Cu    0.16667   0.54689   0.50000   0.00000  Uiso   1.00
Cu746  Cu    0.16667   0.45311   0.50000   0.00000  Uiso   1.00
H747   H     0.03725   0.42628   0.50137   0.00000  Uiso   1.00
H748   H     0.18990   0.60434   0.62347   0.00000  Uiso   1.00
H749   H     0.23224   0.56496   0.61495   0.00000  Uiso   1.00
H750   H     0.24206   0.61854   0.64394   0.00000  Uiso   1.00
H751   H     0.24710   0.60003   0.54090   0.00000  Uiso   1.00
H752   H     0.25320   0.64891   0.56991   0.00000  Uiso   1.00
H753   H     0.25905   0.39344   0.56093   0.00000  Uiso   1.00
H754   H     0.23661   0.44052   0.59208   0.00000  Uiso   1.00
H755   H     0.25898   0.39479   0.62741   0.00000  Uiso   1.00
H756   H     0.17377   0.39483   0.60710   0.00000  Uiso   1.00
H757   H     0.20305   0.35071   0.61819   0.00000  Uiso   1.00
H758   H     0.29639   0.57334   0.49723   0.00000  Uiso   1.00
H759   H     0.14358   0.60438   0.37650   0.00000  Uiso   1.00
H760   H     0.10120   0.56501   0.38485   0.00000  Uiso   1.00
H761   H     0.09144   0.61864   0.35595   0.00000  Uiso   1.00
H762   H     0.08630   0.59994   0.45894   0.00000  Uiso   1.00
H763   H     0.08016   0.64885   0.43002   0.00000  Uiso   1.00
H764   H     0.29609   0.42628   0.49872   0.00000  Uiso   1.00
H765   H     0.03694   0.57334   0.50258   0.00000  Uiso   1.00
H766   H     0.07428   0.39343   0.43909   0.00000  Uiso   1.00
H767   H     0.09671   0.44052   0.40793   0.00000  Uiso   1.00
H768   H     0.07434   0.39478   0.37261   0.00000  Uiso   1.00
H769   H     0.15956   0.39484   0.39291   0.00000  Uiso   1.00
H770   H     0.13029   0.35074   0.38179   0.00000  Uiso   1.00
N771   N     0.16667   0.61736   0.50000   0.00000  Uiso   1.00
N772   N     0.16667   0.38264   0.50000   0.00000  Uiso   1.00
O773   O     0.10655   0.53958   0.50000   0.00000  Uiso   1.00
O774   O     0.22679   0.46042   0.50000   0.00000  Uiso   1.00
O775   O     0.22679   0.53958   0.50000   0.00000  Uiso   1.00
O776   O     0.10655   0.46042   0.50000   0.00000  Uiso   1.00
O777   O     0.16667   0.53959   0.42946   0.00000  Uiso   1.00
O778   O     0.16667   0.46041   0.57054   0.00000  Uiso   1.00
O779   O     0.16667   0.53959   0.57054   0.00000  Uiso   1.00
O780   O     0.16667   0.46041   0.42946   0.00000  Uiso   1.00
C781   C     0.42099   0.49997   0.50035   0.00000  Uiso   1.00
C782   C     0.35462   0.54098   0.50088   0.00000  Uiso   1.00
C783   C     0.62375   0.49984   0.49917   0.00000  Uiso   1.00
C784   C     0.37625   0.49984   0.50080   0.00000  Uiso   1.00
C785   C     0.48083   0.35735   0.46109   0.00000  Uiso   1.00
C786   C     0.52482   0.64239   0.53419   0.00000  Uiso   1.00
C787   C     0.51918   0.35735   0.53890   0.00000  Uiso   1.00
C788   C     0.47520   0.64238   0.46579   0.00000  Uiso   1.00
C789   C     0.46743   0.37768   0.41010   0.00000  Uiso   1.00
C790   C     0.42606   0.40326   0.40779   0.00000  Uiso   1.00
C791   C     0.56281   0.62213   0.56333   0.00000  Uiso   1.00
C792   C     0.57900   0.49997   0.49964   0.00000  Uiso   1.00
C793   C     0.55585   0.60112   0.61416   0.00000  Uiso   1.00
C794   C     0.53257   0.37767   0.58990   0.00000  Uiso   1.00
C795   C     0.57393   0.40326   0.59223   0.00000  Uiso   1.00
C796   C     0.43724   0.62210   0.43658   0.00000  Uiso   1.00
C797   C     0.44427   0.60116   0.38573   0.00000  Uiso   1.00
C798   C     0.50016   0.49999   0.40725   0.00000  Uiso   1.00
C799   C     0.49984   0.49999   0.59275   0.00000  Uiso   1.00
C800   C     0.50008   0.49992   0.35532   0.00000  Uiso   1.00
C801   C     0.49992   0.49993   0.64468   0.00000  Uiso   1.00
C802   C     0.35467   0.45858   0.50054   0.00000  Uiso   1.00
C803   C     0.64537   0.54098   0.49900   0.00000  Uiso   1.00
C804   C     0.64533   0.45858   0.49949   0.00000  Uiso   1.00
Cu805  Cu    0.50000   0.54689   0.50000   0.00000  Uiso   1.00
Cu806  Cu    0.50000   0.45311   0.50000   0.00000  Uiso   1.00
H807   H     0.37059   0.42628   0.50137   0.00000  Uiso   1.00
H808   H     0.52323   0.60434   0.62347   0.00000  Uiso   1.00
H809   H     0.56557   0.56496   0.61495   0.00000  Uiso   1.00
H810   H     0.57539   0.61854   0.64394   0.00000  Uiso   1.00
H811   H     0.58043   0.60003   0.54090   0.00000  Uiso   1.00
H812   H     0.58653   0.64891   0.56991   0.00000  Uiso   1.00
H813   H     0.59238   0.39344   0.56093   0.00000  Uiso   1.00
H814   H     0.56994   0.44052   0.59208   0.00000  Uiso   1.00
H815   H     0.59231   0.39479   0.62741   0.00000  Uiso   1.00
H816   H     0.50710   0.39483   0.60710   0.00000  Uiso   1.00
H817   H     0.53638   0.35071   0.61819   0.00000  Uiso   1.00
H818   H     0.62972   0.57334   0.49723   0.00000  Uiso   1.00
H819   H     0.47691   0.60438   0.37650   0.00000  Uiso   1.00
H820   H     0.43453   0.56501   0.38485   0.00000  Uiso   1.00
H821   H     0.42477   0.61864   0.35595   0.00000  Uiso   1.00
H822   H     0.41963   0.59994   0.45894   0.00000  Uiso   1.00
H823   H     0.41349   0.64885   0.43002   0.00000  Uiso   1.00
H824   H     0.62942   0.42628   0.49872   0.00000  Uiso   1.00
H825   H     0.37027   0.57334   0.50258   0.00000  Uiso   1.00
H826   H     0.40762   0.39343   0.43909   0.00000  Uiso   1.00
H827   H     0.43004   0.44052   0.40793   0.00000  Uiso   1.00
H828   H     0.40767   0.39478   0.37261   0.00000  Uiso   1.00
H829   H     0.49289   0.39484   0.39291   0.00000  Uiso   1.00
H830   H     0.46363   0.35074   0.38179   0.00000  Uiso   1.00
N831   N     0.50000   0.61736   0.50000   0.00000  Uiso   1.00
N832   N     0.50000   0.38264   0.50000   0.00000  Uiso   1.00
O833   O     0.43988   0.53958   0.50000   0.00000  Uiso   1.00
O834   O     0.56012   0.46042   0.50000   0.00000  Uiso   1.00
O835   O     0.56012   0.53958   0.50000   0.00000  Uiso   1.00
O836   O     0.43988   0.46042   0.50000   0.00000  Uiso   1.00
O837   O     0.50000   0.53959   0.42946   0.00000  Uiso   1.00
O838   O     0.50000   0.46041   0.57054   0.00000  Uiso   1.00
O839   O     0.50000   0.53959   0.57054   0.00000  Uiso   1.00
O840   O     0.50000   0.46041   0.42946   0.00000  Uiso   1.00
C841   C     0.75433   0.49997   0.50035   0.00000  Uiso   1.00
C842   C     0.68796   0.54098   0.50088   0.00000  Uiso   1.00
C843   C     0.95709   0.49984   0.49917   0.00000  Uiso   1.00
C844   C     0.70958   0.49984   0.50080   0.00000  Uiso   1.00
C845   C     0.81416   0.35735   0.46109   0.00000  Uiso   1.00
C846   C     0.85815   0.64239   0.53419   0.00000  Uiso   1.00
C847   C     0.85251   0.35735   0.53890   0.00000  Uiso   1.00
C848   C     0.80853   0.64238   0.46579   0.00000  Uiso   1.00
C849   C     0.80076   0.37768   0.41010   0.00000  Uiso   1.00
C850   C     0.75940   0.40326   0.40779   0.00000  Uiso   1.00
C851   C     0.89614   0.62213   0.56333   0.00000  Uiso   1.00
C852   C     0.91234   0.49997   0.49964   0.00000  Uiso   1.00
C853   C     0.88919   0.60112   0.61416   0.00000  Uiso   1.00
C854   C     0.86590   0.37767   0.58990   0.00000  Uiso   1.00
C855   C     0.90726   0.40326   0.59223   0.00000  Uiso   1.00
C856   C     0.77058   0.62210   0.43658   0.00000  Uiso   1.00
C857   C     0.77760   0.60116   0.38573   0.00000  Uiso   1.00
C858   C     0.83350   0.49999   0.40725   0.00000  Uiso   1.00
C859   C     0.83317   0.49999   0.59275   0.00000  Uiso   1.00
C860   C     0.83342   0.49992   0.35532   0.00000  Uiso   1.00
C861   C     0.83325   0.49993   0.64468   0.00000  Uiso   1.00
C862   C     0.68801   0.45858   0.50054   0.00000  Uiso   1.00
C863   C     0.97870   0.54098   0.49900   0.00000  Uiso   1.00
C864   C     0.97866   0.45858   0.49949   0.00000  Uiso   1.00
Cu865  Cu    0.83333   0.54689   0.50000   0.00000  Uiso   1.00
Cu866  Cu    0.83333   0.45311   0.50000   0.00000  Uiso   1.00
H867   H     0.70392   0.42628   0.50137   0.00000  Uiso   1.00
H868   H     0.85656   0.60434   0.62347   0.00000  Uiso   1.00
H869   H     0.89890   0.56496   0.61495   0.00000  Uiso   1.00
H870   H     0.90873   0.61854   0.64394   0.00000  Uiso   1.00
H871   H     0.91376   0.60003   0.54090   0.00000  Uiso   1.00
H872   H     0.91987   0.64891   0.56991   0.00000  Uiso   1.00
H873   H     0.92572   0.39344   0.56093   0.00000  Uiso   1.00
H874   H     0.90327   0.44052   0.59208   0.00000  Uiso   1.00
H875   H     0.92565   0.39479   0.62741   0.00000  Uiso   1.00
H876   H     0.84043   0.39483   0.60710   0.00000  Uiso   1.00
H877   H     0.86971   0.35071   0.61819   0.00000  Uiso   1.00
H878   H     0.96305   0.57334   0.49723   0.00000  Uiso   1.00
H879   H     0.81024   0.60438   0.37650   0.00000  Uiso   1.00
H880   H     0.76786   0.56501   0.38485   0.00000  Uiso   1.00
H881   H     0.75811   0.61864   0.35595   0.00000  Uiso   1.00
H882   H     0.75297   0.59994   0.45894   0.00000  Uiso   1.00
H883   H     0.74683   0.64885   0.43002   0.00000  Uiso   1.00
H884   H     0.96275   0.42628   0.49872   0.00000  Uiso   1.00
H885   H     0.70360   0.57334   0.50258   0.00000  Uiso   1.00
H886   H     0.74095   0.39343   0.43909   0.00000  Uiso   1.00
H887   H     0.76338   0.44052   0.40793   0.00000  Uiso   1.00
H888   H     0.74101   0.39478   0.37261   0.00000  Uiso   1.00
H889   H     0.82623   0.39484   0.39291   0.00000  Uiso   1.00
H890   H     0.79696   0.35074   0.38179   0.00000  Uiso   1.00
N891   N     0.83333   0.61736   0.50000   0.00000  Uiso   1.00
N892   N     0.83333   0.38264   0.50000   0.00000  Uiso   1.00
O893   O     0.77321   0.53958   0.50000   0.00000  Uiso   1.00
O894   O     0.89345   0.46042   0.50000   0.00000  Uiso   1.00
O895   O     0.89345   0.53958   0.50000   0.00000  Uiso   1.00
O896   O     0.77321   0.46042   0.50000   0.00000  Uiso   1.00
O897   O     0.83333   0.53959   0.42946   0.00000  Uiso   1.00
O898   O     0.83333   0.46041   0.57054   0.00000  Uiso   1.00
O899   O     0.83333   0.53959   0.57054   0.00000  Uiso   1.00
O900   O     0.83333   0.46041   0.42946   0.00000  Uiso   1.00
C901   C     0.08766   0.83331   0.50035   0.00000  Uiso   1.00
C902   C     0.02129   0.87432   0.50088   0.00000  Uiso   1.00
C903   C     0.29042   0.83317   0.49917   0.00000  Uiso   1.00
C904   C     0.04291   0.83317   0.50080   0.00000  Uiso   1.00
C905   C     0.14749   0.69068   0.46109   0.00000  Uiso   1.00
C906   C     0.19148   0.97572   0.53419   0.00000  Uiso   1.00
C907   C     0.18584   0.69068   0.53890   0.00000  Uiso   1.00
C908   C     0.14186   0.97572   0.46579   0.00000  Uiso   1.00
C909   C     0.13410   0.71101   0.41010   0.00000  Uiso   1.00
C910   C     0.09273   0.73659   0.40779   0.00000  Uiso   1.00
C911   C     0.22948   0.95546   0.56333   0.00000  Uiso   1.00
C912   C     0.24567   0.83331   0.49964   0.00000  Uiso   1.00
C913   C     0.22252   0.93445   0.61416   0.00000  Uiso   1.00
C914   C     0.19923   0.71100   0.58990   0.00000  Uiso   1.00
C915   C     0.24059   0.73659   0.59223   0.00000  Uiso   1.00
C916   C     0.10391   0.95543   0.43658   0.00000  Uiso   1.00
C917   C     0.11093   0.93450   0.38573   0.00000  Uiso   1.00
C918   C     0.16683   0.83332   0.40725   0.00000  Uiso   1.00
C919   C     0.16651   0.83332   0.59275   0.00000  Uiso   1.00
C920   C     0.16675   0.83326   0.35532   0.00000  Uiso   1.00
C921   C     0.16659   0.83326   0.64468   0.00000  Uiso   1.00
C922   C     0.02134   0.79191   0.50054   0.00000  Uiso   1.00
C923   C     0.31204   0.87432   0.49900   0.00000  Uiso   1.00
C924   C     0.31200   0.79191   0.49949   0.00000  Uiso   1.00
Cu925  Cu    0.16667   0.88022   0.50000   0.00000  Uiso   1.00
Cu926  Cu    0.16667   0.78645   0.50000   0.00000  Uiso   1.00
H927   H     0.03725   0.75961   0.50137   0.00000  Uiso   1.00
H928   H     0.18990   0.93767   0.62347   0.00000  Uiso   1.00
H929   H     0.23224   0.89829   0.61495   0.00000  Uiso   1.00
H930   H     0.24206   0.95188   0.64394   0.00000  Uiso   1.00
H931   H     0.24710   0.93337   0.54090   0.00000  Uiso   1.00
H932   H     0.25320   0.98224   0.56991   0.00000  Uiso   1.00
H933   H     0.25905   0.72677   0.56093   0.00000  Uiso   1.00
H934   H     0.23661   0.77385   0.59208   0.00000  Uiso   1.00
H935   H     0.25898   0.72812   0.62741   0.00000  Uiso   1.00
H936   H     0.17377   0.72816   0.60710   0.00000  Uiso   1.00
H937   H     0.20305   0.68404   0.61819   0.00000  Uiso   1.00
H938   H     0.29639   0.90667   0.49723   0.00000  Uiso   1.00
H939   H     0.14358   0.93772   0.37650   0.00000  Uiso   1.00
H940   H     0.10120   0.89834   0.38485   0.00000  Uiso   1.00
H941   H     0.09144   0.95197   0.35595   0.00000  Uiso   1.00
H942   H     0.08630   0.93328   0.45894   0.00000  Uiso   1.00
H943   H     0.08016   0.98219   0.43002   0.00000  Uiso   1.00
H944   H     0.29609   0.75961   0.49872   0.00000  Uiso   1.00
H945   H     0.03694   0.90668   0.50258   0.00000  Uiso   1.00
H946   H     0.07428   0.72676   0.43909   0.00000  Uiso   1.00
H947   H     0.09671   0.77385   0.40793   0.00000  Uiso   1.00
H948   H     0.07434   0.72811   0.37261   0.00000  Uiso   1.00
H949   H     0.15956   0.72817   0.39291   0.00000  Uiso   1.00
H950   H     0.13029   0.68407   0.38179   0.00000  Uiso   1.00
N951   N     0.16667   0.95069   0.50000   0.00000  Uiso   1.00
N952   N     0.16667   0.71598   0.50000   0.00000  Uiso   1.00
O953   O     0.10655   0.87291   0.50000   0.00000  Uiso   1.00
O954   O     0.22679   0.79375   0.50000   0.00000  Uiso   1.00
O955   O     0.22679   0.87291   0.50000   0.00000  Uiso   1.00
O956   O     0.10655   0.79375   0.50000   0.00000  Uiso   1.00
O957   O     0.16667   0.87292   0.42946   0.00000  Uiso   1.00
O958   O     0.16667   0.79375   0.57054   0.00000  Uiso   1.00
O959   O     0.16667   0.87292   0.57054   0.00000  Uiso   1.00
O960   O     0.16667   0.79375   0.42946   0.00000  Uiso   1.00
C961   C     0.42099   0.83331   0.50035   0.00000  Uiso   1.00
C962   C     0.35462   0.87432   0.50088   0.00000  Uiso   1.00
C963   C     0.62375   0.83317   0.49917   0.00000  Uiso   1.00
C964   C     0.37625   0.83317   0.50080   0.00000  Uiso   1.00
C965   C     0.48083   0.69068   0.46109   0.00000  Uiso   1.00
C966   C     0.52482   0.97572   0.53419   0.00000  Uiso   1.00
C967   C     0.51918   0.69068   0.53890   0.00000  Uiso   1.00
C968   C     0.47520   0.97572   0.46579   0.00000  Uiso   1.00
C969   C     0.46743   0.71101   0.41010   0.00000  Uiso   1.00
C970   C     0.42606   0.73659   0.40779   0.00000  Uiso   1.00
C971   C     0.56281   0.95546   0.56333   0.00000  Uiso   1.00
C972   C     0.57900   0.83331   0.49964   0.00000  Uiso   1.00
C973   C     0.55585   0.93445   0.61416   0.00000  Uiso   1.00
C974   C     0.53257   0.71100   0.58990   0.00000  Uiso   1.00
C975   C     0.57393   0.73659   0.59223   0.00000  Uiso   1.00
C976   C     0.43724   0.95543   0.43658   0.00000  Uiso   1.00
C977   C     0.44427   0.93450   0.38573   0.00000  Uiso   1.00
C978   C     0.50016   0.83332   0.40725   0.00000  Uiso   1.00
C979   C     0.49984   0.83332   0.59275   0.00000  Uiso   1.00
C980   C     0.50008   0.83326   0.35532   0.00000  Uiso   1.00
C981   C     0.49992   0.83326   0.64468   0.00000  Uiso   1.00
C982   C     0.35467   0.79191   0.50054   0.00000  Uiso   1.00
C983   C     0.64537   0.87432   0.49900   0.00000  Uiso   1.00
C984   C     0.64533   0.79191   0.49949   0.00000  Uiso   1.00
Cu985  Cu    0.50000   0.88022   0.50000   0.00000  Uiso   1.00
Cu986  Cu    0.50000   0.78645   0.50000   0.00000  Uiso   1.00
H987   H     0.37059   0.75961   0.50137   0.00000  Uiso   1.00
H988   H     0.52323   0.93767   0.62347   0.00000  Uiso   1.00
H989   H     0.56557   0.89829   0.61495   0.00000  Uiso   1.00
H990   H     0.57539   0.95188   0.64394   0.00000  Uiso   1.00
H991   H     0.58043   0.93337   0.54090   0.00000  Uiso   1.00
H992   H     0.58653   0.98224   0.56991   0.00000  Uiso   1.00
H993   H     0.59238   0.72677   0.56093   0.00000  Uiso   1.00
H994   H     0.56994   0.77385   0.59208   0.00000  Uiso   1.00
H995   H     0.59231   0.72812   0.62741   0.00000  Uiso   1.00
H996   H     0.50710   0.72816   0.60710   0.00000  Uiso   1.00
H997   H     0.53638   0.68404   0.61819   0.00000  Uiso   1.00
H998   H     0.62972   0.90667   0.49723   0.00000  Uiso   1.00
H999   H     0.47691   0.93772   0.37650   0.00000  Uiso   1.00
H1000  H     0.43453   0.89834   0.38485   0.00000  Uiso   1.00
H1001  H     0.42477   0.95197   0.35595   0.00000  Uiso   1.00
H1002  H     0.41963   0.93328   0.45894   0.00000  Uiso   1.00
H1003  H     0.41349   0.98219   0.43002   0.00000  Uiso   1.00
H1004  H     0.62942   0.75961   0.49872   0.00000  Uiso   1.00
H1005  H     0.37027   0.90668   0.50258   0.00000  Uiso   1.00
H1006  H     0.40762   0.72676   0.43909   0.00000  Uiso   1.00
H1007  H     0.43004   0.77385   0.40793   0.00000  Uiso   1.00
H1008  H     0.40767   0.72811   0.37261   0.00000  Uiso   1.00
H1009  H     0.49289   0.72817   0.39291   0.00000  Uiso   1.00
H1010  H     0.46363   0.68407   0.38179   0.00000  Uiso   1.00
N1011  N     0.50000   0.95069   0.50000   0.00000  Uiso   1.00
N1012  N     0.50000   0.71598   0.50000   0.00000  Uiso   1.00
O1013  O     0.43988   0.87291   0.50000   0.00000  Uiso   1.00
O1014  O     0.56012   0.79375   0.50000   0.00000  Uiso   1.00
O1015  O     0.56012   0.87291   0.50000   0.00000  Uiso   1.00
O1016  O     0.43988   0.79375   0.50000   0.00000  Uiso   1.00
O1017  O     0.50000   0.87292   0.42946   0.00000  Uiso   1.00
O1018  O     0.50000   0.79375   0.57054   0.00000  Uiso   1.00
O1019  O     0.50000   0.87292   0.57054   0.00000  Uiso   1.00
O1020  O     0.50000   0.79375   0.42946   0.00000  Uiso   1.00
C1021  C     0.75433   0.83331   0.50035   0.00000  Uiso   1.00
C1022  C     0.68796   0.87432   0.50088   0.00000  Uiso   1.00
C1023  C     0.95709   0.83317   0.49917   0.00000  Uiso   1.00
C1024  C     0.70958   0.83317   0.50080   0.00000  Uiso   1.00
C1025  C     0.81416   0.69068   0.46109   0.00000  Uiso   1.00
C1026  C     0.85815   0.97572   0.53419   0.00000  Uiso   1.00
C1027  C     0.85251   0.69068   0.53890   0.00000  Uiso   1.00
C1028  C     0.80853   0.97572   0.46579   0.00000  Uiso   1.00
C1029  C     0.80076   0.71101   0.41010   0.00000  Uiso   1.00
C1030  C     0.75940   0.73659   0.40779   0.00000  Uiso   1.00
C1031  C     0.89614   0.95546   0.56333   0.00000  Uiso   1.00
C1032  C     0.91234   0.83331   0.49964   0.00000  Uiso   1.00
C1033  C     0.88919   0.93445   0.61416   0.00000  Uiso   1.00
C1034  C     0.86590   0.71100   0.58990   0.00000  Uiso   1.00
C1035  C     0.90726   0.73659   0.59223   0.00000  Uiso   1.00
C1036  C     0.77058   0.95543   0.43658   0.00000  Uiso   1.00
C1037  C     0.77760   0.93450   0.38573   0.00000  Uiso   1.00
C1038  C     0.83350   0.83332   0.40725   0.00000  Uiso   1.00
C1039  C     0.83317   0.83332   0.59275   0.00000  Uiso   1.00
C1040  C     0.83342   0.83326   0.35532   0.00000  Uiso   1.00
C1041  C     0.83325   0.83326   0.64468   0.00000  Uiso   1.00
C1042  C     0.68801   0.79191   0.50054   0.00000  Uiso   1.00
C1043  C     0.97870   0.87432   0.49900   0.00000  Uiso   1.00
C1044  C     0.97866   0.79191   0.49949   0.00000  Uiso   1.00
Cu1045 Cu    0.83333   0.88022   0.50000   0.00000  Uiso   1.00
Cu1046 Cu    0.83333   0.78645   0.50000   0.00000  Uiso   1.00
H1047  H     0.70392   0.75961   0.50137   0.00000  Uiso   1.00
H1048  H     0.85656   0.93767   0.62347   0.00000  Uiso   1.00
H1049  H     0.89890   0.89829   0.61495   0.00000  Uiso   1.00
H1050  H     0.90873   0.95188   0.64394   0.00000  Uiso   1.00
H1051  H     0.91376   0.93337   0.54090   0.00000  Uiso   1.00
H1052  H     0.91987   0.98224   0.56991   0.00000  Uiso   1.00
H1053  H     0.92572   0.72677   0.56093   0.00000  Uiso   1.00
H1054  H     0.90327   0.77385   0.59208   0.00000  Uiso   1.00
H1055  H     0.92565   0.72812   0.62741   0.00000  Uiso   1.00
H1056  H     0.84043   0.72816   0.60710   0.00000  Uiso   1.00
H1057  H     0.86971   0.68404   0.61819   0.00000  Uiso   1.00
H1058  H     0.96305   0.90667   0.49723   0.00000  Uiso   1.00
H1059  H     0.81024   0.93772   0.37650   0.00000  Uiso   1.00
H1060  H     0.76786   0.89834   0.38485   0.00000  Uiso   1.00
H1061  H     0.75811   0.95197   0.35595   0.00000  Uiso   1.00
H1062  H     0.75297   0.93328   0.45894   0.00000  Uiso   1.00
H1063  H     0.74683   0.98219   0.43002   0.00000  Uiso   1.00
H1064  H     0.96275   0.75961   0.49872   0.00000  Uiso   1.00
H1065  H     0.70360   0.90668   0.50258   0.00000  Uiso   1.00
H1066  H     0.74095   0.72676   0.43909   0.00000  Uiso   1.00
H1067  H     0.76338   0.77385   0.40793   0.00000  Uiso   1.00
H1068  H     0.74101   0.72811   0.37261   0.00000  Uiso   1.00
H1069  H     0.82623   0.72817   0.39291   0.00000  Uiso   1.00
H1070  H     0.79696   0.68407   0.38179   0.00000  Uiso   1.00
N1071  N     0.83333   0.95069   0.50000   0.00000  Uiso   1.00
N1072  N     0.83333   0.71598   0.50000   0.00000  Uiso   1.00
O1073  O     0.77321   0.87291   0.50000   0.00000  Uiso   1.00
O1074  O     0.89345   0.79375   0.50000   0.00000  Uiso   1.00
O1075  O     0.89345   0.87291   0.50000   0.00000  Uiso   1.00
O1076  O     0.77321   0.79375   0.50000   0.00000  Uiso   1.00
O1077  O     0.83333   0.87292   0.42946   0.00000  Uiso   1.00
O1078  O     0.83333   0.79375   0.57054   0.00000  Uiso   1.00
O1079  O     0.83333   0.87292   0.57054   0.00000  Uiso   1.00
O1080  O     0.83333   0.79375   0.42946   0.00000  Uiso   1.00
C1081  C     0.08766   0.16664   0.83368   0.00000  Uiso   1.00
C1082  C     0.02129   0.20765   0.83421   0.00000  Uiso   1.00
C1083  C     0.29042   0.16651   0.83251   0.00000  Uiso   1.00
C1084  C     0.04291   0.16651   0.83413   0.00000  Uiso   1.00
C1085  C     0.14749   0.02402   0.79442   0.00000  Uiso   1.00
C1086  C     0.19148   0.30905   0.86752   0.00000  Uiso   1.00
C1087  C     0.18584   0.02402   0.87224   0.00000  Uiso   1.00
C1088  C     0.14186   0.30905   0.79912   0.00000  Uiso   1.00
C1089  C     0.13410   0.04435   0.74344   0.00000  Uiso   1.00
C1090  C     0.09273   0.06992   0.74112   0.00000  Uiso   1.00
C1091  C     0.22948   0.28879   0.89666   0.00000  Uiso   1.00
C1092  C     0.24567   0.16664   0.83297   0.00000  Uiso   1.00
C1093  C     0.22252   0.26778   0.94749   0.00000  Uiso   1.00
C1094  C     0.19923   0.04434   0.92323   0.00000  Uiso   1.00
C1095  C     0.24059   0.06993   0.92556   0.00000  Uiso   1.00
C1096  C     0.10391   0.28877   0.76992   0.00000  Uiso   1.00
C1097  C     0.11093   0.26783   0.71906   0.00000  Uiso   1.00
C1098  C     0.16683   0.16665   0.74058   0.00000  Uiso   1.00
C1099  C     0.16651   0.16665   0.92609   0.00000  Uiso   1.00
C1100  C     0.16675   0.16659   0.68865   0.00000  Uiso   1.00
C1101  C     0.16659   0.16659   0.97801   0.00000  Uiso   1.00
C1102  C     0.02134   0.12525   0.83388   0.00000  Uiso   1.00
C1103  C     0.31204   0.20765   0.83234   0.00000  Uiso   1.00
C1104  C     0.31200   0.12525   0.83283   0.00000  Uiso   1.00
Cu1105 Cu    0.16667   0.21355   0.83333   0.00000  Uiso   1.00
Cu1106 Cu    0.16667   0.11978   0.83333   0.00000  Uiso   1.00
H1107  H     0.03725   0.09294   0.83471   0.00000  Uiso   1.00
H1108  H     0.18990   0.27101   0.95680   0.00000  Uiso   1.00
H1109  H     0.23224   0.23163   0.94828   0.00000  Uiso   1.00
H1110  H     0.24206   0.28521   0.97727   0.00000  Uiso   1.00
H1111  H     0.24710   0.26670   0.87424   0.00000  Uiso   1.00
H1112  H     0.25320   0.31557   0.90324   0.00000  Uiso   1.00
H1113  H     0.25905   0.06010   0.89426   0.00000  Uiso   1.00
H1114  H     0.23661   0.10719   0.92542   0.00000  Uiso   1.00
H1115  H     0.25898   0.06146   0.96074   0.00000  Uiso   1.00
H1116  H     0.17377   0.06149   0.94043   0.00000  Uiso   1.00
H1117  H     0.20305   0.01738   0.95152   0.00000  Uiso   1.00
H1118  H     0.29639   0.24000   0.83056   0.00000  Uiso   1.00
H1119  H     0.14358   0.27105   0.70983   0.00000  Uiso   1.00
H1120  H     0.10120   0.23168   0.71819   0.00000  Uiso   1.00
H1121  H     0.09144   0.28530   0.68928   0.00000  Uiso   1.00
H1122  H     0.08630   0.26661   0.79227   0.00000  Uiso   1.00
H1123  H     0.08016   0.31552   0.76335   0.00000  Uiso   1.00
H1124  H     0.29609   0.09294   0.83205   0.00000  Uiso   1.00
H1125  H     0.03694   0.24001   0.83591   0.00000  Uiso   1.00
H1126  H     0.07428   0.06009   0.77243   0.00000  Uiso   1.00
H1127  H     0.09671   0.10718   0.74126   0.00000  Uiso   1.00
H1128  H     0.07434   0.06145   0.70594   0.00000  Uiso   1.00
H1129  H     0.15956   0.06151   0.72624   0.00000  Uiso   1.00
H1130  H     0.13029   0.01741   0.71513   0.00000  Uiso   1.00
N1131  N     0.16667   0.28402   0.83333   0.00000  Uiso   1.00
N1132  N     0.16667   0.04931   0.83333   0.00000  Uiso   1.00
O1133  O     0.10655   0.20625   0.83333   0.00000  Uiso   1.00
O1134  O     0.22679   0.12709   0.83334   0.00000  Uiso   1.00
O1135  O     0.22679   0.20625   0.83334   0.00000  Uiso   1.00
O1136  O     0.10655   0.12709   0.83333   0.00000  Uiso   1.00
O1137  O     0.16667   0.20625   0.76280   0.00000  Uiso   1.00
O1138  O     0.16667   0.12708   0.90387   0.00000  Uiso   1.00
O1139  O     0.16667   0.20625   0.90387   0.00000  Uiso   1.00
O1140  O     0.16667   0.12708   0.76280   0.00000  Uiso   1.00
C1141  C     0.42099   0.16664   0.83368   0.00000  Uiso   1.00
C1142  C     0.35462   0.20765   0.83421   0.00000  Uiso   1.00
C1143  C     0.62375   0.16651   0.83251   0.00000  Uiso   1.00
C1144  C     0.37625   0.16651   0.83413   0.00000  Uiso   1.00
C1145  C     0.48083   0.02402   0.79442   0.00000  Uiso   1.00
C1146  C     0.52482   0.30905   0.86752   0.00000  Uiso   1.00
C1147  C     0.51918   0.02402   0.87224   0.00000  Uiso   1.00
C1148  C     0.47520   0.30905   0.79912   0.00000  Uiso   1.00
C1149  C     0.46743   0.04435   0.74344   0.00000  Uiso   1.00
C1150  C     0.42606   0.06992   0.74112   0.00000  Uiso   1.00
C1151  C     0.56281   0.28879   0.89666   0.00000  Uiso   1.00
C1152  C     0.57900   0.16664   0.83297   0.00000  Uiso   1.00
C1153  C     0.55585   0.26778   0.94749   0.00000  Uiso   1.00
C1154  C     0.53257   0.04434   0.92323   0.00000  Uiso   1.00
C1155  C     0.57393   0.06993   0.92556   0.00000  Uiso   1.00
C1156  C     0.43724   0.28877   0.76992   0.00000  Uiso   1.00
C1157  C     0.44427   0.26783   0.71906   0.00000  Uiso   1.00
C1158  C     0.50016   0.16665   0.74058   0.00000  Uiso   1.00
C1159  C     0.49984   0.16665   0.92609   0.00000  Uiso   1.00
C1160  C     0.50008   0.16659   0.68865   0.00000  Uiso   1.00
C1161  C     0.49992   0.16659   0.97801   0.00000  Uiso   1.00
C1162  C     0.35467   0.12525   0.83388   0.00000  Uiso   1.00
C1163  C     0.64537   0.20765   0.83234   0.00000  Uiso   1.00
C1164  C     0.64533   0.12525   0.83283   0.00000  Uiso   1.00
Cu1165 Cu    0.50000   0.21355   0.83333   0.00000  Uiso   1.00
Cu1166 Cu    0.50000   0.11978   0.83333   0.00000  Uiso   1.00
H1167  H     0.37059   0.09294   0.83471   0.00000  Uiso   1.00
H1168  H     0.52323   0.27101   0.95680   0.00000  Uiso   1.00
H1169  H     0.56557   0.23163   0.94828   0.00000  Uiso   1.00
H1170  H     0.57539   0.28521   0.97727   0.00000  Uiso   1.00
H1171  H     0.58043   0.26670   0.87424   0.00000  Uiso   1.00
H1172  H     0.58653   0.31557   0.90324   0.00000  Uiso   1.00
H1173  H     0.59238   0.06010   0.89426   0.00000  Uiso   1.00
H1174  H     0.56994   0.10719   0.92542   0.00000  Uiso   1.00
H1175  H     0.59231   0.06146   0.96074   0.00000  Uiso   1.00
H1176  H     0.50710   0.06149   0.94043   0.00000  Uiso   1.00
H1177  H     0.53638   0.01738   0.95152   0.00000  Uiso   1.00
H1178  H     0.62972   0.24000   0.83056   0.00000  Uiso   1.00
H1179  H     0.47691   0.27105   0.70983   0.00000  Uiso   1.00
H1180  H     0.43453   0.23168   0.71819   0.00000  Uiso   1.00
H1181  H     0.42477   0.28530   0.68928   0.00000  Uiso   1.00
H1182  H     0.41963   0.26661   0.79227   0.00000  Uiso   1.00
H1183  H     0.41349   0.31552   0.76335   0.00000  Uiso   1.00
H1184  H     0.62942   0.09294   0.83205   0.00000  Uiso   1.00
H1185  H     0.37027   0.24001   0.83591   0.00000  Uiso   1.00
H1186  H     0.40762   0.06009   0.77243   0.00000  Uiso   1.00
H1187  H     0.43004   0.10718   0.74126   0.00000  Uiso   1.00
H1188  H     0.40767   0.06145   0.70594   0.00000  Uiso   1.00
H1189  H     0.49289   0.06151   0.72624   0.00000  Uiso   1.00
H1190  H     0.46363   0.01741   0.71513   0.00000  Uiso   1.00
N1191  N     0.50000   0.28402   0.83333   0.00000  Uiso   1.00
N1192  N     0.50000   0.04931   0.83333   0.00000  Uiso   1.00
O1193  O     0.43988   0.20625   0.83333   0.00000  Uiso   1.00
O1194  O     0.56012   0.12709   0.83334   0.00000  Uiso   1.00
O1195  O     0.56012   0.20625   0.83334   0.00000  Uiso   1.00
O1196  O     0.43988   0.12709   0.83333   0.00000  Uiso   1.00
O1197  O     0.50000   0.20625   0.76280   0.00000  Uiso   1.00
O1198  O     0.50000   0.12708   0.90387   0.00000  Uiso   1.00
O1199  O     0.50000   0.20625   0.90387   0.00000  Uiso   1.00
O1200  O     0.50000   0.12708   0.76280   0.00000  Uiso   1.00
C1201  C     0.75433   0.16664   0.83368   0.00000  Uiso   1.00
C1202  C     0.68796   0.20765   0.83421   0.00000  Uiso   1.00
C1203  C     0.95709   0.16651   0.83251   0.00000  Uiso   1.00
C1204  C     0.70958   0.16651   0.83413   0.00000  Uiso   1.00
C1205  C     0.81416   0.02402   0.79442   0.00000  Uiso   1.00
C1206  C     0.85815   0.30905   0.86752   0.00000  Uiso   1.00
C1207  C     0.85251   0.02402   0.87224   0.00000  Uiso   1.00
C1208  C     0.80853   0.30905   0.79912   0.00000  Uiso   1.00
C1209  C     0.80076   0.04435   0.74344   0.00000  Uiso   1.00
C1210  C     0.75940   0.06992   0.74112   0.00000  Uiso   1.00
C1211  C     0.89614   0.28879   0.89666   0.00000  Uiso   1.00
C1212  C     0.91234   0.16664   0.83297   0.00000  Uiso   1.00
C1213  C     0.88919   0.26778   0.94749   0.00000  Uiso   1.00
C1214  C     0.86590   0.04434   0.92323   0.00000  Uiso   1.00
C1215  C     0.90726   0.06993   0.92556   0.00000  Uiso   1.00
C1216  C     0.77058   0.28877   0.76992   0.00000  Uiso   1.00
C1217  C     0.77760   0.26783   0.71906   0.00000  Uiso   1.00
C1218  C     0.83350   0.16665   0.74058   0.00000  Uiso   1.00
C1219  C     0.83317   0.16665   0.92609   0.00000  Uiso   1.00
C1220  C     0.83342   0.16659   0.68865   0.00000  Uiso   1.00
C1221  C     0.83325   0.16659   0.97801   0.00000  Uiso   1.00
C1222  C     0.68801   0.12525   0.83388   0.00000  Uiso   1.00
C1223  C     0.97870   0.20765   0.83234   0.00000  Uiso   1.00
C1224  C     0.97866   0.12525   0.83283   0.00000  Uiso   1.00
Cu1225 Cu    0.83333   0.21355   0.83333   0.00000  Uiso   1.00
Cu1226 Cu    0.83333   0.11978   0.83333   0.00000  Uiso   1.00
H1227  H     0.70392   0.09294   0.83471   0.00000  Uiso   1.00
H1228  H     0.85656   0.27101   0.95680   0.00000  Uiso   1.00
H1229  H     0.89890   0.23163   0.94828   0.00000  Uiso   1.00
H1230  H     0.90873   0.28521   0.97727   0.00000  Uiso   1.00
H1231  H     0.91376   0.26670   0.87424   0.00000  Uiso   1.00
H1232  H     0.91987   0.31557   0.90324   0.00000  Uiso   1.00
H1233  H     0.92572   0.06010   0.89426   0.00000  Uiso   1.00
H1234  H     0.90327   0.10719   0.92542   0.00000  Uiso   1.00
H1235  H     0.92565   0.06146   0.96074   0.00000  Uiso   1.00
H1236  H     0.84043   0.06149   0.94043   0.00000  Uiso   1.00
H1237  H     0.86971   0.01738   0.95152   0.00000  Uiso   1.00
H1238  H     0.96305   0.24000   0.83056   0.00000  Uiso   1.00
H1239  H     0.81024   0.27105   0.70983   0.00000  Uiso   1.00
H1240  H     0.76786   0.23168   0.71819   0.00000  Uiso   1.00
H1241  H     0.75811   0.28530   0.68928   0.00000  Uiso   1.00
H1242  H     0.75297   0.26661   0.79227   0.00000  Uiso   1.00
H1243  H     0.74683   0.31552   0.76335   0.00000  Uiso   1.00
H1244  H     0.96275   0.09294   0.83205   0.00000  Uiso   1.00
H1245  H     0.70360   0.24001   0.83591   0.00000  Uiso   1.00
H1246  H     0.74095   0.06009   0.77243   0.00000  Uiso   1.00
H1247  H     0.76338   0.10718   0.74126   0.00000  Uiso   1.00
H1248  H     0.74101   0.06145   0.70594   0.00000  Uiso   1.00
H1249  H     0.82623   0.06151   0.72624   0.00000  Uiso   1.00
H1250  H     0.79696   0.01741   0.71513   0.00000  Uiso   1.00
N1251  N     0.83333   0.28402   0.83333   0.00000  Uiso   1.00
N1252  N     0.83333   0.04931   0.83333   0.00000  Uiso   1.00
O1253  O     0.77321   0.20625   0.83333   0.00000  Uiso   1.00
O1254  O     0.89345   0.12709   0.83334   0.00000  Uiso   1.00
O1255  O     0.89345   0.20625   0.83334   0.00000  Uiso   1.00
O1256  O     0.77321   0.12709   0.83333   0.00000  Uiso   1.00
O1257  O     0.83333   0.20625   0.76280   0.00000  Uiso   1.00
O1258  O     0.83333   0.12708   0.90387   0.00000  Uiso   1.00
O1259  O     0.83333   0.20625   0.90387   0.00000  Uiso   1.00
O1260  O     0.83333   0.12708   0.76280   0.00000  Uiso   1.00
C1261  C     0.08766   0.49997   0.83368   0.00000  Uiso   1.00
C1262  C     0.02129   0.54098   0.83421   0.00000  Uiso   1.00
C1263  C     0.29042   0.49984   0.83251   0.00000  Uiso   1.00
C1264  C     0.04291   0.49984   0.83413   0.00000  Uiso   1.00
C1265  C     0.14749   0.35735   0.79442   0.00000  Uiso   1.00
C1266  C     0.19148   0.64239   0.86752   0.00000  Uiso   1.00
C1267  C     0.18584   0.35735   0.87224   0.00000  Uiso   1.00
C1268  C     0.14186   0.64238   0.79912   0.00000  Uiso   1.00
C1269  C     0.13410   0.37768   0.74344   0.00000  Uiso   1.00
C1270  C     0.09273   0.40326   0.74112   0.00000  Uiso   1.00
C1271  C     0.22948   0.62213   0.89666   0.00000  Uiso   1.00
C1272  C     0.24567   0.49997   0.83297   0.00000  Uiso   1.00
C1273  C     0.22252   0.60112   0.94749   0.00000  Uiso   1.00
C1274  C     0.19923   0.37767   0.92323   0.00000  Uiso   1.00
C1275  C     0.24059   0.40326   0.92556   0.00000  Uiso   1.00
C1276  C     0.10391   0.62210   0.76992   0.00000  Uiso   1.00
C1277  C     0.11093   0.60116   0.71906   0.00000  Uiso   1.00
C1278  C     0.16683   0.49999   0.74058   0.00000  Uiso   1.00
C1279  C     0.16651   0.49999   0.92609   0.00000  Uiso   1.00
C1280  C     0.16675   0.49992   0.68865   0.00000  Uiso   1.00
C1281  C     0.16659   0.49993   0.97801   0.00000  Uiso   1.00
C1282  C     0.02134   0.45858   0.83388   0.00000  Uiso   1.00
C1283  C     0.31204   0.54098   0.83234   0.00000  Uiso   1.00
C1284  C     0.31200   0.45858   0.83283   0.00000  Uiso   1.00
Cu1285 Cu    0.16667   0.54689   0.83333   0.00000  Uiso   1.00
Cu1286 Cu    0.16667   0.45311   0.83333   0.00000  Uiso   1.00
H1287  H     0.03725   0.42628   0.83471   0.00000  Uiso   1.00
H1288  H     0.18990   0.60434   0.95680   0.00000  Uiso   1.00
H1289  H     0.23224   0.56496   0.94828   0.00000  Uiso   1.00
H1290  H     0.24206   0.61854   0.97727   0.00000  Uiso   1.00
H1291  H     0.24710   0.60003   0.87424   0.00000  Uiso   1.00
H1292  H     0.25320   0.64891   0.90324   0.00000  Uiso   1.00
H1293  H     0.25905   0.39344   0.89426   0.00000  Uiso   1.00
H1294  H     0.23661   0.44052   0.92542   0.00000  Uiso   1.00
H1295  H     0.25898   0.39479   0.96074   0.00000  Uiso   1.00
H1296  H     0.17377   0.39483   0.94043   0.00000  Uiso   1.00
H1297  H     0.20305   0.35071   0.95152   0.00000  Uiso   1.00
H1298  H     0.29639   0.57334   0.83056   0.00000  Uiso   1.00
H1299  H     0.14358   0.60438   0.70983   0.00000  Uiso   1.00
H1300  H     0.10120   0.56501   0.71819   0.00000  Uiso   1.00
H1301  H     0.09144   0.61864   0.68928   0.00000  Uiso   1.00
H1302  H     0.08630   0.59994   0.79227   0.00000  Uiso   1.00
H1303  H     0.08016   0.64885   0.76335   0.00000  Uiso   1.00
H1304  H     0.29609   0.42628   0.83205   0.00000  Uiso   1.00
H1305  H     0.03694   0.57334   0.83591   0.00000  Uiso   1.00
H1306  H     0.07428   0.39343   0.77243   0.00000  Uiso   1.00
H1307  H     0.09671   0.44052   0.74126   0.00000  Uiso   1.00
H1308  H     0.07434   0.39478   0.70594   0.00000  Uiso   1.00
H1309  H     0.15956   0.39484   0.72624   0.00000  Uiso   1.00
H1310  H     0.13029   0.35074   0.71513   0.00000  Uiso   1.00
N1311  N     0.16667   0.61736   0.83333   0.00000  Uiso   1.00
N1312  N     0.16667   0.38264   0.83333   0.00000  Uiso   1.00
O1313  O     0.10655   0.53958   0.83333   0.00000  Uiso   1.00
O1314  O     0.22679   0.46042   0.83334   0.00000  Uiso   1.00
O1315  O     0.22679   0.53958   0.83334   0.00000  Uiso   1.00
O1316  O     0.10655   0.46042   0.83333   0.00000  Uiso   1.00
O1317  O     0.16667   0.53959   0.76280   0.00000  Uiso   1.00
O1318  O     0.16667   0.46041   0.90387   0.00000  Uiso   1.00
O1319  O     0.16667   0.53959   0.90387   0.00000  Uiso   1.00
O1320  O     0.16667   0.46041   0.76280   0.00000  Uiso   1.00
C1321  C     0.42099   0.49997   0.83368   0.00000  Uiso   1.00
C1322  C     0.35462   0.54098   0.83421   0.00000  Uiso   1.00
C1323  C     0.62375   0.49984   0.83251   0.00000  Uiso   1.00
C1324  C     0.37625   0.49984   0.83413   0.00000  Uiso   1.00
C1325  C     0.48083   0.35735   0.79442   0.00000  Uiso   1.00
C1326  C     0.52482   0.64239   0.86752   0.00000  Uiso   1.00
C1327  C     0.51918   0.35735   0.87224   0.00000  Uiso   1.00
C1328  C     0.47520   0.64238   0.79912   0.00000  Uiso   1.00
C1329  C     0.46743   0.37768   0.74344   0.00000  Uiso   1.00
C1330  C     0.42606   0.40326   0.74112   0.00000  Uiso   1.00
C1331  C     0.56281   0.62213   0.89666   0.00000  Uiso   1.00
C1332  C     0.57900   0.49997   0.83297   0.00000  Uiso   1.00
C1333  C     0.55585   0.60112   0.94749   0.00000  Uiso   1.00
C1334  C     0.53257   0.37767   0.92323   0.00000  Uiso   1.00
C1335  C     0.57393   0.40326   0.92556   0.00000  Uiso   1.00
C1336  C     0.43724   0.62210   0.76992   0.00000  Uiso   1.00
C1337  C     0.44427   0.60116   0.71906   0.00000  Uiso   1.00
C1338  C     0.50016   0.49999   0.74058   0.00000  Uiso   1.00
C1339  C     0.49984   0.49999   0.92609   0.00000  Uiso   1.00
C1340  C     0.50008   0.49992   0.68865   0.00000  Uiso   1.00
C1341  C     0.49992   0.49993   0.97801   0.00000  Uiso   1.00
C1342  C     0.35467   0.45858   0.83388   0.00000  Uiso   1.00
C1343  C     0.64537   0.54098   0.83234   0.00000  Uiso   1.00
C1344  C     0.64533   0.45858   0.83283   0.00000  Uiso   1.00
Cu1345 Cu    0.50000   0.54689   0.83333   0.00000  Uiso   1.00
Cu1346 Cu    0.50000   0.45311   0.83333   0.00000  Uiso   1.00
H1347  H     0.37059   0.42628   0.83471   0.00000  Uiso   1.00
H1348  H     0.52323   0.60434   0.95680   0.00000  Uiso   1.00
H1349  H     0.56557   0.56496   0.94828   0.00000  Uiso   1.00
H1350  H     0.57539   0.61854   0.97727   0.00000  Uiso   1.00
H1351  H     0.58043   0.60003   0.87424   0.00000  Uiso   1.00
H1352  H     0.58653   0.64891   0.90324   0.00000  Uiso   1.00
H1353  H     0.59238   0.39344   0.89426   0.00000  Uiso   1.00
H1354  H     0.56994   0.44052   0.92542   0.00000  Uiso   1.00
H1355  H     0.59231   0.39479   0.96074   0.00000  Uiso   1.00
H1356  H     0.50710   0.39483   0.94043   0.00000  Uiso   1.00
H1357  H     0.53638   0.35071   0.95152   0.00000  Uiso   1.00
H1358  H     0.62972   0.57334   0.83056   0.00000  Uiso   1.00
H1359  H     0.47691   0.60438   0.70983   0.00000  Uiso   1.00
H1360  H     0.43453   0.56501   0.71819   0.00000  Uiso   1.00
H1361  H     0.42477   0.61864   0.68928   0.00000  Uiso   1.00
H1362  H     0.41963   0.59994   0.79227   0.00000  Uiso   1.00
H1363  H     0.41349   0.64885   0.76335   0.00000  Uiso   1.00
H1364  H     0.62942   0.42628   0.83205   0.00000  Uiso   1.00
H1365  H     0.37027   0.57334   0.83591   0.00000  Uiso   1.00
H1366  H     0.40762   0.39343   0.77243   0.00000  Uiso   1.00
H1367  H     0.43004   0.44052   0.74126   0.00000  Uiso   1.00
H1368  H     0.40767   0.39478   0.70594   0.00000  Uiso   1.00
H1369  H     0.49289   0.39484   0.72624   0.00000  Uiso   1.00
H1370  H     0.46363   0.35074   0.71513   0.00000  Uiso   1.00
N1371  N     0.50000   0.61736   0.83333   0.00000  Uiso   1.00
N1372  N     0.50000   0.38264   0.83333   0.00000  Uiso   1.00
O1373  O     0.43988   0.53958   0.83333   0.00000  Uiso   1.00
O1374  O     0.56012   0.46042   0.83334   0.00000  Uiso   1.00
O1375  O     0.56012   0.53958   0.83334   0.00000  Uiso   1.00
O1376  O     0.43988   0.46042   0.83333   0.00000  Uiso   1.00
O1377  O     0.50000   0.53959   0.76280   0.00000  Uiso   1.00
O1378  O     0.50000   0.46041   0.90387   0.00000  Uiso   1.00
O1379  O     0.50000   0.53959   0.90387   0.00000  Uiso   1.00
O1380  O     0.50000   0.46041   0.76280   0.00000  Uiso   1.00
C1381  C     0.75433   0.49997   0.83368   0.00000  Uiso   1.00
C1382  C     0.68796   0.54098   0.83421   0.00000  Uiso   1.00
C1383  C     0.95709   0.49984   0.83251   0.00000  Uiso   1.00
C1384  C     0.70958   0.49984   0.83413   0.00000  Uiso   1.00
C1385  C     0.81416   0.35735   0.79442   0.00000  Uiso   1.00
C1386  C     0.85815   0.64239   0.86752   0.00000  Uiso   1.00
C1387  C     0.85251   0.35735   0.87224   0.00000  Uiso   1.00
C1388  C     0.80853   0.64238   0.79912   0.00000  Uiso   1.00
C1389  C     0.80076   0.37768   0.74344   0.00000  Uiso   1.00
C1390  C     0.75940   0.40326   0.74112   0.00000  Uiso   1.00
C1391  C     0.89614   0.62213   0.89666   0.00000  Uiso   1.00
C1392  C     0.91234   0.49997   0.83297   0.00000  Uiso   1.00
C1393  C     0.88919   0.60112   0.94749   0.00000  Uiso   1.00
C1394  C     0.86590   0.37767   0.92323   0.00000  Uiso   1.00
C1395  C     0.90726   0.40326   0.92556   0.00000  Uiso   1.00
C1396  C     0.77058   0.62210   0.76992   0.00000  Uiso   1.00
C1397  C     0.77760   0.60116   0.71906   0.00000  Uiso   1.00
C1398  C     0.83350   0.49999   0.74058   0.00000  Uiso   1.00
C1399  C     0.83317   0.49999   0.92609   0.00000  Uiso   1.00
C1400  C     0.83342   0.49992   0.68865   0.00000  Uiso   1.00
C1401  C     0.83325   0.49993   0.97801   0.00000  Uiso   1.00
C1402  C     0.68801   0.45858   0.83388   0.00000  Uiso   1.00
C1403  C     0.97870   0.54098   0.83234   0.00000  Uiso   1.00
C1404  C     0.97866   0.45858   0.83283   0.00000  Uiso   1.00
Cu1405 Cu    0.83333   0.54689   0.83333   0.00000  Uiso   1.00
Cu1406 Cu    0.83333   0.45311   0.83333   0.00000  Uiso   1.00
H1407  H     0.70392   0.42628   0.83471   0.00000  Uiso   1.00
H1408  H     0.85656   0.60434   0.95680   0.00000  Uiso   1.00
H1409  H     0.89890   0.56496   0.94828   0.00000  Uiso   1.00
H1410  H     0.90873   0.61854   0.97727   0.00000  Uiso   1.00
H1411  H     0.91376   0.60003   0.87424   0.00000  Uiso   1.00
H1412  H     0.91987   0.64891   0.90324   0.00000  Uiso   1.00
H1413  H     0.92572   0.39344   0.89426   0.00000  Uiso   1.00
H1414  H     0.90327   0.44052   0.92542   0.00000  Uiso   1.00
H1415  H     0.92565   0.39479   0.96074   0.00000  Uiso   1.00
H1416  H     0.84043   0.39483   0.94043   0.00000  Uiso   1.00
H1417  H     0.86971   0.35071   0.95152   0.00000  Uiso   1.00
H1418  H     0.96305   0.57334   0.83056   0.00000  Uiso   1.00
H1419  H     0.81024   0.60438   0.70983   0.00000  Uiso   1.00
H1420  H     0.76786   0.56501   0.71819   0.00000  Uiso   1.00
H1421  H     0.75811   0.61864   0.68928   0.00000  Uiso   1.00
H1422  H     0.75297   0.59994   0.79227   0.00000  Uiso   1.00
H1423  H     0.74683   0.64885   0.76335   0.00000  Uiso   1.00
H1424  H     0.96275   0.42628   0.83205   0.00000  Uiso   1.00
H1425  H     0.70360   0.57334   0.83591   0.00000  Uiso   1.00
H1426  H     0.74095   0.39343   0.77243   0.00000  Uiso   1.00
H1427  H     0.76338   0.44052   0.74126   0.00000  Uiso   1.00
H1428  H     0.74101   0.39478   0.70594   0.00000  Uiso   1.00
H1429  H     0.82623   0.39484   0.72624   0.00000  Uiso   1.00
H1430  H     0.79696   0.35074   0.71513   0.00000  Uiso   1.00
N1431  N     0.83333   0.61736   0.83333   0.00000  Uiso   1.00
N1432  N     0.83333   0.38264   0.83333   0.00000  Uiso   1.00
O1433  O     0.77321   0.53958   0.83333   0.00000  Uiso   1.00
O1434  O     0.89345   0.46042   0.83334   0.00000  Uiso   1.00
O1435  O     0.89345   0.53958   0.83334   0.00000  Uiso   1.00
O1436  O     0.77321   0.46042   0.83333   0.00000  Uiso   1.00
O1437  O     0.83333   0.53959   0.76280   0.00000  Uiso   1.00
O1438  O     0.83333   0.46041   0.90387   0.00000  Uiso   1.00
O1439  O     0.83333   0.53959   0.90387   0.00000  Uiso   1.00
O1440  O     0.83333   0.46041   0.76280   0.00000  Uiso   1.00
C1441  C     0.08766   0.83331   0.83368   0.00000  Uiso   1.00
C1442  C     0.02129   0.87432   0.83421   0.00000  Uiso   1.00
C1443  C     0.29042   0.83317   0.83251   0.00000  Uiso   1.00
C1444  C     0.04291   0.83317   0.83413   0.00000  Uiso   1.00
C1445  C     0.14749   0.69068   0.79442   0.00000  Uiso   1.00
C1446  C     0.19148   0.97572   0.86752   0.00000  Uiso   1.00
C1447  C     0.18584   0.69068   0.87224   0.00000  Uiso   1.00
C1448  C     0.14186   0.97572   0.79912   0.00000  Uiso   1.00
C1449  C     0.13410   0.71101   0.74344   0.00000  Uiso   1.00
C1450  C     0.09273   0.73659   0.74112   0.00000  Uiso   1.00
C1451  C     0.22948   0.95546   0.89666   0.00000  Uiso   1.00
C1452  C     0.24567   0.83331   0.83297   0.00000  Uiso   1.00
C1453  C     0.22252   0.93445   0.94749   0.00000  Uiso   1.00
C1454  C     0.19923   0.71100   0.92323   0.00000  Uiso   1.00
C1455  C     0.24059   0.73659   0.92556   0.00000  Uiso   1.00
C1456  C     0.10391   0.95543   0.76992   0.00000  Uiso   1.00
C1457  C     0.11093   0.93450   0.71906   0.00000  Uiso   1.00
C1458  C     0.16683   0.83332   0.74058   0.00000  Uiso   1.00
C1459  C     0.16651   0.83332   0.92609   0.00000  Uiso   1.00
C1460  C     0.16675   0.83326   0.68865   0.00000  Uiso   1.00
C1461  C     0.16659   0.83326   0.97801   0.00000  Uiso   1.00
C1462  C     0.02134   0.79191   0.83388   0.00000  Uiso   1.00
C1463  C     0.31204   0.87432   0.83234   0.00000  Uiso   1.00
C1464  C     0.31200   0.79191   0.83283   0.00000  Uiso   1.00
Cu1465 Cu    0.16667   0.88022   0.83333   0.00000  Uiso   1.00
Cu1466 Cu    0.16667   0.78645   0.83333   0.00000  Uiso   1.00
H1467  H     0.03725   0.75961   0.83471   0.00000  Uiso   1.00
H1468  H     0.18990   0.93767   0.95680   0.00000  Uiso   1.00
H1469  H     0.23224   0.89829   0.94828   0.00000  Uiso   1.00
H1470  H     0.24206   0.95188   0.97727   0.00000  Uiso   1.00
H1471  H     0.24710   0.93337   0.87424   0.00000  Uiso   1.00
H1472  H     0.25320   0.98224   0.90324   0.00000  Uiso   1.00
H1473  H     0.25905   0.72677   0.89426   0.00000  Uiso   1.00
H1474  H     0.23661   0.77385   0.92542   0.00000  Uiso   1.00
H1475  H     0.25898   0.72812   0.96074   0.00000  Uiso   1.00
H1476  H     0.17377   0.72816   0.94043   0.00000  Uiso   1.00
H1477  H     0.20305   0.68404   0.95152   0.00000  Uiso   1.00
H1478  H     0.29639   0.90667   0.83056   0.00000  Uiso   1.00
H1479  H     0.14358   0.93772   0.70983   0.00000  Uiso   1.00
H1480  H     0.10120   0.89834   0.71819   0.00000  Uiso   1.00
H1481  H     0.09144   0.95197   0.68928   0.00000  Uiso   1.00
H1482  H     0.08630   0.93328   0.79227   0.00000  Uiso   1.00
H1483  H     0.08016   0.98219   0.76335   0.00000  Uiso   1.00
H1484  H     0.29609   0.75961   0.83205   0.00000  Uiso   1.00
H1485  H     0.03694   0.90668   0.83591   0.00000  Uiso   1.00
H1486  H     0.07428   0.72676   0.77243   0.00000  Uiso   1.00
H1487  H     0.09671   0.77385   0.74126   0.00000  Uiso   1.00
H1488  H     0.07434   0.72811   0.70594   0.00000  Uiso   1.00
H1489  H     0.15956   0.72817   0.72624   0.00000  Uiso   1.00
H1490  H     0.13029   0.68407   0.71513   0.00000  Uiso   1.00
N1491  N     0.16667   0.95069   0.83333   0.00000  Uiso   1.00
N1492  N     0.16667   0.71598   0.83333   0.00000  Uiso   1.00
O1493  O     0.10655   0.87291   0.83333   0.00000  Uiso   1.00
O1494  O     0.22679   0.79375   0.83334   0.00000  Uiso   1.00
O1495  O     0.22679   0.87291   0.83334   0.00000  Uiso   1.00
O1496  O     0.10655   0.79375   0.83333   0.00000  Uiso   1.00
O1497  O     0.16667   0.87292   0.76280   0.00000  Uiso   1.00
O1498  O     0.16667   0.79375   0.90387   0.00000  Uiso   1.00
O1499  O     0.16667   0.87292   0.90387   0.00000  Uiso   1.00
O1500  O     0.16667   0.79375   0.76280   0.00000  Uiso   1.00
C1501  C     0.42099   0.83331   0.83368   0.00000  Uiso   1.00
C1502  C     0.35462   0.87432   0.83421   0.00000  Uiso   1.00
C1503  C     0.62375   0.83317   0.83251   0.00000  Uiso   1.00
C1504  C     0.37625   0.83317   0.83413   0.00000  Uiso   1.00
C1505  C     0.48083   0.69068   0.79442   0.00000  Uiso   1.00
C1506  C     0.52482   0.97572   0.86752   0.00000  Uiso   1.00
C1507  C     0.51918   0.69068   0.87224   0.00000  Uiso   1.00
C1508  C     0.47520   0.97572   0.79912   0.00000  Uiso   1.00
C1509  C     0.46743   0.71101   0.74344   0.00000  Uiso   1.00
C1510  C     0.42606   0.73659   0.74112   0.00000  Uiso   1.00
C1511  C     0.56281   0.95546   0.89666   0.00000  Uiso   1.00
C1512  C     0.57900   0.83331   0.83297   0.00000  Uiso   1.00
C1513  C     0.55585   0.93445   0.94749   0.00000  Uiso   1.00
C1514  C     0.53257   0.71100   0.92323   0.00000  Uiso   1.00
C1515  C     0.57393   0.73659   0.92556   0.00000  Uiso   1.00
C1516  C     0.43724   0.95543   0.76992   0.00000  Uiso   1.00
C1517  C     0.44427   0.93450   0.71906   0.00000  Uiso   1.00
C1518  C     0.50016   0.83332   0.74058   0.00000  Uiso   1.00
C1519  C     0.49984   0.83332   0.92609   0.00000  Uiso   1.00
C1520  C     0.50008   0.83326   0.68865   0.00000  Uiso   1.00
C1521  C     0.49992   0.83326   0.97801   0.00000  Uiso   1.00
C1522  C     0.35467   0.79191   0.83388   0.00000  Uiso   1.00
C1523  C     0.64537   0.87432   0.83234   0.00000  Uiso   1.00
C1524  C     0.64533   0.79191   0.83283   0.00000  Uiso   1.00
Cu1525 Cu    0.50000   0.88022   0.83333   0.00000  Uiso   1.00
Cu1526 Cu    0.50000   0.78645   0.83333   0.00000  Uiso   1.00
H1527  H     0.37059   0.75961   0.83471   0.00000  Uiso   1.00
H1528  H     0.52323   0.93767   0.95680   0.00000  Uiso   1.00
H1529  H     0.56557   0.89829   0.94828   0.00000  Uiso   1.00
H1530  H     0.57539   0.95188   0.97727   0.00000  Uiso   1.00
H1531  H     0.58043   0.93337   0.87424   0.00000  Uiso   1.00
H1532  H     0.58653   0.98224   0.90324   0.00000  Uiso   1.00
H1533  H     0.59238   0.72677   0.89426   0.00000  Uiso   1.00
H1534  H     0.56994   0.77385   0.92542   0.00000  Uiso   1.00
H1535  H     0.59231   0.72812   0.96074   0.00000  Uiso   1.00
H1536  H     0.50710   0.72816   0.94043   0.00000  Uiso   1.00
H1537  H     0.53638   0.68404   0.95152   0.00000  Uiso   1.00
H1538  H     0.62972   0.90667   0.83056   0.00000  Uiso   1.00
H1539  H     0.47691   0.93772   0.70983   0.00000  Uiso   1.00
H1540  H     0.43453   0.89834   0.71819   0.00000  Uiso   1.00
H1541  H     0.42477   0.95197   0.68928   0.00000  Uiso   1.00
H1542  H     0.41963   0.93328   0.79227   0.00000  Uiso   1.00
H1543  H     0.41349   0.98219   0.76335   0.00000  Uiso   1.00
H1544  H     0.62942   0.75961   0.83205   0.00000  Uiso   1.00
H1545  H     0.37027   0.90668   0.83591   0.00000  Uiso   1.00
H1546  H     0.40762   0.72676   0.77243   0.00000  Uiso   1.00
H1547  H     0.43004   0.77385   0.74126   0.00000  Uiso   1.00
H1548  H     0.40767   0.72811   0.70594   0.00000  Uiso   1.00
H1549  H     0.49289   0.72817   0.72624   0.00000  Uiso   1.00
H1550  H     0.46363   0.68407   0.71513   0.00000  Uiso   1.00
N1551  N     0.50000   0.95069   0.83333   0.00000  Uiso   1.00
N1552  N     0.50000   0.71598   0.83333   0.00000  Uiso   1.00
O1553  O     0.43988   0.87291   0.83333   0.00000  Uiso   1.00
O1554  O     0.56012   0.79375   0.83334   0.00000  Uiso   1.00
O1555  O     0.56012   0.87291   0.83334   0.00000  Uiso   1.00
O1556  O     0.43988   0.79375   0.83333   0.00000  Uiso   1.00
O1557  O     0.50000   0.87292   0.76280   0.00000  Uiso   1.00
O1558  O     0.50000   0.79375   0.90387   0.00000  Uiso   1.00
O1559  O     0.50000   0.87292   0.90387   0.00000  Uiso   1.00
O1560  O     0.50000   0.79375   0.76280   0.00000  Uiso   1.00
C1561  C     0.75433   0.83331   0.83368   0.00000  Uiso   1.00
C1562  C     0.68796   0.87432   0.83421   0.00000  Uiso   1.00
C1563  C     0.95709   0.83317   0.83251   0.00000  Uiso   1.00
C1564  C     0.70958   0.83317   0.83413   0.00000  Uiso   1.00
C1565  C     0.81416   0.69068   0.79442   0.00000  Uiso   1.00
C1566  C     0.85815   0.97572   0.86752   0.00000  Uiso   1.00
C1567  C     0.85251   0.69068   0.87224   0.00000  Uiso   1.00
C1568  C     0.80853   0.97572   0.79912   0.00000  Uiso   1.00
C1569  C     0.80076   0.71101   0.74344   0.00000  Uiso   1.00
C1570  C     0.75940   0.73659   0.74112   0.00000  Uiso   1.00
C1571  C     0.89614   0.95546   0.89666   0.00000  Uiso   1.00
C1572  C     0.91234   0.83331   0.83297   0.00000  Uiso   1.00
C1573  C     0.88919   0.93445   0.94749   0.00000  Uiso   1.00
C1574  C     0.86590   0.71100   0.92323   0.00000  Uiso   1.00
C1575  C     0.90726   0.73659   0.92556   0.00000  Uiso   1.00
C1576  C     0.77058   0.95543   0.76992   0.00000  Uiso   1.00
C1577  C     0.77760   0.93450   0.71906   0.00000  Uiso   1.00
C1578  C     0.83350   0.83332   0.74058   0.00000  Uiso   1.00
C1579  C     0.83317   0.83332   0.92609   0.00000  Uiso   1.00
C1580  C     0.83342   0.83326   0.68865   0.00000  Uiso   1.00
C1581  C     0.83325   0.83326   0.97801   0.00000  Uiso   1.00
C1582  C     0.68801   0.79191   0.83388   0.00000  Uiso   1.00
C1583  C     0.97870   0.87432   0.83234   0.00000  Uiso   1.00
C1584  C     0.97866   0.79191   0.83283   0.00000  Uiso   1.00
Cu1585 Cu    0.83333   0.88022   0.83333   0.00000  Uiso   1.00
Cu1586 Cu    0.83333   0.78645   0.83333   0.00000  Uiso   1.00
H1587  H     0.70392   0.75961   0.83471   0.00000  Uiso   1.00
H1588  H     0.85656   0.93767   0.95680   0.00000  Uiso   1.00
H1589  H     0.89890   0.89829   0.94828   0.00000  Uiso   1.00
H1590  H     0.90873   0.95188   0.97727   0.00000  Uiso   1.00
H1591  H     0.91376   0.93337   0.87424   0.00000  Uiso   1.00
H1592  H     0.91987   0.98224   0.90324   0.00000  Uiso   1.00
H1593  H     0.92572   0.72677   0.89426   0.00000  Uiso   1.00
H1594  H     0.90327   0.77385   0.92542   0.00000  Uiso   1.00
H1595  H     0.92565   0.72812   0.96074   0.00000  Uiso   1.00
H1596  H     0.84043   0.72816   0.94043   0.00000  Uiso   1.00
H1597  H     0.86971   0.68404   0.95152   0.00000  Uiso   1.00
H1598  H     0.96305   0.90667   0.83056   0.00000  Uiso   1.00
H1599  H     0.81024   0.93772   0.70983   0.00000  Uiso   1.00
H1600  H     0.76786   0.89834   0.71819   0.00000  Uiso   1.00
H1601  H     0.75811   0.95197   0.68928   0.00000  Uiso   1.00
H1602  H     0.75297   0.93328   0.79227   0.00000  Uiso   1.00
H1603  H     0.74683   0.98219   0.76335   0.00000  Uiso   1.00
H1604  H     0.96275   0.75961   0.83205   0.00000  Uiso   1.00
H1605  H     0.70360   0.90668   0.83591   0.00000  Uiso   1.00
H1606  H     0.74095   0.72676   0.77243   0.00000  Uiso   1.00
H1607  H     0.76338   0.77385   0.74126   0.00000  Uiso   1.00
H1608  H     0.74101   0.72811   0.70594   0.00000  Uiso   1.00
H1609  H     0.82623   0.72817   0.72624   0.00000  Uiso   1.00
H1610  H     0.79696   0.68407   0.71513   0.00000  Uiso   1.00
N1611  N     0.83333   0.95069   0.83333   0.00000  Uiso   1.00
N1612  N     0.83333   0.71598   0.83333   0.00000  Uiso   1.00
O1613  O     0.77321   0.87291   0.83333   0.00000  Uiso   1.00
O1614  O     0.89345   0.79375   0.83334   0.00000  Uiso   1.00
O1615  O     0.89345   0.87291   0.83334   0.00000  Uiso   1.00
O1616  O     0.77321   0.79375   0.83333   0.00000  Uiso   1.00
O1617  O     0.83333   0.87292   0.76280   0.00000  Uiso   1.00
O1618  O     0.83333   0.79375   0.90387   0.00000  Uiso   1.00
O1619  O     0.83333   0.87292   0.90387   0.00000  Uiso   1.00
O1620  O     0.83333   0.79375   0.76280   0.00000  Uiso   1.00
loop_
_geom_bond_atom_site_label_1
_geom_bond_atom_site_label_2
_geom_bond_distance
_geom_bond_site_symmetry_2
_ccdc_geom_bond_type
C1     C4      1.454   .     S
C1     O56     1.316   .     A
C1     O53     1.317   .     A
C2     C4      1.400   .     A
C2     H45     1.079   .     S
C2     C143    1.380   1_455 S
C3     C23     1.400   .     A
C3     C24     1.402   .     A
C3     C12     1.454   .     S
C4     C22     1.402   .     A
C5     C9      1.532   .     S
C5     N52     1.395   .     A
C5     C368    1.440   1_545 S
C6     N51     1.390   .     A
C6     C11     1.534   .     S
C6     C187    1.440   .     S
C7     N52     1.395   .     A
C7     C14     1.532   .     S
C7     C366    1.440   1_545 S
C8     C16     1.534   .     S
C8     N51     1.390   .     A
C8     C185    1.440   .     S
C9     C10     1.537   .     S
C9     H49     1.100   .     S
C9     H50     1.101   .     S
C10    H46     1.108   .     S
C10    H48     1.111   .     S
C10    H47     1.104   .     S
C11    H31     1.080   .     S
C11    C13     1.534   .     S
C11    H32     1.107   .     S
C12    O55     1.317   .     A
C12    O54     1.316   .     A
C13    H28     1.111   .     S
C13    H29     1.110   .     S
C13    H30     1.111   .     S
C14    H37     1.101   .     S
C14    H36     1.100   .     S
C14    C15     1.537   .     S
C15    H34     1.104   .     S
C15    H35     1.111   .     S
C15    H33     1.108   .     S
C16    H43     1.107   .     S
C16    H42     1.079   .     S
C16    C17     1.534   .     S
C17    H41     1.111   .     S
C17    H39     1.111   .     S
C17    H40     1.110   .     S
C18    O57     1.310   .     A
C18    C20     1.399   .     S
C18    O60     1.310   .     A
C19    C21     1.399   .     S
C19    O58     1.310   .     A
C19    O59     1.310   .     A
C20    C1101   1.184   1_554 S
C21    C560    1.184   .     S
C22    H27     1.081   .     S
C22    C144    1.384   1_455 S
C23    H38     1.079   .     S
C23    C62     1.380   .     S
C24    H44     1.081   .     S
C24    C82     1.384   .     S
Cu25   N51     2.074   .     S
Cu25   O57     1.913   .     S
Cu25   O53     1.965   .     S
Cu25   O59     1.913   .     S
Cu25   Cu26    2.759   .     S
Cu25   O55     1.965   .     S
Cu26   N52     2.074   .     S
Cu26   O58     1.913   .     S
Cu26   O54     1.965   .     S
Cu26   O60     1.913   .     S
Cu26   O56     1.965   .     S
C61    C64     1.454   .     S
C61    O116    1.316   .     A
C61    O113    1.317   .     A
C62    C64     1.400   .     A
C62    H105    1.079   .     S
C63    C83     1.400   .     A
C63    C84     1.402   .     A
C63    C72     1.454   .     S
C64    C82     1.402   .     A
C65    C69     1.532   .     S
C65    N112    1.395   .     A
C65    C428    1.440   1_545 S
C66    N111    1.390   .     A
C66    C71     1.534   .     S
C66    C247    1.440   .     S
C67    N112    1.395   .     A
C67    C74     1.532   .     S
C67    C426    1.440   1_545 S
C68    C76     1.534   .     S
C68    N111    1.390   .     A
C68    C245    1.440   .     S
C69    C70     1.537   .     S
C69    H109    1.100   .     S
C69    H110    1.101   .     S
C70    H106    1.108   .     S
C70    H108    1.111   .     S
C70    H107    1.104   .     S
C71    H91     1.080   .     S
C71    C73     1.534   .     S
C71    H92     1.107   .     S
C72    O115    1.317   .     A
C72    O114    1.316   .     A
C73    H88     1.111   .     S
C73    H89     1.110   .     S
C73    H90     1.111   .     S
C74    H97     1.101   .     S
C74    H96     1.100   .     S
C74    C75     1.537   .     S
C75    H94     1.104   .     S
C75    H95     1.111   .     S
C75    H93     1.108   .     S
C76    H103    1.107   .     S
C76    H102    1.079   .     S
C76    C77     1.534   .     S
C77    H101    1.111   .     S
C77    H99     1.111   .     S
C77    H100    1.110   .     S
C78    O117    1.310   .     A
C78    C80     1.399   .     S
C78    O120    1.310   .     A
C79    C81     1.399   .     S
C79    O118    1.310   .     A
C79    O119    1.310   .     A
C80    C1161   1.184   1_554 S
C81    C620    1.184   .     S
C82    H87     1.081   .     S
C83    H98     1.079   .     S
C83    C122    1.380   .     S
C84    H104    1.081   .     S
C84    C142    1.384   .     S
Cu85   N111    2.074   .     S
Cu85   O117    1.913   .     S
Cu85   O113    1.965   .     S
Cu85   O119    1.913   .     S
Cu85   Cu86    2.759   .     S
Cu85   O115    1.965   .     S
Cu86   N112    2.074   .     S
Cu86   O118    1.913   .     S
Cu86   O114    1.965   .     S
Cu86   O120    1.913   .     S
Cu86   O116    1.965   .     S
C121   C124    1.454   .     S
C121   O176    1.316   .     A
C121   O173    1.317   .     A
C122   C124    1.400   .     A
C122   H165    1.079   .     S
C123   C143    1.400   .     A
C123   C144    1.402   .     A
C123   C132    1.454   .     S
C124   C142    1.402   .     A
C125   C129    1.532   .     S
C125   N172    1.395   .     A
C125   C488    1.440   1_545 S
C126   N171    1.390   .     A
C126   C131    1.534   .     S
C126   C307    1.440   .     S
C127   N172    1.395   .     A
C127   C134    1.532   .     S
C127   C486    1.440   1_545 S
C128   C136    1.534   .     S
C128   N171    1.390   .     A
C128   C305    1.440   .     S
C129   C130    1.537   .     S
C129   H169    1.100   .     S
C129   H170    1.101   .     S
C130   H166    1.108   .     S
C130   H168    1.111   .     S
C130   H167    1.104   .     S
C131   H151    1.080   .     S
C131   C133    1.534   .     S
C131   H152    1.107   .     S
C132   O175    1.317   .     A
C132   O174    1.316   .     A
C133   H148    1.111   .     S
C133   H149    1.110   .     S
C133   H150    1.111   .     S
C134   H157    1.101   .     S
C134   H156    1.100   .     S
C134   C135    1.537   .     S
C135   H154    1.104   .     S
C135   H155    1.111   .     S
C135   H153    1.108   .     S
C136   H163    1.107   .     S
C136   H162    1.079   .     S
C136   C137    1.534   .     S
C137   H161    1.111   .     S
C137   H159    1.111   .     S
C137   H160    1.110   .     S
C138   O177    1.310   .     A
C138   C140    1.399   .     S
C138   O180    1.310   .     A
C139   C141    1.399   .     S
C139   O178    1.310   .     A
C139   O179    1.310   .     A
C140   C1221   1.184   1_554 S
C141   C680    1.184   .     S
C142   H147    1.081   .     S
C143   H158    1.079   .     S
C143   C2      1.380   1_655 S
C144   H164    1.081   .     S
C144   C22     1.384   1_655 S
Cu145  N171    2.074   .     S
Cu145  O177    1.913   .     S
Cu145  O173    1.965   .     S
Cu145  O179    1.913   .     S
Cu145  Cu146   2.759   .     S
Cu145  O175    1.965   .     S
Cu146  N172    2.074   .     S
Cu146  O178    1.913   .     S
Cu146  O174    1.965   .     S
Cu146  O180    1.913   .     S
Cu146  O176    1.965   .     S
C181   C184    1.454   .     S
C181   O236    1.316   .     A
C181   O233    1.317   .     A
C182   C184    1.400   .     A
C182   H225    1.079   .     S
C182   C323    1.380   1_455 S
C183   C203    1.400   .     A
C183   C204    1.402   .     A
C183   C192    1.454   .     S
C184   C202    1.402   .     A
C185   C189    1.532   .     S
C185   N232    1.395   .     A
C186   N231    1.390   .     A
C186   C191    1.534   .     S
C186   C367    1.440   .     S
C187   N232    1.395   .     A
C187   C194    1.532   .     S
C188   C196    1.534   .     S
C188   N231    1.390   .     A
C188   C365    1.440   .     S
C189   C190    1.537   .     S
C189   H229    1.100   .     S
C189   H230    1.101   .     S
C190   H226    1.108   .     S
C190   H228    1.111   .     S
C190   H227    1.104   .     S
C191   H211    1.080   .     S
C191   C193    1.534   .     S
C191   H212    1.107   .     S
C192   O235    1.317   .     A
C192   O234    1.316   .     A
C193   H208    1.111   .     S
C193   H209    1.110   .     S
C193   H210    1.111   .     S
C194   H217    1.101   .     S
C194   H216    1.100   .     S
C194   C195    1.537   .     S
C195   H214    1.104   .     S
C195   H215    1.111   .     S
C195   H213    1.108   .     S
C196   H223    1.107   .     S
C196   H222    1.079   .     S
C196   C197    1.534   .     S
C197   H221    1.111   .     S
C197   H219    1.111   .     S
C197   H220    1.110   .     S
C198   O237    1.310   .     A
C198   C200    1.399   .     S
C198   O240    1.310   .     A
C199   C201    1.399   .     S
C199   O238    1.310   .     A
C199   O239    1.310   .     A
C200   C1281   1.184   1_554 S
C201   C740    1.184   .     S
C202   H207    1.081   .     S
C202   C324    1.384   1_455 S
C203   H218    1.079   .     S
C203   C242    1.380   .     S
C204   H224    1.081   .     S
C204   C262    1.384   .     S
Cu205  N231    2.074   .     S
Cu205  O237    1.913   .     S
Cu205  O233    1.965   .     S
Cu205  O239    1.913   .     S
Cu205  Cu206   2.759   .     S
Cu205  O235    1.965   .     S
Cu206  N232    2.074   .     S
Cu206  O238    1.913   .     S
Cu206  O234    1.965   .     S
Cu206  O240    1.913   .     S
Cu206  O236    1.965   .     S
C241   C244    1.454   .     S
C241   O296    1.316   .     A
C241   O293    1.317   .     A
C242   C244    1.400   .     A
C242   H285    1.079   .     S
C243   C263    1.400   .     A
C243   C264    1.402   .     A
C243   C252    1.454   .     S
C244   C262    1.402   .     A
C245   C249    1.532   .     S
C245   N292    1.395   .     A
C246   N291    1.390   .     A
C246   C251    1.534   .     S
C246   C427    1.440   .     S
C247   N292    1.395   .     A
C247   C254    1.532   .     S
C248   C256    1.534   .     S
C248   N291    1.390   .     A
C248   C425    1.440   .     S
C249   C250    1.537   .     S
C249   H289    1.100   .     S
C249   H290    1.101   .     S
C250   H286    1.108   .     S
C250   H288    1.111   .     S
C250   H287    1.104   .     S
C251   H271    1.080   .     S
C251   C253    1.534   .     S
C251   H272    1.107   .     S
C252   O295    1.317   .     A
C252   O294    1.316   .     A
C253   H268    1.111   .     S
C253   H269    1.110   .     S
C253   H270    1.111   .     S
C254   H277    1.101   .     S
C254   H276    1.100   .     S
C254   C255    1.537   .     S
C255   H274    1.104   .     S
C255   H275    1.111   .     S
C255   H273    1.108   .     S
C256   H283    1.107   .     S
C256   H282    1.079   .     S
C256   C257    1.534   .     S
C257   H281    1.111   .     S
C257   H279    1.111   .     S
C257   H280    1.110   .     S
C258   O297    1.310   .     A
C258   C260    1.399   .     S
C258   O300    1.310   .     A
C259   C261    1.399   .     S
C259   O298    1.310   .     A
C259   O299    1.310   .     A
C260   C1341   1.184   1_554 S
C261   C800    1.184   .     S
C262   H267    1.081   .     S
C263   H278    1.079   .     S
C263   C302    1.380   .     S
C264   H284    1.081   .     S
C264   C322    1.384   .     S
Cu265  N291    2.074   .     S
Cu265  O297    1.913   .     S
Cu265  O293    1.965   .     S
Cu265  O299    1.913   .     S
Cu265  Cu266   2.759   .     S
Cu265  O295    1.965   .     S
Cu266  N292    2.074   .     S
Cu266  O298    1.913   .     S
Cu266  O294    1.965   .     S
Cu266  O300    1.913   .     S
Cu266  O296    1.965   .     S
C301   C304    1.454   .     S
C301   O356    1.316   .     A
C301   O353    1.317   .     A
C302   C304    1.400   .     A
C302   H345    1.079   .     S
C303   C323    1.400   .     A
C303   C324    1.402   .     A
C303   C312    1.454   .     S
C304   C322    1.402   .     A
C305   C309    1.532   .     S
C305   N352    1.395   .     A
C306   N351    1.390   .     A
C306   C311    1.534   .     S
C306   C487    1.440   .     S
C307   N352    1.395   .     A
C307   C314    1.532   .     S
C308   C316    1.534   .     S
C308   N351    1.390   .     A
C308   C485    1.440   .     S
C309   C310    1.537   .     S
C309   H349    1.100   .     S
C309   H350    1.101   .     S
C310   H346    1.108   .     S
C310   H348    1.111   .     S
C310   H347    1.104   .     S
C311   H331    1.080   .     S
C311   C313    1.534   .     S
C311   H332    1.107   .     S
C312   O355    1.317   .     A
C312   O354    1.316   .     A
C313   H328    1.111   .     S
C313   H329    1.110   .     S
C313   H330    1.111   .     S
C314   H337    1.101   .     S
C314   H336    1.100   .     S
C314   C315    1.537   .     S
C315   H334    1.104   .     S
C315   H335    1.111   .     S
C315   H333    1.108   .     S
C316   H343    1.107   .     S
C316   H342    1.079   .     S
C316   C317    1.534   .     S
C317   H341    1.111   .     S
C317   H339    1.111   .     S
C317   H340    1.110   .     S
C318   O357    1.310   .     A
C318   C320    1.399   .     S
C318   O360    1.310   .     A
C319   C321    1.399   .     S
C319   O358    1.310   .     A
C319   O359    1.310   .     A
C320   C1401   1.184   1_554 S
C321   C860    1.184   .     S
C322   H327    1.081   .     S
C323   H338    1.079   .     S
C323   C182    1.380   1_655 S
C324   H344    1.081   .     S
C324   C202    1.384   1_655 S
Cu325  N351    2.074   .     S
Cu325  O357    1.913   .     S
Cu325  O353    1.965   .     S
Cu325  O359    1.913   .     S
Cu325  Cu326   2.759   .     S
Cu325  O355    1.965   .     S
Cu326  N352    2.074   .     S
Cu326  O358    1.913   .     S
Cu326  O354    1.965   .     S
Cu326  O360    1.913   .     S
Cu326  O356    1.965   .     S
C361   C364    1.454   .     S
C361   O416    1.316   .     A
C361   O413    1.317   .     A
C362   C364    1.400   .     A
C362   H405    1.079   .     S
C362   C503    1.380   1_455 S
C363   C383    1.400   .     A
C363   C384    1.402   .     A
C363   C372    1.454   .     S
C364   C382    1.402   .     A
C365   C369    1.532   .     S
C365   N412    1.395   .     A
C366   N411    1.390   .     A
C366   C371    1.534   .     S
C366   C7      1.440   1_565 S
C367   N412    1.395   .     A
C367   C374    1.532   .     S
C368   C376    1.534   .     S
C368   N411    1.390   .     A
C368   C5      1.440   1_565 S
C369   C370    1.537   .     S
C369   H409    1.100   .     S
C369   H410    1.101   .     S
C370   H406    1.108   .     S
C370   H408    1.111   .     S
C370   H407    1.104   .     S
C371   H391    1.080   .     S
C371   C373    1.534   .     S
C371   H392    1.107   .     S
C372   O415    1.317   .     A
C372   O414    1.316   .     A
C373   H388    1.111   .     S
C373   H389    1.110   .     S
C373   H390    1.111   .     S
C374   H397    1.101   .     S
C374   H396    1.100   .     S
C374   C375    1.537   .     S
C375   H394    1.104   .     S
C375   H395    1.111   .     S
C375   H393    1.108   .     S
C376   H403    1.107   .     S
C376   H402    1.079   .     S
C376   C377    1.534   .     S
C377   H401    1.111   .     S
C377   H399    1.111   .     S
C377   H400    1.110   .     S
C378   O417    1.310   .     A
C378   C380    1.399   .     S
C378   O420    1.310   .     A
C379   C381    1.399   .     S
C379   O418    1.310   .     A
C379   O419    1.310   .     A
C380   C1461   1.184   1_554 S
C381   C920    1.184   .     S
C382   H387    1.081   .     S
C382   C504    1.384   1_455 S
C383   H398    1.079   .     S
C383   C422    1.380   .     S
C384   H404    1.081   .     S
C384   C442    1.384   .     S
Cu385  N411    2.074   .     S
Cu385  O417    1.913   .     S
Cu385  O413    1.965   .     S
Cu385  O419    1.913   .     S
Cu385  Cu386   2.759   .     S
Cu385  O415    1.965   .     S
Cu386  N412    2.074   .     S
Cu386  O418    1.913   .     S
Cu386  O414    1.965   .     S
Cu386  O420    1.913   .     S
Cu386  O416    1.965   .     S
C421   C424    1.454   .     S
C421   O476    1.316   .     A
C421   O473    1.317   .     A
C422   C424    1.400   .     A
C422   H465    1.079   .     S
C423   C443    1.400   .     A
C423   C444    1.402   .     A
C423   C432    1.454   .     S
C424   C442    1.402   .     A
C425   C429    1.532   .     S
C425   N472    1.395   .     A
C426   N471    1.390   .     A
C426   C431    1.534   .     S
C426   C67     1.440   1_565 S
C427   N472    1.395   .     A
C427   C434    1.532   .     S
C428   C436    1.534   .     S
C428   N471    1.390   .     A
C428   C65     1.440   1_565 S
C429   C430    1.537   .     S
C429   H469    1.100   .     S
C429   H470    1.101   .     S
C430   H466    1.108   .     S
C430   H468    1.111   .     S
C430   H467    1.104   .     S
C431   H451    1.080   .     S
C431   C433    1.534   .     S
C431   H452    1.107   .     S
C432   O475    1.317   .     A
C432   O474    1.316   .     A
C433   H448    1.111   .     S
C433   H449    1.110   .     S
C433   H450    1.111   .     S
C434   H457    1.101   .     S
C434   H456    1.100   .     S
C434   C435    1.537   .     S
C435   H454    1.104   .     S
C435   H455    1.111   .     S
C435   H453    1.108   .     S
C436   H463    1.107   .     S
C436   H462    1.079   .     S
C436   C437    1.534   .     S
C437   H461    1.111   .     S
C437   H459    1.111   .     S
C437   H460    1.110   .     S
C438   O477    1.310   .     A
C438   C440    1.399   .     S
C438   O480    1.310   .     A
C439   C441    1.399   .     S
C439   O478    1.310   .     A
C439   O479    1.310   .     A
C440   C1521   1.184   1_554 S
C441   C980    1.184   .     S
C442   H447    1.081   .     S
C443   H458    1.079   .     S
C443   C482    1.380   .     S
C444   H464    1.081   .     S
C444   C502    1.384   .     S
Cu445  N471    2.074   .     S
Cu445  O477    1.913   .     S
Cu445  O473    1.965   .     S
Cu445  O479    1.913   .     S
Cu445  Cu446   2.759   .     S
Cu445  O475    1.965   .     S
Cu446  N472    2.074   .     S
Cu446  O478    1.913   .     S
Cu446  O474    1.965   .     S
Cu446  O480    1.913   .     S
Cu446  O476    1.965   .     S
C481   C484    1.454   .     S
C481   O536    1.316   .     A
C481   O533    1.317   .     A
C482   C484    1.400   .     A
C482   H525    1.079   .     S
C483   C503    1.400   .     A
C483   C504    1.402   .     A
C483   C492    1.454   .     S
C484   C502    1.402   .     A
C485   C489    1.532   .     S
C485   N532    1.395   .     A
C486   N531    1.390   .     A
C486   C491    1.534   .     S
C486   C127    1.440   1_565 S
C487   N532    1.395   .     A
C487   C494    1.532   .     S
C488   C496    1.534   .     S
C488   N531    1.390   .     A
C488   C125    1.440   1_565 S
C489   C490    1.537   .     S
C489   H529    1.100   .     S
C489   H530    1.101   .     S
C490   H526    1.108   .     S
C490   H528    1.111   .     S
C490   H527    1.104   .     S
C491   H511    1.080   .     S
C491   C493    1.534   .     S
C491   H512    1.107   .     S
C492   O535    1.317   .     A
C492   O534    1.316   .     A
C493   H508    1.111   .     S
C493   H509    1.110   .     S
C493   H510    1.111   .     S
C494   H517    1.101   .     S
C494   H516    1.100   .     S
C494   C495    1.537   .     S
C495   H514    1.104   .     S
C495   H515    1.111   .     S
C495   H513    1.108   .     S
C496   H523    1.107   .     S
C496   H522    1.079   .     S
C496   C497    1.534   .     S
C497   H521    1.111   .     S
C497   H519    1.111   .     S
C497   H520    1.110   .     S
C498   O537    1.310   .     A
C498   C500    1.399   .     S
C498   O540    1.310   .     A
C499   C501    1.399   .     S
C499   O538    1.310   .     A
C499   O539    1.310   .     A
C500   C1581   1.184   1_554 S
C501   C1040   1.184   .     S
C502   H507    1.081   .     S
C503   H518    1.079   .     S
C503   C362    1.380   1_655 S
C504   H524    1.081   .     S
C504   C382    1.384   1_655 S
Cu505  N531    2.074   .     S
Cu505  O537    1.913   .     S
Cu505  O533    1.965   .     S
Cu505  O539    1.913   .     S
Cu505  Cu506   2.759   .     S
Cu505  O535    1.965   .     S
Cu506  N532    2.074   .     S
Cu506  O538    1.913   .     S
Cu506  O534    1.965   .     S
Cu506  O540    1.913   .     S
Cu506  O536    1.965   .     S
C541   C544    1.454   .     S
C541   O596    1.316   .     A
C541   O593    1.317   .     A
C542   C544    1.400   .     A
C542   H585    1.079   .     S
C542   C683    1.380   1_455 S
C543   C563    1.400   .     A
C543   C564    1.402   .     A
C543   C552    1.454   .     S
C544   C562    1.402   .     A
C545   C549    1.532   .     S
C545   N592    1.395   .     A
C545   C908    1.440   1_545 S
C546   N591    1.390   .     A
C546   C551    1.534   .     S
C546   C727    1.440   .     S
C547   N592    1.395   .     A
C547   C554    1.532   .     S
C547   C906    1.440   1_545 S
C548   C556    1.534   .     S
C548   N591    1.390   .     A
C548   C725    1.440   .     S
C549   C550    1.537   .     S
C549   H589    1.100   .     S
C549   H590    1.101   .     S
C550   H586    1.108   .     S
C550   H588    1.111   .     S
C550   H587    1.104   .     S
C551   H571    1.080   .     S
C551   C553    1.534   .     S
C551   H572    1.107   .     S
C552   O595    1.317   .     A
C552   O594    1.316   .     A
C553   H568    1.111   .     S
C553   H569    1.110   .     S
C553   H570    1.111   .     S
C554   H577    1.101   .     S
C554   H576    1.100   .     S
C554   C555    1.537   .     S
C555   H574    1.104   .     S
C555   H575    1.111   .     S
C555   H573    1.108   .     S
C556   H583    1.107   .     S
C556   H582    1.079   .     S
C556   C557    1.534   .     S
C557   H581    1.111   .     S
C557   H579    1.111   .     S
C557   H580    1.110   .     S
C558   O597    1.310   .     A
C558   C560    1.399   .     S
C558   O600    1.310   .     A
C559   C561    1.399   .     S
C559   O598    1.310   .     A
C559   O599    1.310   .     A
C561   C1100   1.184   .     S
C562   H567    1.081   .     S
C562   C684    1.384   1_455 S
C563   H578    1.079   .     S
C563   C602    1.380   .     S
C564   H584    1.081   .     S
C564   C622    1.384   .     S
Cu565  N591    2.074   .     S
Cu565  O597    1.913   .     S
Cu565  O593    1.965   .     S
Cu565  O599    1.913   .     S
Cu565  Cu566   2.759   .     S
Cu565  O595    1.965   .     S
Cu566  N592    2.074   .     S
Cu566  O598    1.913   .     S
Cu566  O594    1.965   .     S
Cu566  O600    1.913   .     S
Cu566  O596    1.965   .     S
C601   C604    1.454   .     S
C601   O656    1.316   .     A
C601   O653    1.317   .     A
C602   C604    1.400   .     A
C602   H645    1.079   .     S
C603   C623    1.400   .     A
C603   C624    1.402   .     A
C603   C612    1.454   .     S
C604   C622    1.402   .     A
C605   C609    1.532   .     S
C605   N652    1.395   .     A
C605   C968    1.440   1_545 S
C606   N651    1.390   .     A
C606   C611    1.534   .     S
C606   C787    1.440   .     S
C607   N652    1.395   .     A
C607   C614    1.532   .     S
C607   C966    1.440   1_545 S
C608   C616    1.534   .     S
C608   N651    1.390   .     A
C608   C785    1.440   .     S
C609   C610    1.537   .     S
C609   H649    1.100   .     S
C609   H650    1.101   .     S
C610   H646    1.108   .     S
C610   H648    1.111   .     S
C610   H647    1.104   .     S
C611   H631    1.080   .     S
C611   C613    1.534   .     S
C611   H632    1.107   .     S
C612   O655    1.317   .     A
C612   O654    1.316   .     A
C613   H628    1.111   .     S
C613   H629    1.110   .     S
C613   H630    1.111   .     S
C614   H637    1.101   .     S
C614   H636    1.100   .     S
C614   C615    1.537   .     S
C615   H634    1.104   .     S
C615   H635    1.111   .     S
C615   H633    1.108   .     S
C616   H643    1.107   .     S
C616   H642    1.079   .     S
C616   C617    1.534   .     S
C617   H641    1.111   .     S
C617   H639    1.111   .     S
C617   H640    1.110   .     S
C618   O657    1.310   .     A
C618   C620    1.399   .     S
C618   O660    1.310   .     A
C619   C621    1.399   .     S
C619   O658    1.310   .     A
C619   O659    1.310   .     A
C621   C1160   1.184   .     S
C622   H627    1.081   .     S
C623   H638    1.079   .     S
C623   C662    1.380   .     S
C624   H644    1.081   .     S
C624   C682    1.384   .     S
Cu625  N651    2.074   .     S
Cu625  O657    1.913   .     S
Cu625  O653    1.965   .     S
Cu625  O659    1.913   .     S
Cu625  Cu626   2.759   .     S
Cu625  O655    1.965   .     S
Cu626  N652    2.074   .     S
Cu626  O658    1.913   .     S
Cu626  O654    1.965   .     S
Cu626  O660    1.913   .     S
Cu626  O656    1.965   .     S
C661   C664    1.454   .     S
C661   O716    1.316   .     A
C661   O713    1.317   .     A
C662   C664    1.400   .     A
C662   H705    1.079   .     S
C663   C683    1.400   .     A
C663   C684    1.402   .     A
C663   C672    1.454   .     S
C664   C682    1.402   .     A
C665   C669    1.532   .     S
C665   N712    1.395   .     A
C665   C1028   1.440   1_545 S
C666   N711    1.390   .     A
C666   C671    1.534   .     S
C666   C847    1.440   .     S
C667   N712    1.395   .     A
C667   C674    1.532   .     S
C667   C1026   1.440   1_545 S
C668   C676    1.534   .     S
C668   N711    1.390   .     A
C668   C845    1.440   .     S
C669   C670    1.537   .     S
C669   H709    1.100   .     S
C669   H710    1.101   .     S
C670   H706    1.108   .     S
C670   H708    1.111   .     S
C670   H707    1.104   .     S
C671   H691    1.080   .     S
C671   C673    1.534   .     S
C671   H692    1.107   .     S
C672   O715    1.317   .     A
C672   O714    1.316   .     A
C673   H688    1.111   .     S
C673   H689    1.110   .     S
C673   H690    1.111   .     S
C674   H697    1.101   .     S
C674   H696    1.100   .     S
C674   C675    1.537   .     S
C675   H694    1.104   .     S
C675   H695    1.111   .     S
C675   H693    1.108   .     S
C676   H703    1.107   .     S
C676   H702    1.079   .     S
C676   C677    1.534   .     S
C677   H701    1.111   .     S
C677   H699    1.111   .     S
C677   H700    1.110   .     S
C678   O717    1.310   .     A
C678   C680    1.399   .     S
C678   O720    1.310   .     A
C679   C681    1.399   .     S
C679   O718    1.310   .     A
C679   O719    1.310   .     A
C681   C1220   1.184   .     S
C682   H687    1.081   .     S
C683   H698    1.079   .     S
C683   C542    1.380   1_655 S
C684   H704    1.081   .     S
C684   C562    1.384   1_655 S
Cu685  N711    2.074   .     S
Cu685  O717    1.913   .     S
Cu685  O713    1.965   .     S
Cu685  O719    1.913   .     S
Cu685  Cu686   2.759   .     S
Cu685  O715    1.965   .     S
Cu686  N712    2.074   .     S
Cu686  O718    1.913   .     S
Cu686  O714    1.965   .     S
Cu686  O720    1.913   .     S
Cu686  O716    1.965   .     S
C721   C724    1.454   .     S
C721   O776    1.316   .     A
C721   O773    1.317   .     A
C722   C724    1.400   .     A
C722   H765    1.079   .     S
C722   C863    1.380   1_455 S
C723   C743    1.400   .     A
C723   C744    1.402   .     A
C723   C732    1.454   .     S
C724   C742    1.402   .     A
C725   C729    1.532   .     S
C725   N772    1.395   .     A
C726   N771    1.390   .     A
C726   C731    1.534   .     S
C726   C907    1.440   .     S
C727   N772    1.395   .     A
C727   C734    1.532   .     S
C728   C736    1.534   .     S
C728   N771    1.390   .     A
C728   C905    1.440   .     S
C729   C730    1.537   .     S
C729   H769    1.100   .     S
C729   H770    1.101   .     S
C730   H766    1.108   .     S
C730   H768    1.111   .     S
C730   H767    1.104   .     S
C731   H751    1.080   .     S
C731   C733    1.534   .     S
C731   H752    1.107   .     S
C732   O775    1.317   .     A
C732   O774    1.316   .     A
C733   H748    1.111   .     S
C733   H749    1.110   .     S
C733   H750    1.111   .     S
C734   H757    1.101   .     S
C734   H756    1.100   .     S
C734   C735    1.537   .     S
C735   H754    1.104   .     S
C735   H755    1.111   .     S
C735   H753    1.108   .     S
C736   H763    1.107   .     S
C736   H762    1.079   .     S
C736   C737    1.534   .     S
C737   H761    1.111   .     S
C737   H759    1.111   .     S
C737   H760    1.110   .     S
C738   O777    1.310   .     A
C738   C740    1.399   .     S
C738   O780    1.310   .     A
C739   C741    1.399   .     S
C739   O778    1.310   .     A
C739   O779    1.310   .     A
C741   C1280   1.184   .     S
C742   H747    1.081   .     S
C742   C864    1.384   1_455 S
C743   H758    1.079   .     S
C743   C782    1.380   .     S
C744   H764    1.081   .     S
C744   C802    1.384   .     S
Cu745  N771    2.074   .     S
Cu745  O777    1.913   .     S
Cu745  O773    1.965   .     S
Cu745  O779    1.913   .     S
Cu745  Cu746   2.759   .     S
Cu745  O775    1.965   .     S
Cu746  N772    2.074   .     S
Cu746  O778    1.913   .     S
Cu746  O774    1.965   .     S
Cu746  O780    1.913   .     S
Cu746  O776    1.965   .     S
C781   C784    1.454   .     S
C781   O836    1.316   .     A
C781   O833    1.317   .     A
C782   C784    1.400   .     A
C782   H825    1.079   .     S
C783   C803    1.400   .     A
C783   C804    1.402   .     A
C783   C792    1.454   .     S
C784   C802    1.402   .     A
C785   C789    1.532   .     S
C785   N832    1.395   .     A
C786   N831    1.390   .     A
C786   C791    1.534   .     S
C786   C967    1.440   .     S
C787   N832    1.395   .     A
C787   C794    1.532   .     S
C788   C796    1.534   .     S
C788   N831    1.390   .     A
C788   C965    1.440   .     S
C789   C790    1.537   .     S
C789   H829    1.100   .     S
C789   H830    1.101   .     S
C790   H826    1.108   .     S
C790   H828    1.111   .     S
C790   H827    1.104   .     S
C791   H811    1.080   .     S
C791   C793    1.534   .     S
C791   H812    1.107   .     S
C792   O835    1.317   .     A
C792   O834    1.316   .     A
C793   H808    1.111   .     S
C793   H809    1.110   .     S
C793   H810    1.111   .     S
C794   H817    1.101   .     S
C794   H816    1.100   .     S
C794   C795    1.537   .     S
C795   H814    1.104   .     S
C795   H815    1.111   .     S
C795   H813    1.108   .     S
C796   H823    1.107   .     S
C796   H822    1.079   .     S
C796   C797    1.534   .     S
C797   H821    1.111   .     S
C797   H819    1.111   .     S
C797   H820    1.110   .     S
C798   O837    1.310   .     A
C798   C800    1.399   .     S
C798   O840    1.310   .     A
C799   C801    1.399   .     S
C799   O838    1.310   .     A
C799   O839    1.310   .     A
C801   C1340   1.184   .     S
C802   H807    1.081   .     S
C803   H818    1.079   .     S
C803   C842    1.380   .     S
C804   H824    1.081   .     S
C804   C862    1.384   .     S
Cu805  N831    2.074   .     S
Cu805  O837    1.913   .     S
Cu805  O833    1.965   .     S
Cu805  O839    1.913   .     S
Cu805  Cu806   2.759   .     S
Cu805  O835    1.965   .     S
Cu806  N832    2.074   .     S
Cu806  O838    1.913   .     S
Cu806  O834    1.965   .     S
Cu806  O840    1.913   .     S
Cu806  O836    1.965   .     S
C841   C844    1.454   .     S
C841   O896    1.316   .     A
C841   O893    1.317   .     A
C842   C844    1.400   .     A
C842   H885    1.079   .     S
C843   C863    1.400   .     A
C843   C864    1.402   .     A
C843   C852    1.454   .     S
C844   C862    1.402   .     A
C845   C849    1.532   .     S
C845   N892    1.395   .     A
C846   N891    1.390   .     A
C846   C851    1.534   .     S
C846   C1027   1.440   .     S
C847   N892    1.395   .     A
C847   C854    1.532   .     S
C848   C856    1.534   .     S
C848   N891    1.390   .     A
C848   C1025   1.440   .     S
C849   C850    1.537   .     S
C849   H889    1.100   .     S
C849   H890    1.101   .     S
C850   H886    1.108   .     S
C850   H888    1.111   .     S
C850   H887    1.104   .     S
C851   H871    1.080   .     S
C851   C853    1.534   .     S
C851   H872    1.107   .     S
C852   O895    1.317   .     A
C852   O894    1.316   .     A
C853   H868    1.111   .     S
C853   H869    1.110   .     S
C853   H870    1.111   .     S
C854   H877    1.101   .     S
C854   H876    1.100   .     S
C854   C855    1.537   .     S
C855   H874    1.104   .     S
C855   H875    1.111   .     S
C855   H873    1.108   .     S
C856   H883    1.107   .     S
C856   H882    1.079   .     S
C856   C857    1.534   .     S
C857   H881    1.111   .     S
C857   H879    1.111   .     S
C857   H880    1.110   .     S
C858   O897    1.310   .     A
C858   C860    1.399   .     S
C858   O900    1.310   .     A
C859   C861    1.399   .     S
C859   O898    1.310   .     A
C859   O899    1.310   .     A
C861   C1400   1.184   .     S
C862   H867    1.081   .     S
C863   H878    1.079   .     S
C863   C722    1.380   1_655 S
C864   H884    1.081   .     S
C864   C742    1.384   1_655 S
Cu865  N891    2.074   .     S
Cu865  O897    1.913   .     S
Cu865  O893    1.965   .     S
Cu865  O899    1.913   .     S
Cu865  Cu866   2.759   .     S
Cu865  O895    1.965   .     S
Cu866  N892    2.074   .     S
Cu866  O898    1.913   .     S
Cu866  O894    1.965   .     S
Cu866  O900    1.913   .     S
Cu866  O896    1.965   .     S
C901   C904    1.454   .     S
C901   O956    1.316   .     A
C901   O953    1.317   .     A
C902   C904    1.400   .     A
C902   H945    1.079   .     S
C902   C1043   1.380   1_455 S
C903   C923    1.400   .     A
C903   C924    1.402   .     A
C903   C912    1.454   .     S
C904   C922    1.402   .     A
C905   C909    1.532   .     S
C905   N952    1.395   .     A
C906   N951    1.390   .     A
C906   C911    1.534   .     S
C906   C547    1.440   1_565 S
C907   N952    1.395   .     A
C907   C914    1.532   .     S
C908   C916    1.534   .     S
C908   N951    1.390   .     A
C908   C545    1.440   1_565 S
C909   C910    1.537   .     S
C909   H949    1.100   .     S
C909   H950    1.101   .     S
C910   H946    1.108   .     S
C910   H948    1.111   .     S
C910   H947    1.104   .     S
C911   H931    1.080   .     S
C911   C913    1.534   .     S
C911   H932    1.107   .     S
C912   O955    1.317   .     A
C912   O954    1.316   .     A
C913   H928    1.111   .     S
C913   H929    1.110   .     S
C913   H930    1.111   .     S
C914   H937    1.101   .     S
C914   H936    1.100   .     S
C914   C915    1.537   .     S
C915   H934    1.104   .     S
C915   H935    1.111   .     S
C915   H933    1.108   .     S
C916   H943    1.107   .     S
C916   H942    1.079   .     S
C916   C917    1.534   .     S
C917   H941    1.111   .     S
C917   H939    1.111   .     S
C917   H940    1.110   .     S
C918   O957    1.310   .     A
C918   C920    1.399   .     S
C918   O960    1.310   .     A
C919   C921    1.399   .     S
C919   O958    1.310   .     A
C919   O959    1.310   .     A
C921   C1460   1.184   .     S
C922   H927    1.081   .     S
C922   C1044   1.384   1_455 S
C923   H938    1.079   .     S
C923   C962    1.380   .     S
C924   H944    1.081   .     S
C924   C982    1.384   .     S
Cu925  N951    2.074   .     S
Cu925  O957    1.913   .     S
Cu925  O953    1.965   .     S
Cu925  O959    1.913   .     S
Cu925  Cu926   2.759   .     S
Cu925  O955    1.965   .     S
Cu926  N952    2.074   .     S
Cu926  O958    1.913   .     S
Cu926  O954    1.965   .     S
Cu926  O960    1.913   .     S
Cu926  O956    1.965   .     S
C961   C964    1.454   .     S
C961   O1016   1.316   .     A
C961   O1013   1.317   .     A
C962   C964    1.400   .     A
C962   H1005   1.079   .     S
C963   C983    1.400   .     A
C963   C984    1.402   .     A
C963   C972    1.454   .     S
C964   C982    1.402   .     A
C965   C969    1.532   .     S
C965   N1012   1.395   .     A
C966   N1011   1.390   .     A
C966   C971    1.534   .     S
C966   C607    1.440   1_565 S
C967   N1012   1.395   .     A
C967   C974    1.532   .     S
C968   C976    1.534   .     S
C968   N1011   1.390   .     A
C968   C605    1.440   1_565 S
C969   C970    1.537   .     S
C969   H1009   1.100   .     S
C969   H1010   1.101   .     S
C970   H1006   1.108   .     S
C970   H1008   1.111   .     S
C970   H1007   1.104   .     S
C971   H991    1.080   .     S
C971   C973    1.534   .     S
C971   H992    1.107   .     S
C972   O1015   1.317   .     A
C972   O1014   1.316   .     A
C973   H988    1.111   .     S
C973   H989    1.110   .     S
C973   H990    1.111   .     S
C974   H997    1.101   .     S
C974   H996    1.100   .     S
C974   C975    1.537   .     S
C975   H994    1.104   .     S
C975   H995    1.111   .     S
C975   H993    1.108   .     S
C976   H1003   1.107   .     S
C976   H1002   1.079   .     S
C976   C977    1.534   .     S
C977   H1001   1.111   .     S
C977   H999    1.111   .     S
C977   H1000   1.110   .     S
C978   O1017   1.310   .     A
C978   C980    1.399   .     S
C978   O1020   1.310   .     A
C979   C981    1.399   .     S
C979   O1018   1.310   .     A
C979   O1019   1.310   .     A
C981   C1520   1.184   .     S
C982   H987    1.081   .     S
C983   H998    1.079   .     S
C983   C1022   1.380   .     S
C984   H1004   1.081   .     S
C984   C1042   1.384   .     S
Cu985  N1011   2.074   .     S
Cu985  O1017   1.913   .     S
Cu985  O1013   1.965   .     S
Cu985  O1019   1.913   .     S
Cu985  Cu986   2.759   .     S
Cu985  O1015   1.965   .     S
Cu986  N1012   2.074   .     S
Cu986  O1018   1.913   .     S
Cu986  O1014   1.965   .     S
Cu986  O1020   1.913   .     S
Cu986  O1016   1.965   .     S
C1021  C1024   1.454   .     S
C1021  O1076   1.316   .     A
C1021  O1073   1.317   .     A
C1022  C1024   1.400   .     A
C1022  H1065   1.079   .     S
C1023  C1043   1.400   .     A
C1023  C1044   1.402   .     A
C1023  C1032   1.454   .     S
C1024  C1042   1.402   .     A
C1025  C1029   1.532   .     S
C1025  N1072   1.395   .     A
C1026  N1071   1.390   .     A
C1026  C1031   1.534   .     S
C1026  C667    1.440   1_565 S
C1027  N1072   1.395   .     A
C1027  C1034   1.532   .     S
C1028  C1036   1.534   .     S
C1028  N1071   1.390   .     A
C1028  C665    1.440   1_565 S
C1029  C1030   1.537   .     S
C1029  H1069   1.100   .     S
C1029  H1070   1.101   .     S
C1030  H1066   1.108   .     S
C1030  H1068   1.111   .     S
C1030  H1067   1.104   .     S
C1031  H1051   1.080   .     S
C1031  C1033   1.534   .     S
C1031  H1052   1.107   .     S
C1032  O1075   1.317   .     A
C1032  O1074   1.316   .     A
C1033  H1048   1.111   .     S
C1033  H1049   1.110   .     S
C1033  H1050   1.111   .     S
C1034  H1057   1.101   .     S
C1034  H1056   1.100   .     S
C1034  C1035   1.537   .     S
C1035  H1054   1.104   .     S
C1035  H1055   1.111   .     S
C1035  H1053   1.108   .     S
C1036  H1063   1.107   .     S
C1036  H1062   1.079   .     S
C1036  C1037   1.534   .     S
C1037  H1061   1.111   .     S
C1037  H1059   1.111   .     S
C1037  H1060   1.110   .     S
C1038  O1077   1.310   .     A
C1038  C1040   1.399   .     S
C1038  O1080   1.310   .     A
C1039  C1041   1.399   .     S
C1039  O1078   1.310   .     A
C1039  O1079   1.310   .     A
C1041  C1580   1.184   .     S
C1042  H1047   1.081   .     S
C1043  H1058   1.079   .     S
C1043  C902    1.380   1_655 S
C1044  H1064   1.081   .     S
C1044  C922    1.384   1_655 S
Cu1045 N1071   2.074   .     S
Cu1045 O1077   1.913   .     S
Cu1045 O1073   1.965   .     S
Cu1045 O1079   1.913   .     S
Cu1045 Cu1046  2.759   .     S
Cu1045 O1075   1.965   .     S
Cu1046 N1072   2.074   .     S
Cu1046 O1078   1.913   .     S
Cu1046 O1074   1.965   .     S
Cu1046 O1080   1.913   .     S
Cu1046 O1076   1.965   .     S
C1081  C1084   1.454   .     S
C1081  O1136   1.316   .     A
C1081  O1133   1.317   .     A
C1082  C1084   1.400   .     A
C1082  H1125   1.079   .     S
C1082  C1223   1.380   1_455 S
C1083  C1103   1.400   .     A
C1083  C1104   1.402   .     A
C1083  C1092   1.454   .     S
C1084  C1102   1.402   .     A
C1085  C1089   1.532   .     S
C1085  N1132   1.395   .     A
C1085  C1448   1.440   1_545 S
C1086  N1131   1.390   .     A
C1086  C1091   1.534   .     S
C1086  C1267   1.440   .     S
C1087  N1132   1.395   .     A
C1087  C1094   1.532   .     S
C1087  C1446   1.440   1_545 S
C1088  C1096   1.534   .     S
C1088  N1131   1.390   .     A
C1088  C1265   1.440   .     S
C1089  C1090   1.537   .     S
C1089  H1129   1.100   .     S
C1089  H1130   1.101   .     S
C1090  H1126   1.108   .     S
C1090  H1128   1.111   .     S
C1090  H1127   1.104   .     S
C1091  H1111   1.080   .     S
C1091  C1093   1.534   .     S
C1091  H1112   1.107   .     S
C1092  O1135   1.317   .     A
C1092  O1134   1.316   .     A
C1093  H1108   1.111   .     S
C1093  H1109   1.110   .     S
C1093  H1110   1.111   .     S
C1094  H1117   1.101   .     S
C1094  H1116   1.100   .     S
C1094  C1095   1.537   .     S
C1095  H1114   1.104   .     S
C1095  H1115   1.111   .     S
C1095  H1113   1.108   .     S
C1096  H1123   1.107   .     S
C1096  H1122   1.079   .     S
C1096  C1097   1.534   .     S
C1097  H1121   1.111   .     S
C1097  H1119   1.111   .     S
C1097  H1120   1.110   .     S
C1098  O1137   1.310   .     A
C1098  C1100   1.399   .     S
C1098  O1140   1.310   .     A
C1099  C1101   1.399   .     S
C1099  O1138   1.310   .     A
C1099  O1139   1.310   .     A
C1101  C20     1.184   1_556 S
C1102  H1107   1.081   .     S
C1102  C1224   1.384   1_455 S
C1103  H1118   1.079   .     S
C1103  C1142   1.380   .     S
C1104  H1124   1.081   .     S
C1104  C1162   1.384   .     S
Cu1105 N1131   2.074   .     S
Cu1105 O1137   1.913   .     S
Cu1105 O1133   1.965   .     S
Cu1105 O1139   1.913   .     S
Cu1105 Cu1106  2.759   .     S
Cu1105 O1135   1.965   .     S
Cu1106 N1132   2.074   .     S
Cu1106 O1138   1.913   .     S
Cu1106 O1134   1.965   .     S
Cu1106 O1140   1.913   .     S
Cu1106 O1136   1.965   .     S
C1141  C1144   1.454   .     S
C1141  O1196   1.316   .     A
C1141  O1193   1.317   .     A
C1142  C1144   1.400   .     A
C1142  H1185   1.079   .     S
C1143  C1163   1.400   .     A
C1143  C1164   1.402   .     A
C1143  C1152   1.454   .     S
C1144  C1162   1.402   .     A
C1145  C1149   1.532   .     S
C1145  N1192   1.395   .     A
C1145  C1508   1.440   1_545 S
C1146  N1191   1.390   .     A
C1146  C1151   1.534   .     S
C1146  C1327   1.440   .     S
C1147  N1192   1.395   .     A
C1147  C1154   1.532   .     S
C1147  C1506   1.440   1_545 S
C1148  C1156   1.534   .     S
C1148  N1191   1.390   .     A
C1148  C1325   1.440   .     S
C1149  C1150   1.537   .     S
C1149  H1189   1.100   .     S
C1149  H1190   1.101   .     S
C1150  H1186   1.108   .     S
C1150  H1188   1.111   .     S
C1150  H1187   1.104   .     S
C1151  H1171   1.080   .     S
C1151  C1153   1.534   .     S
C1151  H1172   1.107   .     S
C1152  O1195   1.317   .     A
C1152  O1194   1.316   .     A
C1153  H1168   1.111   .     S
C1153  H1169   1.110   .     S
C1153  H1170   1.111   .     S
C1154  H1177   1.101   .     S
C1154  H1176   1.100   .     S
C1154  C1155   1.537   .     S
C1155  H1174   1.104   .     S
C1155  H1175   1.111   .     S
C1155  H1173   1.108   .     S
C1156  H1183   1.107   .     S
C1156  H1182   1.079   .     S
C1156  C1157   1.534   .     S
C1157  H1181   1.111   .     S
C1157  H1179   1.111   .     S
C1157  H1180   1.110   .     S
C1158  O1197   1.310   .     A
C1158  C1160   1.399   .     S
C1158  O1200   1.310   .     A
C1159  C1161   1.399   .     S
C1159  O1198   1.310   .     A
C1159  O1199   1.310   .     A
C1161  C80     1.184   1_556 S
C1162  H1167   1.081   .     S
C1163  H1178   1.079   .     S
C1163  C1202   1.380   .     S
C1164  H1184   1.081   .     S
C1164  C1222   1.384   .     S
Cu1165 N1191   2.074   .     S
Cu1165 O1197   1.913   .     S
Cu1165 O1193   1.965   .     S
Cu1165 O1199   1.913   .     S
Cu1165 Cu1166  2.759   .     S
Cu1165 O1195   1.965   .     S
Cu1166 N1192   2.074   .     S
Cu1166 O1198   1.913   .     S
Cu1166 O1194   1.965   .     S
Cu1166 O1200   1.913   .     S
Cu1166 O1196   1.965   .     S
C1201  C1204   1.454   .     S
C1201  O1256   1.316   .     A
C1201  O1253   1.317   .     A
C1202  C1204   1.400   .     A
C1202  H1245   1.079   .     S
C1203  C1223   1.400   .     A
C1203  C1224   1.402   .     A
C1203  C1212   1.454   .     S
C1204  C1222   1.402   .     A
C1205  C1209   1.532   .     S
C1205  N1252   1.395   .     A
C1205  C1568   1.440   1_545 S
C1206  N1251   1.390   .     A
C1206  C1211   1.534   .     S
C1206  C1387   1.440   .     S
C1207  N1252   1.395   .     A
C1207  C1214   1.532   .     S
C1207  C1566   1.440   1_545 S
C1208  C1216   1.534   .     S
C1208  N1251   1.390   .     A
C1208  C1385   1.440   .     S
C1209  C1210   1.537   .     S
C1209  H1249   1.100   .     S
C1209  H1250   1.101   .     S
C1210  H1246   1.108   .     S
C1210  H1248   1.111   .     S
C1210  H1247   1.104   .     S
C1211  H1231   1.080   .     S
C1211  C1213   1.534   .     S
C1211  H1232   1.107   .     S
C1212  O1255   1.317   .     A
C1212  O1254   1.316   .     A
C1213  H1228   1.111   .     S
C1213  H1229   1.110   .     S
C1213  H1230   1.111   .     S
C1214  H1237   1.101   .     S
C1214  H1236   1.100   .     S
C1214  C1215   1.537   .     S
C1215  H1234   1.104   .     S
C1215  H1235   1.111   .     S
C1215  H1233   1.108   .     S
C1216  H1243   1.107   .     S
C1216  H1242   1.079   .     S
C1216  C1217   1.534   .     S
C1217  H1241   1.111   .     S
C1217  H1239   1.111   .     S
C1217  H1240   1.110   .     S
C1218  O1257   1.310   .     A
C1218  C1220   1.399   .     S
C1218  O1260   1.310   .     A
C1219  C1221   1.399   .     S
C1219  O1258   1.310   .     A
C1219  O1259   1.310   .     A
C1221  C140    1.184   1_556 S
C1222  H1227   1.081   .     S
C1223  H1238   1.079   .     S
C1223  C1082   1.380   1_655 S
C1224  H1244   1.081   .     S
C1224  C1102   1.384   1_655 S
Cu1225 N1251   2.074   .     S
Cu1225 O1257   1.913   .     S
Cu1225 O1253   1.965   .     S
Cu1225 O1259   1.913   .     S
Cu1225 Cu1226  2.759   .     S
Cu1225 O1255   1.965   .     S
Cu1226 N1252   2.074   .     S
Cu1226 O1258   1.913   .     S
Cu1226 O1254   1.965   .     S
Cu1226 O1260   1.913   .     S
Cu1226 O1256   1.965   .     S
C1261  C1264   1.454   .     S
C1261  O1316   1.316   .     A
C1261  O1313   1.317   .     A
C1262  C1264   1.400   .     A
C1262  H1305   1.079   .     S
C1262  C1403   1.380   1_455 S
C1263  C1283   1.400   .     A
C1263  C1284   1.402   .     A
C1263  C1272   1.454   .     S
C1264  C1282   1.402   .     A
C1265  C1269   1.532   .     S
C1265  N1312   1.395   .     A
C1266  N1311   1.390   .     A
C1266  C1271   1.534   .     S
C1266  C1447   1.440   .     S
C1267  N1312   1.395   .     A
C1267  C1274   1.532   .     S
C1268  C1276   1.534   .     S
C1268  N1311   1.390   .     A
C1268  C1445   1.440   .     S
C1269  C1270   1.537   .     S
C1269  H1309   1.100   .     S
C1269  H1310   1.101   .     S
C1270  H1306   1.108   .     S
C1270  H1308   1.111   .     S
C1270  H1307   1.104   .     S
C1271  H1291   1.080   .     S
C1271  C1273   1.534   .     S
C1271  H1292   1.107   .     S
C1272  O1315   1.317   .     A
C1272  O1314   1.316   .     A
C1273  H1288   1.111   .     S
C1273  H1289   1.110   .     S
C1273  H1290   1.111   .     S
C1274  H1297   1.101   .     S
C1274  H1296   1.100   .     S
C1274  C1275   1.537   .     S
C1275  H1294   1.104   .     S
C1275  H1295   1.111   .     S
C1275  H1293   1.108   .     S
C1276  H1303   1.107   .     S
C1276  H1302   1.079   .     S
C1276  C1277   1.534   .     S
C1277  H1301   1.111   .     S
C1277  H1299   1.111   .     S
C1277  H1300   1.110   .     S
C1278  O1317   1.310   .     A
C1278  C1280   1.399   .     S
C1278  O1320   1.310   .     A
C1279  C1281   1.399   .     S
C1279  O1318   1.310   .     A
C1279  O1319   1.310   .     A
C1281  C200    1.184   1_556 S
C1282  H1287   1.081   .     S
C1282  C1404   1.384   1_455 S
C1283  H1298   1.079   .     S
C1283  C1322   1.380   .     S
C1284  H1304   1.081   .     S
C1284  C1342   1.384   .     S
Cu1285 N1311   2.074   .     S
Cu1285 O1317   1.913   .     S
Cu1285 O1313   1.965   .     S
Cu1285 O1319   1.913   .     S
Cu1285 Cu1286  2.759   .     S
Cu1285 O1315   1.965   .     S
Cu1286 N1312   2.074   .     S
Cu1286 O1318   1.913   .     S
Cu1286 O1314   1.965   .     S
Cu1286 O1320   1.913   .     S
Cu1286 O1316   1.965   .     S
C1321  C1324   1.454   .     S
C1321  O1376   1.316   .     A
C1321  O1373   1.317   .     A
C1322  C1324   1.400   .     A
C1322  H1365   1.079   .     S
C1323  C1343   1.400   .     A
C1323  C1344   1.402   .     A
C1323  C1332   1.454   .     S
C1324  C1342   1.402   .     A
C1325  C1329   1.532   .     S
C1325  N1372   1.395   .     A
C1326  N1371   1.390   .     A
C1326  C1331   1.534   .     S
C1326  C1507   1.440   .     S
C1327  N1372   1.395   .     A
C1327  C1334   1.532   .     S
C1328  C1336   1.534   .     S
C1328  N1371   1.390   .     A
C1328  C1505   1.440   .     S
C1329  C1330   1.537   .     S
C1329  H1369   1.100   .     S
C1329  H1370   1.101   .     S
C1330  H1366   1.108   .     S
C1330  H1368   1.111   .     S
C1330  H1367   1.104   .     S
C1331  H1351   1.080   .     S
C1331  C1333   1.534   .     S
C1331  H1352   1.107   .     S
C1332  O1375   1.317   .     A
C1332  O1374   1.316   .     A
C1333  H1348   1.111   .     S
C1333  H1349   1.110   .     S
C1333  H1350   1.111   .     S
C1334  H1357   1.101   .     S
C1334  H1356   1.100   .     S
C1334  C1335   1.537   .     S
C1335  H1354   1.104   .     S
C1335  H1355   1.111   .     S
C1335  H1353   1.108   .     S
C1336  H1363   1.107   .     S
C1336  H1362   1.079   .     S
C1336  C1337   1.534   .     S
C1337  H1361   1.111   .     S
C1337  H1359   1.111   .     S
C1337  H1360   1.110   .     S
C1338  O1377   1.310   .     A
C1338  C1340   1.399   .     S
C1338  O1380   1.310   .     A
C1339  C1341   1.399   .     S
C1339  O1378   1.310   .     A
C1339  O1379   1.310   .     A
C1341  C260    1.184   1_556 S
C1342  H1347   1.081   .     S
C1343  H1358   1.079   .     S
C1343  C1382   1.380   .     S
C1344  H1364   1.081   .     S
C1344  C1402   1.384   .     S
Cu1345 N1371   2.074   .     S
Cu1345 O1377   1.913   .     S
Cu1345 O1373   1.965   .     S
Cu1345 O1379   1.913   .     S
Cu1345 Cu1346  2.759   .     S
Cu1345 O1375   1.965   .     S
Cu1346 N1372   2.074   .     S
Cu1346 O1378   1.913   .     S
Cu1346 O1374   1.965   .     S
Cu1346 O1380   1.913   .     S
Cu1346 O1376   1.965   .     S
C1381  C1384   1.454   .     S
C1381  O1436   1.316   .     A
C1381  O1433   1.317   .     A
C1382  C1384   1.400   .     A
C1382  H1425   1.079   .     S
C1383  C1403   1.400   .     A
C1383  C1404   1.402   .     A
C1383  C1392   1.454   .     S
C1384  C1402   1.402   .     A
C1385  C1389   1.532   .     S
C1385  N1432   1.395   .     A
C1386  N1431   1.390   .     A
C1386  C1391   1.534   .     S
C1386  C1567   1.440   .     S
C1387  N1432   1.395   .     A
C1387  C1394   1.532   .     S
C1388  C1396   1.534   .     S
C1388  N1431   1.390   .     A
C1388  C1565   1.440   .     S
C1389  C1390   1.537   .     S
C1389  H1429   1.100   .     S
C1389  H1430   1.101   .     S
C1390  H1426   1.108   .     S
C1390  H1428   1.111   .     S
C1390  H1427   1.104   .     S
C1391  H1411   1.080   .     S
C1391  C1393   1.534   .     S
C1391  H1412   1.107   .     S
C1392  O1435   1.317   .     A
C1392  O1434   1.316   .     A
C1393  H1408   1.111   .     S
C1393  H1409   1.110   .     S
C1393  H1410   1.111   .     S
C1394  H1417   1.101   .     S
C1394  H1416   1.100   .     S
C1394  C1395   1.537   .     S
C1395  H1414   1.104   .     S
C1395  H1415   1.111   .     S
C1395  H1413   1.108   .     S
C1396  H1423   1.107   .     S
C1396  H1422   1.079   .     S
C1396  C1397   1.534   .     S
C1397  H1421   1.111   .     S
C1397  H1419   1.111   .     S
C1397  H1420   1.110   .     S
C1398  O1437   1.310   .     A
C1398  C1400   1.399   .     S
C1398  O1440   1.310   .     A
C1399  C1401   1.399   .     S
C1399  O1438   1.310   .     A
C1399  O1439   1.310   .     A
C1401  C320    1.184   1_556 S
C1402  H1407   1.081   .     S
C1403  H1418   1.079   .     S
C1403  C1262   1.380   1_655 S
C1404  H1424   1.081   .     S
C1404  C1282   1.384   1_655 S
Cu1405 N1431   2.074   .     S
Cu1405 O1437   1.913   .     S
Cu1405 O1433   1.965   .     S
Cu1405 O1439   1.913   .     S
Cu1405 Cu1406  2.759   .     S
Cu1405 O1435   1.965   .     S
Cu1406 N1432   2.074   .     S
Cu1406 O1438   1.913   .     S
Cu1406 O1434   1.965   .     S
Cu1406 O1440   1.913   .     S
Cu1406 O1436   1.965   .     S
C1441  C1444   1.454   .     S
C1441  O1496   1.316   .     A
C1441  O1493   1.317   .     A
C1442  C1444   1.400   .     A
C1442  H1485   1.079   .     S
C1442  C1583   1.380   1_455 S
C1443  C1463   1.400   .     A
C1443  C1464   1.402   .     A
C1443  C1452   1.454   .     S
C1444  C1462   1.402   .     A
C1445  C1449   1.532   .     S
C1445  N1492   1.395   .     A
C1446  N1491   1.390   .     A
C1446  C1451   1.534   .     S
C1446  C1087   1.440   1_565 S
C1447  N1492   1.395   .     A
C1447  C1454   1.532   .     S
C1448  C1456   1.534   .     S
C1448  N1491   1.390   .     A
C1448  C1085   1.440   1_565 S
C1449  C1450   1.537   .     S
C1449  H1489   1.100   .     S
C1449  H1490   1.101   .     S
C1450  H1486   1.108   .     S
C1450  H1488   1.111   .     S
C1450  H1487   1.104   .     S
C1451  H1471   1.080   .     S
C1451  C1453   1.534   .     S
C1451  H1472   1.107   .     S
C1452  O1495   1.317   .     A
C1452  O1494   1.316   .     A
C1453  H1468   1.111   .     S
C1453  H1469   1.110   .     S
C1453  H1470   1.111   .     S
C1454  H1477   1.101   .     S
C1454  H1476   1.100   .     S
C1454  C1455   1.537   .     S
C1455  H1474   1.104   .     S
C1455  H1475   1.111   .     S
C1455  H1473   1.108   .     S
C1456  H1483   1.107   .     S
C1456  H1482   1.079   .     S
C1456  C1457   1.534   .     S
C1457  H1481   1.111   .     S
C1457  H1479   1.111   .     S
C1457  H1480   1.110   .     S
C1458  O1497   1.310   .     A
C1458  C1460   1.399   .     S
C1458  O1500   1.310   .     A
C1459  C1461   1.399   .     S
C1459  O1498   1.310   .     A
C1459  O1499   1.310   .     A
C1461  C380    1.184   1_556 S
C1462  H1467   1.081   .     S
C1462  C1584   1.384   1_455 S
C1463  H1478   1.079   .     S
C1463  C1502   1.380   .     S
C1464  H1484   1.081   .     S
C1464  C1522   1.384   .     S
Cu1465 N1491   2.074   .     S
Cu1465 O1497   1.913   .     S
Cu1465 O1493   1.965   .     S
Cu1465 O1499   1.913   .     S
Cu1465 Cu1466  2.759   .     S
Cu1465 O1495   1.965   .     S
Cu1466 N1492   2.074   .     S
Cu1466 O1498   1.913   .     S
Cu1466 O1494   1.965   .     S
Cu1466 O1500   1.913   .     S
Cu1466 O1496   1.965   .     S
C1501  C1504   1.454   .     S
C1501  O1556   1.316   .     A
C1501  O1553   1.317   .     A
C1502  C1504   1.400   .     A
C1502  H1545   1.079   .     S
C1503  C1523   1.400   .     A
C1503  C1524   1.402   .     A
C1503  C1512   1.454   .     S
C1504  C1522   1.402   .     A
C1505  C1509   1.532   .     S
C1505  N1552   1.395   .     A
C1506  N1551   1.390   .     A
C1506  C1511   1.534   .     S
C1506  C1147   1.440   1_565 S
C1507  N1552   1.395   .     A
C1507  C1514   1.532   .     S
C1508  C1516   1.534   .     S
C1508  N1551   1.390   .     A
C1508  C1145   1.440   1_565 S
C1509  C1510   1.537   .     S
C1509  H1549   1.100   .     S
C1509  H1550   1.101   .     S
C1510  H1546   1.108   .     S
C1510  H1548   1.111   .     S
C1510  H1547   1.104   .     S
C1511  H1531   1.080   .     S
C1511  C1513   1.534   .     S
C1511  H1532   1.107   .     S
C1512  O1555   1.317   .     A
C1512  O1554   1.316   .     A
C1513  H1528   1.111   .     S
C1513  H1529   1.110   .     S
C1513  H1530   1.111   .     S
C1514  H1537   1.101   .     S
C1514  H1536   1.100   .     S
C1514  C1515   1.537   .     S
C1515  H1534   1.104   .     S
C1515  H1535   1.111   .     S
C1515  H1533   1.108   .     S
C1516  H1543   1.107   .     S
C1516  H1542   1.079   .     S
C1516  C1517   1.534   .     S
C1517  H1541   1.111   .     S
C1517  H1539   1.111   .     S
C1517  H1540   1.110   .     S
C1518  O1557   1.310   .     A
C1518  C1520   1.399   .     S
C1518  O1560   1.310   .     A
C1519  C1521   1.399   .     S
C1519  O1558   1.310   .     A
C1519  O1559   1.310   .     A
C1521  C440    1.184   1_556 S
C1522  H1527   1.081   .     S
C1523  H1538   1.079   .     S
C1523  C1562   1.380   .     S
C1524  H1544   1.081   .     S
C1524  C1582   1.384   .     S
Cu1525 N1551   2.074   .     S
Cu1525 O1557   1.913   .     S
Cu1525 O1553   1.965   .     S
Cu1525 O1559   1.913   .     S
Cu1525 Cu1526  2.759   .     S
Cu1525 O1555   1.965   .     S
Cu1526 N1552   2.074   .     S
Cu1526 O1558   1.913   .     S
Cu1526 O1554   1.965   .     S
Cu1526 O1560   1.913   .     S
Cu1526 O1556   1.965   .     S
C1561  C1564   1.454   .     S
C1561  O1616   1.316   .     A
C1561  O1613   1.317   .     A
C1562  C1564   1.400   .     A
C1562  H1605   1.079   .     S
C1563  C1583   1.400   .     A
C1563  C1584   1.402   .     A
C1563  C1572   1.454   .     S
C1564  C1582   1.402   .     A
C1565  C1569   1.532   .     S
C1565  N1612   1.395   .     A
C1566  N1611   1.390   .     A
C1566  C1571   1.534   .     S
C1566  C1207   1.440   1_565 S
C1567  N1612   1.395   .     A
C1567  C1574   1.532   .     S
C1568  C1576   1.534   .     S
C1568  N1611   1.390   .     A
C1568  C1205   1.440   1_565 S
C1569  C1570   1.537   .     S
C1569  H1609   1.100   .     S
C1569  H1610   1.101   .     S
C1570  H1606   1.108   .     S
C1570  H1608   1.111   .     S
C1570  H1607   1.104   .     S
C1571  H1591   1.080   .     S
C1571  C1573   1.534   .     S
C1571  H1592   1.107   .     S
C1572  O1615   1.317   .     A
C1572  O1614   1.316   .     A
C1573  H1588   1.111   .     S
C1573  H1589   1.110   .     S
C1573  H1590   1.111   .     S
C1574  H1597   1.101   .     S
C1574  H1596   1.100   .     S
C1574  C1575   1.537   .     S
C1575  H1594   1.104   .     S
C1575  H1595   1.111   .     S
C1575  H1593   1.108   .     S
C1576  H1603   1.107   .     S
C1576  H1602   1.079   .     S
C1576  C1577   1.534   .     S
C1577  H1601   1.111   .     S
C1577  H1599   1.111   .     S
C1577  H1600   1.110   .     S
C1578  O1617   1.310   .     A
C1578  C1580   1.399   .     S
C1578  O1620   1.310   .     A
C1579  C1581   1.399   .     S
C1579  O1618   1.310   .     A
C1579  O1619   1.310   .     A
C1581  C500    1.184   1_556 S
C1582  H1587   1.081   .     S
C1583  H1598   1.079   .     S
C1583  C1442   1.380   1_655 S
C1584  H1604   1.081   .     S
C1584  C1462   1.384   1_655 S
Cu1585 N1611   2.074   .     S
Cu1585 O1617   1.913   .     S
Cu1585 O1613   1.965   .     S
Cu1585 O1619   1.913   .     S
Cu1585 Cu1586  2.759   .     S
Cu1585 O1615   1.965   .     S
Cu1586 N1612   2.074   .     S
Cu1586 O1618   1.913   .     S
Cu1586 O1614   1.965   .     S
Cu1586 O1620   1.913   .     S
Cu1586 O1616   1.965   .     S
