data_str_m2_o1_o10_pcu_sym.10
_audit_creation_date              2020-01-03
_audit_creation_method            'Materials Studio'
_symmetry_space_group_name_H-M    'P1'
_symmetry_Int_Tables_number       1
_symmetry_cell_setting            triclinic
loop_
_symmetry_equiv_pos_as_xyz
  x,y,z
_cell_length_a                    26.6225
_cell_length_b                    32.6381
_cell_length_c                    28.9974
_cell_angle_alpha                 91.6671
_cell_angle_beta                  99.4322
_cell_angle_gamma                 101.5101
loop_
_atom_site_label
_atom_site_type_symbol
_atom_site_fract_x
_atom_site_fract_y
_atom_site_fract_z
_atom_site_U_iso_or_equiv
_atom_site_adp_type
_atom_site_occupancy
C1     C     0.17078   0.08810   0.16648   0.00000  Uiso   1.00
C2     C     0.18630   0.02499   0.20825   0.00000  Uiso   1.00
C3     C     0.15698   0.28959   0.16716   0.00000  Uiso   1.00
C4     C     0.17552   0.04375   0.16556   0.00000  Uiso   1.00
C5     C     0.12985   0.13748   0.01833   0.00000  Uiso   1.00
C6     C     0.20333   0.19593   0.31500   0.00000  Uiso   1.00
C7     C     0.13007   0.13732   0.30142   0.00000  Uiso   1.00
C8     C     0.20321   0.19599   0.03191   0.00000  Uiso   1.00
C9     C     0.31727   0.14719   0.10045   0.00000  Uiso   1.00
C10    C     0.01546   0.18419   0.23295   0.00000  Uiso   1.00
C11    C     0.17625   0.03671   0.07880   0.00000  Uiso   1.00
C12    C     0.16228   0.24523   0.16675   0.00000  Uiso   1.00
C13    C     0.15108   0.29785   0.25331   0.00000  Uiso   1.00
C14    C     0.11633   0.28275   0.08158   0.00000  Uiso   1.00
C15    C     0.22438   0.04966   0.24810   0.00000  Uiso   1.00
C16    C     0.06812   0.16703   0.15447   0.00000  Uiso   1.00
C17    C     0.26504   0.16585   0.17883   0.00000  Uiso   1.00
C18    C     0.01200   0.16295   0.14807   0.00000  Uiso   1.00
C19    C     0.32090   0.16890   0.18526   0.00000  Uiso   1.00
C20    C     0.16361   0.01870   0.12296   0.00000  Uiso   1.00
C21    C     0.16831   0.31488   0.20974   0.00000  Uiso   1.00
C22    C     0.14860   0.30834   0.12392   0.00000  Uiso   1.00
Cu23   Cu    0.16667   0.16667   0.21355   0.00000  Uiso   1.00
Cu24   Cu    0.16667   0.16666   0.11978   0.00000  Uiso   1.00
H25    H     0.32452   0.16561   0.07083   0.00000  Uiso   1.00
H26    H     0.28088   0.26833   0.13907   0.00000  Uiso   1.00
H27    H     0.01010   0.16466   0.26207   0.00000  Uiso   1.00
H28    H     0.15704   0.05988   0.06242   0.00000  Uiso   1.00
H29    H     0.13288   0.26544   0.25465   0.00000  Uiso   1.00
H30    H     0.09408   0.25169   0.08524   0.00000  Uiso   1.00
H31    H     0.23858   0.08302   0.24698   0.00000  Uiso   1.00
H32    H     0.03134   0.03878   0.01986   0.00000  Uiso   1.00
H33    H     0.24013   0.29146   0.30626   0.00000  Uiso   1.00
H34    H     0.05367   0.06454   0.19425   0.00000  Uiso   1.00
N35    N     0.16668   0.16668   0.28403   0.00000  Uiso   1.00
N36    N     0.16665   0.16666   0.04931   0.00000  Uiso   1.00
O37    O     0.16666   0.10655   0.20625   0.00000  Uiso   1.00
O38    O     0.04284   0.21927   0.23995   0.00000  Uiso   1.00
O39    O     0.20927   0.02519   0.05999   0.00000  Uiso   1.00
O40    O     0.15322   0.32060   0.28801   0.00000  Uiso   1.00
O41    O     0.11189   0.29629   0.04266   0.00000  Uiso   1.00
O42    O     0.24426   0.03262   0.28111   0.00000  Uiso   1.00
O43    O     0.07820   0.09580   0.08903   0.00000  Uiso   1.00
O44    O     0.02788   0.11871   0.02181   0.00000  Uiso   1.00
O45    O     0.06660   0.05260   0.01502   0.00000  Uiso   1.00
O46    O     0.30465   0.21244   0.31027   0.00000  Uiso   1.00
O47    O     0.25504   0.23767   0.24435   0.00000  Uiso   1.00
O48    O     0.16667   0.22678   0.12709   0.00000  Uiso   1.00
O49    O     0.27053   0.27988   0.31937   0.00000  Uiso   1.00
O50    O     0.10626   0.05561   0.27501   0.00000  Uiso   1.00
O51    O     0.03153   0.08881   0.27426   0.00000  Uiso   1.00
O52    O     0.07452   0.09293   0.20475   0.00000  Uiso   1.00
O53    O     0.30237   0.24257   0.05934   0.00000  Uiso   1.00
O54    O     0.22897   0.27766   0.05817   0.00000  Uiso   1.00
O55    O     0.25892   0.24030   0.12873   0.00000  Uiso   1.00
O56    O     0.16666   0.10654   0.12706   0.00000  Uiso   1.00
O57    O     0.16667   0.22679   0.20628   0.00000  Uiso   1.00
O58    O     0.09161   0.16667   0.19712   0.00000  Uiso   1.00
O59    O     0.24172   0.16666   0.13621   0.00000  Uiso   1.00
O60    O     0.09161   0.16666   0.11793   0.00000  Uiso   1.00
O61    O     0.24172   0.16667   0.21540   0.00000  Uiso   1.00
O62    O     0.28730   0.11314   0.09413   0.00000  Uiso   1.00
S63    S     0.07593   0.10196   0.03808   0.00000  Uiso   1.00
S64    S     0.25765   0.23079   0.29520   0.00000  Uiso   1.00
S65    S     0.08556   0.09429   0.26340   0.00000  Uiso   1.00
S66    S     0.24838   0.23848   0.07005   0.00000  Uiso   1.00
C67    C     0.50412   0.08810   0.16648   0.00000  Uiso   1.00
C68    C     0.51963   0.02499   0.20825   0.00000  Uiso   1.00
C69    C     0.49032   0.28959   0.16716   0.00000  Uiso   1.00
C70    C     0.50886   0.04375   0.16556   0.00000  Uiso   1.00
C71    C     0.46319   0.13748   0.01833   0.00000  Uiso   1.00
C72    C     0.53666   0.19593   0.31500   0.00000  Uiso   1.00
C73    C     0.46341   0.13732   0.30142   0.00000  Uiso   1.00
C74    C     0.53655   0.19599   0.03191   0.00000  Uiso   1.00
C75    C     0.65060   0.14719   0.10045   0.00000  Uiso   1.00
C76    C     0.34879   0.18419   0.23295   0.00000  Uiso   1.00
C77    C     0.50959   0.03671   0.07880   0.00000  Uiso   1.00
C78    C     0.49561   0.24523   0.16675   0.00000  Uiso   1.00
C79    C     0.48441   0.29785   0.25331   0.00000  Uiso   1.00
C80    C     0.44966   0.28275   0.08158   0.00000  Uiso   1.00
C81    C     0.55771   0.04966   0.24810   0.00000  Uiso   1.00
C82    C     0.40145   0.16703   0.15447   0.00000  Uiso   1.00
C83    C     0.59838   0.16585   0.17883   0.00000  Uiso   1.00
C84    C     0.34534   0.16295   0.14807   0.00000  Uiso   1.00
C85    C     0.65423   0.16890   0.18526   0.00000  Uiso   1.00
C86    C     0.49694   0.01870   0.12296   0.00000  Uiso   1.00
C87    C     0.50164   0.31488   0.20974   0.00000  Uiso   1.00
C88    C     0.48194   0.30834   0.12392   0.00000  Uiso   1.00
Cu89   Cu    0.50000   0.16667   0.21355   0.00000  Uiso   1.00
Cu90   Cu    0.50000   0.16666   0.11978   0.00000  Uiso   1.00
H91    H     0.65785   0.16561   0.07083   0.00000  Uiso   1.00
H92    H     0.61421   0.26833   0.13907   0.00000  Uiso   1.00
H93    H     0.34344   0.16466   0.26207   0.00000  Uiso   1.00
H94    H     0.49038   0.05988   0.06242   0.00000  Uiso   1.00
H95    H     0.46622   0.26544   0.25465   0.00000  Uiso   1.00
H96    H     0.42741   0.25169   0.08524   0.00000  Uiso   1.00
H97    H     0.57192   0.08302   0.24698   0.00000  Uiso   1.00
H98    H     0.36467   0.03878   0.01986   0.00000  Uiso   1.00
H99    H     0.57346   0.29146   0.30626   0.00000  Uiso   1.00
H100   H     0.38701   0.06454   0.19425   0.00000  Uiso   1.00
N101   N     0.50001   0.16668   0.28403   0.00000  Uiso   1.00
N102   N     0.49999   0.16666   0.04931   0.00000  Uiso   1.00
O103   O     0.50000   0.10655   0.20625   0.00000  Uiso   1.00
O104   O     0.37618   0.21927   0.23995   0.00000  Uiso   1.00
O105   O     0.54260   0.02519   0.05999   0.00000  Uiso   1.00
O106   O     0.48655   0.32060   0.28801   0.00000  Uiso   1.00
O107   O     0.44522   0.29629   0.04266   0.00000  Uiso   1.00
O108   O     0.57759   0.03262   0.28111   0.00000  Uiso   1.00
O109   O     0.41153   0.09580   0.08903   0.00000  Uiso   1.00
O110   O     0.36122   0.11871   0.02181   0.00000  Uiso   1.00
O111   O     0.39993   0.05260   0.01502   0.00000  Uiso   1.00
O112   O     0.63799   0.21244   0.31027   0.00000  Uiso   1.00
O113   O     0.58837   0.23767   0.24435   0.00000  Uiso   1.00
O114   O     0.50000   0.22678   0.12709   0.00000  Uiso   1.00
O115   O     0.60386   0.27988   0.31937   0.00000  Uiso   1.00
O116   O     0.43959   0.05561   0.27501   0.00000  Uiso   1.00
O117   O     0.36486   0.08881   0.27426   0.00000  Uiso   1.00
O118   O     0.40785   0.09293   0.20475   0.00000  Uiso   1.00
O119   O     0.63570   0.24257   0.05934   0.00000  Uiso   1.00
O120   O     0.56231   0.27766   0.05817   0.00000  Uiso   1.00
O121   O     0.59225   0.24030   0.12873   0.00000  Uiso   1.00
O122   O     0.50000   0.10654   0.12706   0.00000  Uiso   1.00
O123   O     0.50000   0.22679   0.20628   0.00000  Uiso   1.00
O124   O     0.42495   0.16667   0.19712   0.00000  Uiso   1.00
O125   O     0.57505   0.16666   0.13621   0.00000  Uiso   1.00
O126   O     0.42494   0.16666   0.11793   0.00000  Uiso   1.00
O127   O     0.57506   0.16667   0.21540   0.00000  Uiso   1.00
O128   O     0.62063   0.11314   0.09413   0.00000  Uiso   1.00
S129   S     0.40926   0.10196   0.03808   0.00000  Uiso   1.00
S130   S     0.59098   0.23079   0.29520   0.00000  Uiso   1.00
S131   S     0.41889   0.09429   0.26340   0.00000  Uiso   1.00
S132   S     0.58172   0.23848   0.07005   0.00000  Uiso   1.00
C133   C     0.83745   0.08810   0.16648   0.00000  Uiso   1.00
C134   C     0.85297   0.02499   0.20825   0.00000  Uiso   1.00
C135   C     0.82365   0.28959   0.16716   0.00000  Uiso   1.00
C136   C     0.84219   0.04375   0.16556   0.00000  Uiso   1.00
C137   C     0.79652   0.13748   0.01833   0.00000  Uiso   1.00
C138   C     0.86999   0.19593   0.31500   0.00000  Uiso   1.00
C139   C     0.79674   0.13732   0.30142   0.00000  Uiso   1.00
C140   C     0.86988   0.19599   0.03191   0.00000  Uiso   1.00
C141   C     0.98394   0.14719   0.10045   0.00000  Uiso   1.00
C142   C     0.68212   0.18419   0.23295   0.00000  Uiso   1.00
C143   C     0.84292   0.03671   0.07880   0.00000  Uiso   1.00
C144   C     0.82895   0.24523   0.16675   0.00000  Uiso   1.00
C145   C     0.81774   0.29785   0.25331   0.00000  Uiso   1.00
C146   C     0.78300   0.28275   0.08158   0.00000  Uiso   1.00
C147   C     0.89105   0.04966   0.24810   0.00000  Uiso   1.00
C148   C     0.73479   0.16703   0.15447   0.00000  Uiso   1.00
C149   C     0.93171   0.16585   0.17883   0.00000  Uiso   1.00
C150   C     0.67867   0.16295   0.14807   0.00000  Uiso   1.00
C151   C     0.98756   0.16890   0.18526   0.00000  Uiso   1.00
C152   C     0.83027   0.01870   0.12296   0.00000  Uiso   1.00
C153   C     0.83498   0.31488   0.20974   0.00000  Uiso   1.00
C154   C     0.81527   0.30834   0.12392   0.00000  Uiso   1.00
Cu155  Cu    0.83333   0.16667   0.21355   0.00000  Uiso   1.00
Cu156  Cu    0.83333   0.16666   0.11978   0.00000  Uiso   1.00
H157   H     0.99119   0.16561   0.07083   0.00000  Uiso   1.00
H158   H     0.94755   0.26833   0.13907   0.00000  Uiso   1.00
H159   H     0.67677   0.16466   0.26207   0.00000  Uiso   1.00
H160   H     0.82371   0.05988   0.06242   0.00000  Uiso   1.00
H161   H     0.79955   0.26544   0.25465   0.00000  Uiso   1.00
H162   H     0.76075   0.25169   0.08524   0.00000  Uiso   1.00
H163   H     0.90525   0.08302   0.24698   0.00000  Uiso   1.00
H164   H     0.69800   0.03878   0.01986   0.00000  Uiso   1.00
H165   H     0.90680   0.29146   0.30626   0.00000  Uiso   1.00
H166   H     0.72034   0.06454   0.19425   0.00000  Uiso   1.00
N167   N     0.83335   0.16668   0.28403   0.00000  Uiso   1.00
N168   N     0.83332   0.16666   0.04931   0.00000  Uiso   1.00
O169   O     0.83333   0.10655   0.20625   0.00000  Uiso   1.00
O170   O     0.70951   0.21927   0.23995   0.00000  Uiso   1.00
O171   O     0.87594   0.02519   0.05999   0.00000  Uiso   1.00
O172   O     0.81989   0.32060   0.28801   0.00000  Uiso   1.00
O173   O     0.77855   0.29629   0.04266   0.00000  Uiso   1.00
O174   O     0.91092   0.03262   0.28111   0.00000  Uiso   1.00
O175   O     0.74486   0.09580   0.08903   0.00000  Uiso   1.00
O176   O     0.69455   0.11871   0.02181   0.00000  Uiso   1.00
O177   O     0.73327   0.05260   0.01502   0.00000  Uiso   1.00
O178   O     0.97132   0.21244   0.31027   0.00000  Uiso   1.00
O179   O     0.92171   0.23767   0.24435   0.00000  Uiso   1.00
O180   O     0.83334   0.22678   0.12709   0.00000  Uiso   1.00
O181   O     0.93720   0.27988   0.31937   0.00000  Uiso   1.00
O182   O     0.77293   0.05561   0.27501   0.00000  Uiso   1.00
O183   O     0.69820   0.08881   0.27426   0.00000  Uiso   1.00
O184   O     0.74118   0.09293   0.20475   0.00000  Uiso   1.00
O185   O     0.96903   0.24257   0.05934   0.00000  Uiso   1.00
O186   O     0.89564   0.27766   0.05817   0.00000  Uiso   1.00
O187   O     0.92558   0.24030   0.12873   0.00000  Uiso   1.00
O188   O     0.83333   0.10654   0.12706   0.00000  Uiso   1.00
O189   O     0.83334   0.22679   0.20628   0.00000  Uiso   1.00
O190   O     0.75828   0.16667   0.19712   0.00000  Uiso   1.00
O191   O     0.90839   0.16666   0.13621   0.00000  Uiso   1.00
O192   O     0.75828   0.16666   0.11793   0.00000  Uiso   1.00
O193   O     0.90839   0.16667   0.21540   0.00000  Uiso   1.00
O194   O     0.95396   0.11314   0.09413   0.00000  Uiso   1.00
S195   S     0.74260   0.10196   0.03808   0.00000  Uiso   1.00
S196   S     0.92431   0.23079   0.29520   0.00000  Uiso   1.00
S197   S     0.75223   0.09429   0.26340   0.00000  Uiso   1.00
S198   S     0.91505   0.23848   0.07005   0.00000  Uiso   1.00
C199   C     0.17078   0.42143   0.16648   0.00000  Uiso   1.00
C200   C     0.18630   0.35832   0.20825   0.00000  Uiso   1.00
C201   C     0.15698   0.62293   0.16716   0.00000  Uiso   1.00
C202   C     0.17552   0.37708   0.16556   0.00000  Uiso   1.00
C203   C     0.12985   0.47081   0.01833   0.00000  Uiso   1.00
C204   C     0.20333   0.52927   0.31500   0.00000  Uiso   1.00
C205   C     0.13007   0.47065   0.30142   0.00000  Uiso   1.00
C206   C     0.20321   0.52932   0.03191   0.00000  Uiso   1.00
C207   C     0.31727   0.48053   0.10045   0.00000  Uiso   1.00
C208   C     0.01546   0.51753   0.23295   0.00000  Uiso   1.00
C209   C     0.17625   0.37004   0.07880   0.00000  Uiso   1.00
C210   C     0.16228   0.57856   0.16675   0.00000  Uiso   1.00
C211   C     0.15108   0.63118   0.25331   0.00000  Uiso   1.00
C212   C     0.11633   0.61608   0.08158   0.00000  Uiso   1.00
C213   C     0.22438   0.38299   0.24810   0.00000  Uiso   1.00
C214   C     0.06812   0.50036   0.15447   0.00000  Uiso   1.00
C215   C     0.26504   0.49919   0.17883   0.00000  Uiso   1.00
C216   C     0.01200   0.49629   0.14807   0.00000  Uiso   1.00
C217   C     0.32090   0.50223   0.18526   0.00000  Uiso   1.00
C218   C     0.16361   0.35203   0.12296   0.00000  Uiso   1.00
C219   C     0.16831   0.64821   0.20974   0.00000  Uiso   1.00
C220   C     0.14860   0.64167   0.12392   0.00000  Uiso   1.00
Cu221  Cu    0.16667   0.50001   0.21355   0.00000  Uiso   1.00
Cu222  Cu    0.16667   0.49999   0.11978   0.00000  Uiso   1.00
H223   H     0.32452   0.49894   0.07083   0.00000  Uiso   1.00
H224   H     0.28088   0.60166   0.13907   0.00000  Uiso   1.00
H225   H     0.01010   0.49799   0.26207   0.00000  Uiso   1.00
H226   H     0.15704   0.39321   0.06242   0.00000  Uiso   1.00
H227   H     0.13288   0.59878   0.25465   0.00000  Uiso   1.00
H228   H     0.09408   0.58503   0.08524   0.00000  Uiso   1.00
H229   H     0.23858   0.41636   0.24698   0.00000  Uiso   1.00
H230   H     0.03134   0.37211   0.01986   0.00000  Uiso   1.00
H231   H     0.24013   0.62479   0.30626   0.00000  Uiso   1.00
H232   H     0.05367   0.39787   0.19425   0.00000  Uiso   1.00
N233   N     0.16668   0.50001   0.28403   0.00000  Uiso   1.00
N234   N     0.16665   0.49999   0.04931   0.00000  Uiso   1.00
O235   O     0.16666   0.43989   0.20625   0.00000  Uiso   1.00
O236   O     0.04284   0.55260   0.23995   0.00000  Uiso   1.00
O237   O     0.20927   0.35852   0.05999   0.00000  Uiso   1.00
O238   O     0.15322   0.65393   0.28801   0.00000  Uiso   1.00
O239   O     0.11189   0.62962   0.04266   0.00000  Uiso   1.00
O240   O     0.24426   0.36595   0.28111   0.00000  Uiso   1.00
O241   O     0.07820   0.42913   0.08903   0.00000  Uiso   1.00
O242   O     0.02788   0.45204   0.02181   0.00000  Uiso   1.00
O243   O     0.06660   0.38593   0.01502   0.00000  Uiso   1.00
O244   O     0.30465   0.54577   0.31027   0.00000  Uiso   1.00
O245   O     0.25504   0.57100   0.24435   0.00000  Uiso   1.00
O246   O     0.16667   0.56011   0.12709   0.00000  Uiso   1.00
O247   O     0.27053   0.61321   0.31937   0.00000  Uiso   1.00
O248   O     0.10626   0.38894   0.27501   0.00000  Uiso   1.00
O249   O     0.03153   0.42215   0.27426   0.00000  Uiso   1.00
O250   O     0.07452   0.42626   0.20475   0.00000  Uiso   1.00
O251   O     0.30237   0.57590   0.05934   0.00000  Uiso   1.00
O252   O     0.22897   0.61099   0.05817   0.00000  Uiso   1.00
O253   O     0.25892   0.57363   0.12873   0.00000  Uiso   1.00
O254   O     0.16666   0.43988   0.12706   0.00000  Uiso   1.00
O255   O     0.16667   0.56012   0.20628   0.00000  Uiso   1.00
O256   O     0.09161   0.50000   0.19712   0.00000  Uiso   1.00
O257   O     0.24172   0.50000   0.13621   0.00000  Uiso   1.00
O258   O     0.09161   0.49999   0.11793   0.00000  Uiso   1.00
O259   O     0.24172   0.50001   0.21540   0.00000  Uiso   1.00
O260   O     0.28730   0.44648   0.09413   0.00000  Uiso   1.00
S261   S     0.07593   0.43529   0.03808   0.00000  Uiso   1.00
S262   S     0.25765   0.56412   0.29520   0.00000  Uiso   1.00
S263   S     0.08556   0.42763   0.26340   0.00000  Uiso   1.00
S264   S     0.24838   0.57182   0.07005   0.00000  Uiso   1.00
C265   C     0.50412   0.42143   0.16648   0.00000  Uiso   1.00
C266   C     0.51963   0.35832   0.20825   0.00000  Uiso   1.00
C267   C     0.49032   0.62293   0.16716   0.00000  Uiso   1.00
C268   C     0.50886   0.37708   0.16556   0.00000  Uiso   1.00
C269   C     0.46319   0.47081   0.01833   0.00000  Uiso   1.00
C270   C     0.53666   0.52927   0.31500   0.00000  Uiso   1.00
C271   C     0.46341   0.47065   0.30142   0.00000  Uiso   1.00
C272   C     0.53655   0.52932   0.03191   0.00000  Uiso   1.00
C273   C     0.65060   0.48053   0.10045   0.00000  Uiso   1.00
C274   C     0.34879   0.51753   0.23295   0.00000  Uiso   1.00
C275   C     0.50959   0.37004   0.07880   0.00000  Uiso   1.00
C276   C     0.49561   0.57856   0.16675   0.00000  Uiso   1.00
C277   C     0.48441   0.63118   0.25331   0.00000  Uiso   1.00
C278   C     0.44966   0.61608   0.08158   0.00000  Uiso   1.00
C279   C     0.55771   0.38299   0.24810   0.00000  Uiso   1.00
C280   C     0.40145   0.50036   0.15447   0.00000  Uiso   1.00
C281   C     0.59838   0.49919   0.17883   0.00000  Uiso   1.00
C282   C     0.34534   0.49629   0.14807   0.00000  Uiso   1.00
C283   C     0.65423   0.50223   0.18526   0.00000  Uiso   1.00
C284   C     0.49694   0.35203   0.12296   0.00000  Uiso   1.00
C285   C     0.50164   0.64821   0.20974   0.00000  Uiso   1.00
C286   C     0.48194   0.64167   0.12392   0.00000  Uiso   1.00
Cu287  Cu    0.50000   0.50001   0.21355   0.00000  Uiso   1.00
Cu288  Cu    0.50000   0.49999   0.11978   0.00000  Uiso   1.00
H289   H     0.65785   0.49894   0.07083   0.00000  Uiso   1.00
H290   H     0.61421   0.60166   0.13907   0.00000  Uiso   1.00
H291   H     0.34344   0.49799   0.26207   0.00000  Uiso   1.00
H292   H     0.49038   0.39321   0.06242   0.00000  Uiso   1.00
H293   H     0.46622   0.59878   0.25465   0.00000  Uiso   1.00
H294   H     0.42741   0.58503   0.08524   0.00000  Uiso   1.00
H295   H     0.57192   0.41636   0.24698   0.00000  Uiso   1.00
H296   H     0.36467   0.37211   0.01986   0.00000  Uiso   1.00
H297   H     0.57346   0.62479   0.30626   0.00000  Uiso   1.00
H298   H     0.38701   0.39787   0.19425   0.00000  Uiso   1.00
N299   N     0.50001   0.50001   0.28403   0.00000  Uiso   1.00
N300   N     0.49999   0.49999   0.04931   0.00000  Uiso   1.00
O301   O     0.50000   0.43989   0.20625   0.00000  Uiso   1.00
O302   O     0.37618   0.55260   0.23995   0.00000  Uiso   1.00
O303   O     0.54260   0.35852   0.05999   0.00000  Uiso   1.00
O304   O     0.48655   0.65393   0.28801   0.00000  Uiso   1.00
O305   O     0.44522   0.62962   0.04266   0.00000  Uiso   1.00
O306   O     0.57759   0.36595   0.28111   0.00000  Uiso   1.00
O307   O     0.41153   0.42913   0.08903   0.00000  Uiso   1.00
O308   O     0.36122   0.45204   0.02181   0.00000  Uiso   1.00
O309   O     0.39993   0.38593   0.01502   0.00000  Uiso   1.00
O310   O     0.63799   0.54577   0.31027   0.00000  Uiso   1.00
O311   O     0.58837   0.57100   0.24435   0.00000  Uiso   1.00
O312   O     0.50000   0.56011   0.12709   0.00000  Uiso   1.00
O313   O     0.60386   0.61321   0.31937   0.00000  Uiso   1.00
O314   O     0.43959   0.38894   0.27501   0.00000  Uiso   1.00
O315   O     0.36486   0.42215   0.27426   0.00000  Uiso   1.00
O316   O     0.40785   0.42626   0.20475   0.00000  Uiso   1.00
O317   O     0.63570   0.57590   0.05934   0.00000  Uiso   1.00
O318   O     0.56231   0.61099   0.05817   0.00000  Uiso   1.00
O319   O     0.59225   0.57363   0.12873   0.00000  Uiso   1.00
O320   O     0.50000   0.43988   0.12706   0.00000  Uiso   1.00
O321   O     0.50000   0.56012   0.20628   0.00000  Uiso   1.00
O322   O     0.42495   0.50000   0.19712   0.00000  Uiso   1.00
O323   O     0.57505   0.50000   0.13621   0.00000  Uiso   1.00
O324   O     0.42494   0.49999   0.11793   0.00000  Uiso   1.00
O325   O     0.57506   0.50001   0.21540   0.00000  Uiso   1.00
O326   O     0.62063   0.44648   0.09413   0.00000  Uiso   1.00
S327   S     0.40926   0.43529   0.03808   0.00000  Uiso   1.00
S328   S     0.59098   0.56412   0.29520   0.00000  Uiso   1.00
S329   S     0.41889   0.42763   0.26340   0.00000  Uiso   1.00
S330   S     0.58172   0.57182   0.07005   0.00000  Uiso   1.00
C331   C     0.83745   0.42143   0.16648   0.00000  Uiso   1.00
C332   C     0.85297   0.35832   0.20825   0.00000  Uiso   1.00
C333   C     0.82365   0.62293   0.16716   0.00000  Uiso   1.00
C334   C     0.84219   0.37708   0.16556   0.00000  Uiso   1.00
C335   C     0.79652   0.47081   0.01833   0.00000  Uiso   1.00
C336   C     0.86999   0.52927   0.31500   0.00000  Uiso   1.00
C337   C     0.79674   0.47065   0.30142   0.00000  Uiso   1.00
C338   C     0.86988   0.52932   0.03191   0.00000  Uiso   1.00
C339   C     0.98394   0.48053   0.10045   0.00000  Uiso   1.00
C340   C     0.68212   0.51753   0.23295   0.00000  Uiso   1.00
C341   C     0.84292   0.37004   0.07880   0.00000  Uiso   1.00
C342   C     0.82895   0.57856   0.16675   0.00000  Uiso   1.00
C343   C     0.81774   0.63118   0.25331   0.00000  Uiso   1.00
C344   C     0.78300   0.61608   0.08158   0.00000  Uiso   1.00
C345   C     0.89105   0.38299   0.24810   0.00000  Uiso   1.00
C346   C     0.73479   0.50036   0.15447   0.00000  Uiso   1.00
C347   C     0.93171   0.49919   0.17883   0.00000  Uiso   1.00
C348   C     0.67867   0.49629   0.14807   0.00000  Uiso   1.00
C349   C     0.98756   0.50223   0.18526   0.00000  Uiso   1.00
C350   C     0.83027   0.35203   0.12296   0.00000  Uiso   1.00
C351   C     0.83498   0.64821   0.20974   0.00000  Uiso   1.00
C352   C     0.81527   0.64167   0.12392   0.00000  Uiso   1.00
Cu353  Cu    0.83333   0.50001   0.21355   0.00000  Uiso   1.00
Cu354  Cu    0.83333   0.49999   0.11978   0.00000  Uiso   1.00
H355   H     0.99119   0.49894   0.07083   0.00000  Uiso   1.00
H356   H     0.94755   0.60166   0.13907   0.00000  Uiso   1.00
H357   H     0.67677   0.49799   0.26207   0.00000  Uiso   1.00
H358   H     0.82371   0.39321   0.06242   0.00000  Uiso   1.00
H359   H     0.79955   0.59878   0.25465   0.00000  Uiso   1.00
H360   H     0.76075   0.58503   0.08524   0.00000  Uiso   1.00
H361   H     0.90525   0.41636   0.24698   0.00000  Uiso   1.00
H362   H     0.69800   0.37211   0.01986   0.00000  Uiso   1.00
H363   H     0.90680   0.62479   0.30626   0.00000  Uiso   1.00
H364   H     0.72034   0.39787   0.19425   0.00000  Uiso   1.00
N365   N     0.83335   0.50001   0.28403   0.00000  Uiso   1.00
N366   N     0.83332   0.49999   0.04931   0.00000  Uiso   1.00
O367   O     0.83333   0.43989   0.20625   0.00000  Uiso   1.00
O368   O     0.70951   0.55260   0.23995   0.00000  Uiso   1.00
O369   O     0.87594   0.35852   0.05999   0.00000  Uiso   1.00
O370   O     0.81989   0.65393   0.28801   0.00000  Uiso   1.00
O371   O     0.77855   0.62962   0.04266   0.00000  Uiso   1.00
O372   O     0.91092   0.36595   0.28111   0.00000  Uiso   1.00
O373   O     0.74486   0.42913   0.08903   0.00000  Uiso   1.00
O374   O     0.69455   0.45204   0.02181   0.00000  Uiso   1.00
O375   O     0.73327   0.38593   0.01502   0.00000  Uiso   1.00
O376   O     0.97132   0.54577   0.31027   0.00000  Uiso   1.00
O377   O     0.92171   0.57100   0.24435   0.00000  Uiso   1.00
O378   O     0.83334   0.56011   0.12709   0.00000  Uiso   1.00
O379   O     0.93720   0.61321   0.31937   0.00000  Uiso   1.00
O380   O     0.77293   0.38894   0.27501   0.00000  Uiso   1.00
O381   O     0.69820   0.42215   0.27426   0.00000  Uiso   1.00
O382   O     0.74118   0.42626   0.20475   0.00000  Uiso   1.00
O383   O     0.96903   0.57590   0.05934   0.00000  Uiso   1.00
O384   O     0.89564   0.61099   0.05817   0.00000  Uiso   1.00
O385   O     0.92558   0.57363   0.12873   0.00000  Uiso   1.00
O386   O     0.83333   0.43988   0.12706   0.00000  Uiso   1.00
O387   O     0.83334   0.56012   0.20628   0.00000  Uiso   1.00
O388   O     0.75828   0.50000   0.19712   0.00000  Uiso   1.00
O389   O     0.90839   0.50000   0.13621   0.00000  Uiso   1.00
O390   O     0.75828   0.49999   0.11793   0.00000  Uiso   1.00
O391   O     0.90839   0.50001   0.21540   0.00000  Uiso   1.00
O392   O     0.95396   0.44648   0.09413   0.00000  Uiso   1.00
S393   S     0.74260   0.43529   0.03808   0.00000  Uiso   1.00
S394   S     0.92431   0.56412   0.29520   0.00000  Uiso   1.00
S395   S     0.75223   0.42763   0.26340   0.00000  Uiso   1.00
S396   S     0.91505   0.57182   0.07005   0.00000  Uiso   1.00
C397   C     0.17078   0.75477   0.16648   0.00000  Uiso   1.00
C398   C     0.18630   0.69165   0.20825   0.00000  Uiso   1.00
C399   C     0.15698   0.95626   0.16716   0.00000  Uiso   1.00
C400   C     0.17552   0.71041   0.16556   0.00000  Uiso   1.00
C401   C     0.12985   0.80414   0.01833   0.00000  Uiso   1.00
C402   C     0.20333   0.86260   0.31500   0.00000  Uiso   1.00
C403   C     0.13007   0.80398   0.30142   0.00000  Uiso   1.00
C404   C     0.20321   0.86266   0.03191   0.00000  Uiso   1.00
C405   C     0.31727   0.81386   0.10045   0.00000  Uiso   1.00
C406   C     0.01546   0.85086   0.23295   0.00000  Uiso   1.00
C407   C     0.17625   0.70338   0.07880   0.00000  Uiso   1.00
C408   C     0.16228   0.91190   0.16675   0.00000  Uiso   1.00
C409   C     0.15108   0.96451   0.25331   0.00000  Uiso   1.00
C410   C     0.11633   0.94941   0.08158   0.00000  Uiso   1.00
C411   C     0.22438   0.71632   0.24810   0.00000  Uiso   1.00
C412   C     0.06812   0.83369   0.15447   0.00000  Uiso   1.00
C413   C     0.26504   0.83252   0.17883   0.00000  Uiso   1.00
C414   C     0.01200   0.82962   0.14807   0.00000  Uiso   1.00
C415   C     0.32090   0.83556   0.18526   0.00000  Uiso   1.00
C416   C     0.16361   0.68537   0.12296   0.00000  Uiso   1.00
C417   C     0.16831   0.98155   0.20974   0.00000  Uiso   1.00
C418   C     0.14860   0.97500   0.12392   0.00000  Uiso   1.00
Cu419  Cu    0.16667   0.83334   0.21355   0.00000  Uiso   1.00
Cu420  Cu    0.16667   0.83333   0.11978   0.00000  Uiso   1.00
H421   H     0.32452   0.83227   0.07083   0.00000  Uiso   1.00
H422   H     0.28088   0.93500   0.13907   0.00000  Uiso   1.00
H423   H     0.01010   0.83132   0.26207   0.00000  Uiso   1.00
H424   H     0.15704   0.72655   0.06242   0.00000  Uiso   1.00
H425   H     0.13288   0.93211   0.25465   0.00000  Uiso   1.00
H426   H     0.09408   0.91836   0.08524   0.00000  Uiso   1.00
H427   H     0.23858   0.74969   0.24698   0.00000  Uiso   1.00
H428   H     0.03134   0.70545   0.01986   0.00000  Uiso   1.00
H429   H     0.24013   0.95813   0.30626   0.00000  Uiso   1.00
H430   H     0.05367   0.73120   0.19425   0.00000  Uiso   1.00
N431   N     0.16668   0.83334   0.28403   0.00000  Uiso   1.00
N432   N     0.16665   0.83332   0.04931   0.00000  Uiso   1.00
O433   O     0.16666   0.77322   0.20625   0.00000  Uiso   1.00
O434   O     0.04284   0.88593   0.23995   0.00000  Uiso   1.00
O435   O     0.20927   0.69186   0.05999   0.00000  Uiso   1.00
O436   O     0.15322   0.98727   0.28801   0.00000  Uiso   1.00
O437   O     0.11189   0.96295   0.04266   0.00000  Uiso   1.00
O438   O     0.24426   0.69929   0.28111   0.00000  Uiso   1.00
O439   O     0.07820   0.76246   0.08903   0.00000  Uiso   1.00
O440   O     0.02788   0.78537   0.02181   0.00000  Uiso   1.00
O441   O     0.06660   0.71926   0.01502   0.00000  Uiso   1.00
O442   O     0.30465   0.87910   0.31027   0.00000  Uiso   1.00
O443   O     0.25504   0.90433   0.24435   0.00000  Uiso   1.00
O444   O     0.16667   0.89345   0.12709   0.00000  Uiso   1.00
O445   O     0.27053   0.94654   0.31937   0.00000  Uiso   1.00
O446   O     0.10626   0.72227   0.27501   0.00000  Uiso   1.00
O447   O     0.03153   0.75548   0.27426   0.00000  Uiso   1.00
O448   O     0.07452   0.75959   0.20475   0.00000  Uiso   1.00
O449   O     0.30237   0.90924   0.05934   0.00000  Uiso   1.00
O450   O     0.22897   0.94433   0.05817   0.00000  Uiso   1.00
O451   O     0.25892   0.90696   0.12873   0.00000  Uiso   1.00
O452   O     0.16666   0.77321   0.12706   0.00000  Uiso   1.00
O453   O     0.16667   0.89346   0.20628   0.00000  Uiso   1.00
O454   O     0.09161   0.83334   0.19712   0.00000  Uiso   1.00
O455   O     0.24172   0.83333   0.13621   0.00000  Uiso   1.00
O456   O     0.09161   0.83333   0.11793   0.00000  Uiso   1.00
O457   O     0.24172   0.83334   0.21540   0.00000  Uiso   1.00
O458   O     0.28730   0.77981   0.09413   0.00000  Uiso   1.00
S459   S     0.07593   0.76862   0.03808   0.00000  Uiso   1.00
S460   S     0.25765   0.89746   0.29520   0.00000  Uiso   1.00
S461   S     0.08556   0.76096   0.26340   0.00000  Uiso   1.00
S462   S     0.24838   0.90515   0.07005   0.00000  Uiso   1.00
C463   C     0.50412   0.75477   0.16648   0.00000  Uiso   1.00
C464   C     0.51963   0.69165   0.20825   0.00000  Uiso   1.00
C465   C     0.49032   0.95626   0.16716   0.00000  Uiso   1.00
C466   C     0.50886   0.71041   0.16556   0.00000  Uiso   1.00
C467   C     0.46319   0.80414   0.01833   0.00000  Uiso   1.00
C468   C     0.53666   0.86260   0.31500   0.00000  Uiso   1.00
C469   C     0.46341   0.80398   0.30142   0.00000  Uiso   1.00
C470   C     0.53655   0.86266   0.03191   0.00000  Uiso   1.00
C471   C     0.65060   0.81386   0.10045   0.00000  Uiso   1.00
C472   C     0.34879   0.85086   0.23295   0.00000  Uiso   1.00
C473   C     0.50959   0.70338   0.07880   0.00000  Uiso   1.00
C474   C     0.49561   0.91190   0.16675   0.00000  Uiso   1.00
C475   C     0.48441   0.96451   0.25331   0.00000  Uiso   1.00
C476   C     0.44966   0.94941   0.08158   0.00000  Uiso   1.00
C477   C     0.55771   0.71632   0.24810   0.00000  Uiso   1.00
C478   C     0.40145   0.83369   0.15447   0.00000  Uiso   1.00
C479   C     0.59838   0.83252   0.17883   0.00000  Uiso   1.00
C480   C     0.34534   0.82962   0.14807   0.00000  Uiso   1.00
C481   C     0.65423   0.83556   0.18526   0.00000  Uiso   1.00
C482   C     0.49694   0.68537   0.12296   0.00000  Uiso   1.00
C483   C     0.50164   0.98155   0.20974   0.00000  Uiso   1.00
C484   C     0.48194   0.97500   0.12392   0.00000  Uiso   1.00
Cu485  Cu    0.50000   0.83334   0.21355   0.00000  Uiso   1.00
Cu486  Cu    0.50000   0.83333   0.11978   0.00000  Uiso   1.00
H487   H     0.65785   0.83227   0.07083   0.00000  Uiso   1.00
H488   H     0.61421   0.93500   0.13907   0.00000  Uiso   1.00
H489   H     0.34344   0.83132   0.26207   0.00000  Uiso   1.00
H490   H     0.49038   0.72655   0.06242   0.00000  Uiso   1.00
H491   H     0.46622   0.93211   0.25465   0.00000  Uiso   1.00
H492   H     0.42741   0.91836   0.08524   0.00000  Uiso   1.00
H493   H     0.57192   0.74969   0.24698   0.00000  Uiso   1.00
H494   H     0.36467   0.70545   0.01986   0.00000  Uiso   1.00
H495   H     0.57346   0.95813   0.30626   0.00000  Uiso   1.00
H496   H     0.38701   0.73120   0.19425   0.00000  Uiso   1.00
N497   N     0.50001   0.83334   0.28403   0.00000  Uiso   1.00
N498   N     0.49999   0.83332   0.04931   0.00000  Uiso   1.00
O499   O     0.50000   0.77322   0.20625   0.00000  Uiso   1.00
O500   O     0.37618   0.88593   0.23995   0.00000  Uiso   1.00
O501   O     0.54260   0.69186   0.05999   0.00000  Uiso   1.00
O502   O     0.48655   0.98727   0.28801   0.00000  Uiso   1.00
O503   O     0.44522   0.96295   0.04266   0.00000  Uiso   1.00
O504   O     0.57759   0.69929   0.28111   0.00000  Uiso   1.00
O505   O     0.41153   0.76246   0.08903   0.00000  Uiso   1.00
O506   O     0.36122   0.78537   0.02181   0.00000  Uiso   1.00
O507   O     0.39993   0.71926   0.01502   0.00000  Uiso   1.00
O508   O     0.63799   0.87910   0.31027   0.00000  Uiso   1.00
O509   O     0.58837   0.90433   0.24435   0.00000  Uiso   1.00
O510   O     0.50000   0.89345   0.12709   0.00000  Uiso   1.00
O511   O     0.60386   0.94654   0.31937   0.00000  Uiso   1.00
O512   O     0.43959   0.72227   0.27501   0.00000  Uiso   1.00
O513   O     0.36486   0.75548   0.27426   0.00000  Uiso   1.00
O514   O     0.40785   0.75959   0.20475   0.00000  Uiso   1.00
O515   O     0.63570   0.90924   0.05934   0.00000  Uiso   1.00
O516   O     0.56231   0.94433   0.05817   0.00000  Uiso   1.00
O517   O     0.59225   0.90696   0.12873   0.00000  Uiso   1.00
O518   O     0.50000   0.77321   0.12706   0.00000  Uiso   1.00
O519   O     0.50000   0.89346   0.20628   0.00000  Uiso   1.00
O520   O     0.42495   0.83334   0.19712   0.00000  Uiso   1.00
O521   O     0.57505   0.83333   0.13621   0.00000  Uiso   1.00
O522   O     0.42494   0.83333   0.11793   0.00000  Uiso   1.00
O523   O     0.57506   0.83334   0.21540   0.00000  Uiso   1.00
O524   O     0.62063   0.77981   0.09413   0.00000  Uiso   1.00
S525   S     0.40926   0.76862   0.03808   0.00000  Uiso   1.00
S526   S     0.59098   0.89746   0.29520   0.00000  Uiso   1.00
S527   S     0.41889   0.76096   0.26340   0.00000  Uiso   1.00
S528   S     0.58172   0.90515   0.07005   0.00000  Uiso   1.00
C529   C     0.83745   0.75477   0.16648   0.00000  Uiso   1.00
C530   C     0.85297   0.69165   0.20825   0.00000  Uiso   1.00
C531   C     0.82365   0.95626   0.16716   0.00000  Uiso   1.00
C532   C     0.84219   0.71041   0.16556   0.00000  Uiso   1.00
C533   C     0.79652   0.80414   0.01833   0.00000  Uiso   1.00
C534   C     0.86999   0.86260   0.31500   0.00000  Uiso   1.00
C535   C     0.79674   0.80398   0.30142   0.00000  Uiso   1.00
C536   C     0.86988   0.86266   0.03191   0.00000  Uiso   1.00
C537   C     0.98394   0.81386   0.10045   0.00000  Uiso   1.00
C538   C     0.68212   0.85086   0.23295   0.00000  Uiso   1.00
C539   C     0.84292   0.70338   0.07880   0.00000  Uiso   1.00
C540   C     0.82895   0.91190   0.16675   0.00000  Uiso   1.00
C541   C     0.81774   0.96451   0.25331   0.00000  Uiso   1.00
C542   C     0.78300   0.94941   0.08158   0.00000  Uiso   1.00
C543   C     0.89105   0.71632   0.24810   0.00000  Uiso   1.00
C544   C     0.73479   0.83369   0.15447   0.00000  Uiso   1.00
C545   C     0.93171   0.83252   0.17883   0.00000  Uiso   1.00
C546   C     0.67867   0.82962   0.14807   0.00000  Uiso   1.00
C547   C     0.98756   0.83556   0.18526   0.00000  Uiso   1.00
C548   C     0.83027   0.68537   0.12296   0.00000  Uiso   1.00
C549   C     0.83498   0.98155   0.20974   0.00000  Uiso   1.00
C550   C     0.81527   0.97500   0.12392   0.00000  Uiso   1.00
Cu551  Cu    0.83333   0.83334   0.21355   0.00000  Uiso   1.00
Cu552  Cu    0.83333   0.83333   0.11978   0.00000  Uiso   1.00
H553   H     0.99119   0.83227   0.07083   0.00000  Uiso   1.00
H554   H     0.94755   0.93500   0.13907   0.00000  Uiso   1.00
H555   H     0.67677   0.83132   0.26207   0.00000  Uiso   1.00
H556   H     0.82371   0.72655   0.06242   0.00000  Uiso   1.00
H557   H     0.79955   0.93211   0.25465   0.00000  Uiso   1.00
H558   H     0.76075   0.91836   0.08524   0.00000  Uiso   1.00
H559   H     0.90525   0.74969   0.24698   0.00000  Uiso   1.00
H560   H     0.69800   0.70545   0.01986   0.00000  Uiso   1.00
H561   H     0.90680   0.95813   0.30626   0.00000  Uiso   1.00
H562   H     0.72034   0.73120   0.19425   0.00000  Uiso   1.00
N563   N     0.83335   0.83334   0.28403   0.00000  Uiso   1.00
N564   N     0.83332   0.83332   0.04931   0.00000  Uiso   1.00
O565   O     0.83333   0.77322   0.20625   0.00000  Uiso   1.00
O566   O     0.70951   0.88593   0.23995   0.00000  Uiso   1.00
O567   O     0.87594   0.69186   0.05999   0.00000  Uiso   1.00
O568   O     0.81989   0.98727   0.28801   0.00000  Uiso   1.00
O569   O     0.77855   0.96295   0.04266   0.00000  Uiso   1.00
O570   O     0.91092   0.69929   0.28111   0.00000  Uiso   1.00
O571   O     0.74486   0.76246   0.08903   0.00000  Uiso   1.00
O572   O     0.69455   0.78537   0.02181   0.00000  Uiso   1.00
O573   O     0.73327   0.71926   0.01502   0.00000  Uiso   1.00
O574   O     0.97132   0.87910   0.31027   0.00000  Uiso   1.00
O575   O     0.92171   0.90433   0.24435   0.00000  Uiso   1.00
O576   O     0.83334   0.89345   0.12709   0.00000  Uiso   1.00
O577   O     0.93720   0.94654   0.31937   0.00000  Uiso   1.00
O578   O     0.77293   0.72227   0.27501   0.00000  Uiso   1.00
O579   O     0.69820   0.75548   0.27426   0.00000  Uiso   1.00
O580   O     0.74118   0.75959   0.20475   0.00000  Uiso   1.00
O581   O     0.96903   0.90924   0.05934   0.00000  Uiso   1.00
O582   O     0.89564   0.94433   0.05817   0.00000  Uiso   1.00
O583   O     0.92558   0.90696   0.12873   0.00000  Uiso   1.00
O584   O     0.83333   0.77321   0.12706   0.00000  Uiso   1.00
O585   O     0.83334   0.89346   0.20628   0.00000  Uiso   1.00
O586   O     0.75828   0.83334   0.19712   0.00000  Uiso   1.00
O587   O     0.90839   0.83333   0.13621   0.00000  Uiso   1.00
O588   O     0.75828   0.83333   0.11793   0.00000  Uiso   1.00
O589   O     0.90839   0.83334   0.21540   0.00000  Uiso   1.00
O590   O     0.95396   0.77981   0.09413   0.00000  Uiso   1.00
S591   S     0.74260   0.76862   0.03808   0.00000  Uiso   1.00
S592   S     0.92431   0.89746   0.29520   0.00000  Uiso   1.00
S593   S     0.75223   0.76096   0.26340   0.00000  Uiso   1.00
S594   S     0.91505   0.90515   0.07005   0.00000  Uiso   1.00
C595   C     0.17078   0.08810   0.49982   0.00000  Uiso   1.00
C596   C     0.18630   0.02499   0.54159   0.00000  Uiso   1.00
C597   C     0.15698   0.28959   0.50050   0.00000  Uiso   1.00
C598   C     0.17552   0.04375   0.49889   0.00000  Uiso   1.00
C599   C     0.12985   0.13748   0.35166   0.00000  Uiso   1.00
C600   C     0.20333   0.19593   0.64833   0.00000  Uiso   1.00
C601   C     0.13007   0.13732   0.63475   0.00000  Uiso   1.00
C602   C     0.20321   0.19599   0.36525   0.00000  Uiso   1.00
C603   C     0.31727   0.14719   0.43378   0.00000  Uiso   1.00
C604   C     0.01546   0.18419   0.56628   0.00000  Uiso   1.00
C605   C     0.17625   0.03671   0.41213   0.00000  Uiso   1.00
C606   C     0.16228   0.24523   0.50008   0.00000  Uiso   1.00
C607   C     0.15108   0.29785   0.58664   0.00000  Uiso   1.00
C608   C     0.11633   0.28275   0.41491   0.00000  Uiso   1.00
C609   C     0.22438   0.04966   0.58144   0.00000  Uiso   1.00
C610   C     0.06812   0.16703   0.48780   0.00000  Uiso   1.00
C611   C     0.26504   0.16585   0.51216   0.00000  Uiso   1.00
C612   C     0.01200   0.16295   0.48140   0.00000  Uiso   1.00
C613   C     0.32090   0.16890   0.51859   0.00000  Uiso   1.00
C614   C     0.16361   0.01870   0.45629   0.00000  Uiso   1.00
C615   C     0.16831   0.31488   0.54307   0.00000  Uiso   1.00
C616   C     0.14860   0.30834   0.45725   0.00000  Uiso   1.00
Cu617  Cu    0.16667   0.16667   0.54689   0.00000  Uiso   1.00
Cu618  Cu    0.16667   0.16666   0.45311   0.00000  Uiso   1.00
H619   H     0.32452   0.16561   0.40417   0.00000  Uiso   1.00
H620   H     0.28088   0.26833   0.47241   0.00000  Uiso   1.00
H621   H     0.01010   0.16466   0.59540   0.00000  Uiso   1.00
H622   H     0.15704   0.05988   0.39575   0.00000  Uiso   1.00
H623   H     0.13288   0.26544   0.58799   0.00000  Uiso   1.00
H624   H     0.09408   0.25169   0.41857   0.00000  Uiso   1.00
H625   H     0.23858   0.08302   0.58031   0.00000  Uiso   1.00
H626   H     0.03134   0.03878   0.35319   0.00000  Uiso   1.00
H627   H     0.24013   0.29146   0.63959   0.00000  Uiso   1.00
H628   H     0.05367   0.06454   0.52758   0.00000  Uiso   1.00
N629   N     0.16668   0.16668   0.61736   0.00000  Uiso   1.00
N630   N     0.16665   0.16666   0.38264   0.00000  Uiso   1.00
O631   O     0.16666   0.10655   0.53958   0.00000  Uiso   1.00
O632   O     0.04284   0.21927   0.57328   0.00000  Uiso   1.00
O633   O     0.20927   0.02519   0.39333   0.00000  Uiso   1.00
O634   O     0.15322   0.32060   0.62134   0.00000  Uiso   1.00
O635   O     0.11189   0.29629   0.37599   0.00000  Uiso   1.00
O636   O     0.24426   0.03262   0.61444   0.00000  Uiso   1.00
O637   O     0.07820   0.09580   0.42237   0.00000  Uiso   1.00
O638   O     0.02788   0.11871   0.35514   0.00000  Uiso   1.00
O639   O     0.06660   0.05260   0.34836   0.00000  Uiso   1.00
O640   O     0.30465   0.21244   0.64360   0.00000  Uiso   1.00
O641   O     0.25504   0.23767   0.57768   0.00000  Uiso   1.00
O642   O     0.16667   0.22678   0.46042   0.00000  Uiso   1.00
O643   O     0.27053   0.27988   0.65270   0.00000  Uiso   1.00
O644   O     0.10626   0.05561   0.60834   0.00000  Uiso   1.00
O645   O     0.03153   0.08881   0.60759   0.00000  Uiso   1.00
O646   O     0.07452   0.09293   0.53809   0.00000  Uiso   1.00
O647   O     0.30237   0.24257   0.39268   0.00000  Uiso   1.00
O648   O     0.22897   0.27766   0.39150   0.00000  Uiso   1.00
O649   O     0.25892   0.24030   0.46206   0.00000  Uiso   1.00
O650   O     0.16666   0.10654   0.46039   0.00000  Uiso   1.00
O651   O     0.16667   0.22679   0.53961   0.00000  Uiso   1.00
O652   O     0.09161   0.16667   0.53046   0.00000  Uiso   1.00
O653   O     0.24172   0.16666   0.46954   0.00000  Uiso   1.00
O654   O     0.09161   0.16666   0.45127   0.00000  Uiso   1.00
O655   O     0.24172   0.16667   0.54873   0.00000  Uiso   1.00
O656   O     0.28730   0.11314   0.42747   0.00000  Uiso   1.00
S657   S     0.07593   0.10196   0.37142   0.00000  Uiso   1.00
S658   S     0.25765   0.23079   0.62853   0.00000  Uiso   1.00
S659   S     0.08556   0.09429   0.59674   0.00000  Uiso   1.00
S660   S     0.24838   0.23848   0.40339   0.00000  Uiso   1.00
C661   C     0.50412   0.08810   0.49982   0.00000  Uiso   1.00
C662   C     0.51963   0.02499   0.54159   0.00000  Uiso   1.00
C663   C     0.49032   0.28959   0.50050   0.00000  Uiso   1.00
C664   C     0.50886   0.04375   0.49889   0.00000  Uiso   1.00
C665   C     0.46319   0.13748   0.35166   0.00000  Uiso   1.00
C666   C     0.53666   0.19593   0.64833   0.00000  Uiso   1.00
C667   C     0.46341   0.13732   0.63475   0.00000  Uiso   1.00
C668   C     0.53655   0.19599   0.36525   0.00000  Uiso   1.00
C669   C     0.65060   0.14719   0.43378   0.00000  Uiso   1.00
C670   C     0.34879   0.18419   0.56628   0.00000  Uiso   1.00
C671   C     0.50959   0.03671   0.41213   0.00000  Uiso   1.00
C672   C     0.49561   0.24523   0.50008   0.00000  Uiso   1.00
C673   C     0.48441   0.29785   0.58664   0.00000  Uiso   1.00
C674   C     0.44966   0.28275   0.41491   0.00000  Uiso   1.00
C675   C     0.55771   0.04966   0.58144   0.00000  Uiso   1.00
C676   C     0.40145   0.16703   0.48780   0.00000  Uiso   1.00
C677   C     0.59838   0.16585   0.51216   0.00000  Uiso   1.00
C678   C     0.34534   0.16295   0.48140   0.00000  Uiso   1.00
C679   C     0.65423   0.16890   0.51859   0.00000  Uiso   1.00
C680   C     0.49694   0.01870   0.45629   0.00000  Uiso   1.00
C681   C     0.50164   0.31488   0.54307   0.00000  Uiso   1.00
C682   C     0.48194   0.30834   0.45725   0.00000  Uiso   1.00
Cu683  Cu    0.50000   0.16667   0.54689   0.00000  Uiso   1.00
Cu684  Cu    0.50000   0.16666   0.45311   0.00000  Uiso   1.00
H685   H     0.65785   0.16561   0.40417   0.00000  Uiso   1.00
H686   H     0.61421   0.26833   0.47241   0.00000  Uiso   1.00
H687   H     0.34344   0.16466   0.59540   0.00000  Uiso   1.00
H688   H     0.49038   0.05988   0.39575   0.00000  Uiso   1.00
H689   H     0.46622   0.26544   0.58799   0.00000  Uiso   1.00
H690   H     0.42741   0.25169   0.41857   0.00000  Uiso   1.00
H691   H     0.57192   0.08302   0.58031   0.00000  Uiso   1.00
H692   H     0.36467   0.03878   0.35319   0.00000  Uiso   1.00
H693   H     0.57346   0.29146   0.63959   0.00000  Uiso   1.00
H694   H     0.38701   0.06454   0.52758   0.00000  Uiso   1.00
N695   N     0.50001   0.16668   0.61736   0.00000  Uiso   1.00
N696   N     0.49999   0.16666   0.38264   0.00000  Uiso   1.00
O697   O     0.50000   0.10655   0.53958   0.00000  Uiso   1.00
O698   O     0.37618   0.21927   0.57328   0.00000  Uiso   1.00
O699   O     0.54260   0.02519   0.39333   0.00000  Uiso   1.00
O700   O     0.48655   0.32060   0.62134   0.00000  Uiso   1.00
O701   O     0.44522   0.29629   0.37599   0.00000  Uiso   1.00
O702   O     0.57759   0.03262   0.61444   0.00000  Uiso   1.00
O703   O     0.41153   0.09580   0.42237   0.00000  Uiso   1.00
O704   O     0.36122   0.11871   0.35514   0.00000  Uiso   1.00
O705   O     0.39993   0.05260   0.34836   0.00000  Uiso   1.00
O706   O     0.63799   0.21244   0.64360   0.00000  Uiso   1.00
O707   O     0.58837   0.23767   0.57768   0.00000  Uiso   1.00
O708   O     0.50000   0.22678   0.46042   0.00000  Uiso   1.00
O709   O     0.60386   0.27988   0.65270   0.00000  Uiso   1.00
O710   O     0.43959   0.05561   0.60834   0.00000  Uiso   1.00
O711   O     0.36486   0.08881   0.60759   0.00000  Uiso   1.00
O712   O     0.40785   0.09293   0.53809   0.00000  Uiso   1.00
O713   O     0.63570   0.24257   0.39268   0.00000  Uiso   1.00
O714   O     0.56231   0.27766   0.39150   0.00000  Uiso   1.00
O715   O     0.59225   0.24030   0.46206   0.00000  Uiso   1.00
O716   O     0.50000   0.10654   0.46039   0.00000  Uiso   1.00
O717   O     0.50000   0.22679   0.53961   0.00000  Uiso   1.00
O718   O     0.42495   0.16667   0.53046   0.00000  Uiso   1.00
O719   O     0.57505   0.16666   0.46954   0.00000  Uiso   1.00
O720   O     0.42494   0.16666   0.45127   0.00000  Uiso   1.00
O721   O     0.57506   0.16667   0.54873   0.00000  Uiso   1.00
O722   O     0.62063   0.11314   0.42747   0.00000  Uiso   1.00
S723   S     0.40926   0.10196   0.37142   0.00000  Uiso   1.00
S724   S     0.59098   0.23079   0.62853   0.00000  Uiso   1.00
S725   S     0.41889   0.09429   0.59674   0.00000  Uiso   1.00
S726   S     0.58172   0.23848   0.40339   0.00000  Uiso   1.00
C727   C     0.83745   0.08810   0.49982   0.00000  Uiso   1.00
C728   C     0.85297   0.02499   0.54159   0.00000  Uiso   1.00
C729   C     0.82365   0.28959   0.50050   0.00000  Uiso   1.00
C730   C     0.84219   0.04375   0.49889   0.00000  Uiso   1.00
C731   C     0.79652   0.13748   0.35166   0.00000  Uiso   1.00
C732   C     0.86999   0.19593   0.64833   0.00000  Uiso   1.00
C733   C     0.79674   0.13732   0.63475   0.00000  Uiso   1.00
C734   C     0.86988   0.19599   0.36525   0.00000  Uiso   1.00
C735   C     0.98394   0.14719   0.43378   0.00000  Uiso   1.00
C736   C     0.68212   0.18419   0.56628   0.00000  Uiso   1.00
C737   C     0.84292   0.03671   0.41213   0.00000  Uiso   1.00
C738   C     0.82895   0.24523   0.50008   0.00000  Uiso   1.00
C739   C     0.81774   0.29785   0.58664   0.00000  Uiso   1.00
C740   C     0.78300   0.28275   0.41491   0.00000  Uiso   1.00
C741   C     0.89105   0.04966   0.58144   0.00000  Uiso   1.00
C742   C     0.73479   0.16703   0.48780   0.00000  Uiso   1.00
C743   C     0.93171   0.16585   0.51216   0.00000  Uiso   1.00
C744   C     0.67867   0.16295   0.48140   0.00000  Uiso   1.00
C745   C     0.98756   0.16890   0.51859   0.00000  Uiso   1.00
C746   C     0.83027   0.01870   0.45629   0.00000  Uiso   1.00
C747   C     0.83498   0.31488   0.54307   0.00000  Uiso   1.00
C748   C     0.81527   0.30834   0.45725   0.00000  Uiso   1.00
Cu749  Cu    0.83333   0.16667   0.54689   0.00000  Uiso   1.00
Cu750  Cu    0.83333   0.16666   0.45311   0.00000  Uiso   1.00
H751   H     0.99119   0.16561   0.40417   0.00000  Uiso   1.00
H752   H     0.94755   0.26833   0.47241   0.00000  Uiso   1.00
H753   H     0.67677   0.16466   0.59540   0.00000  Uiso   1.00
H754   H     0.82371   0.05988   0.39575   0.00000  Uiso   1.00
H755   H     0.79955   0.26544   0.58799   0.00000  Uiso   1.00
H756   H     0.76075   0.25169   0.41857   0.00000  Uiso   1.00
H757   H     0.90525   0.08302   0.58031   0.00000  Uiso   1.00
H758   H     0.69800   0.03878   0.35319   0.00000  Uiso   1.00
H759   H     0.90680   0.29146   0.63959   0.00000  Uiso   1.00
H760   H     0.72034   0.06454   0.52758   0.00000  Uiso   1.00
N761   N     0.83335   0.16668   0.61736   0.00000  Uiso   1.00
N762   N     0.83332   0.16666   0.38264   0.00000  Uiso   1.00
O763   O     0.83333   0.10655   0.53958   0.00000  Uiso   1.00
O764   O     0.70951   0.21927   0.57328   0.00000  Uiso   1.00
O765   O     0.87594   0.02519   0.39333   0.00000  Uiso   1.00
O766   O     0.81989   0.32060   0.62134   0.00000  Uiso   1.00
O767   O     0.77855   0.29629   0.37599   0.00000  Uiso   1.00
O768   O     0.91092   0.03262   0.61444   0.00000  Uiso   1.00
O769   O     0.74486   0.09580   0.42237   0.00000  Uiso   1.00
O770   O     0.69455   0.11871   0.35514   0.00000  Uiso   1.00
O771   O     0.73327   0.05260   0.34836   0.00000  Uiso   1.00
O772   O     0.97132   0.21244   0.64360   0.00000  Uiso   1.00
O773   O     0.92171   0.23767   0.57768   0.00000  Uiso   1.00
O774   O     0.83334   0.22678   0.46042   0.00000  Uiso   1.00
O775   O     0.93720   0.27988   0.65270   0.00000  Uiso   1.00
O776   O     0.77293   0.05561   0.60834   0.00000  Uiso   1.00
O777   O     0.69820   0.08881   0.60759   0.00000  Uiso   1.00
O778   O     0.74118   0.09293   0.53809   0.00000  Uiso   1.00
O779   O     0.96903   0.24257   0.39268   0.00000  Uiso   1.00
O780   O     0.89564   0.27766   0.39150   0.00000  Uiso   1.00
O781   O     0.92558   0.24030   0.46206   0.00000  Uiso   1.00
O782   O     0.83333   0.10654   0.46039   0.00000  Uiso   1.00
O783   O     0.83334   0.22679   0.53961   0.00000  Uiso   1.00
O784   O     0.75828   0.16667   0.53046   0.00000  Uiso   1.00
O785   O     0.90839   0.16666   0.46954   0.00000  Uiso   1.00
O786   O     0.75828   0.16666   0.45127   0.00000  Uiso   1.00
O787   O     0.90839   0.16667   0.54873   0.00000  Uiso   1.00
O788   O     0.95396   0.11314   0.42747   0.00000  Uiso   1.00
S789   S     0.74260   0.10196   0.37142   0.00000  Uiso   1.00
S790   S     0.92431   0.23079   0.62853   0.00000  Uiso   1.00
S791   S     0.75223   0.09429   0.59674   0.00000  Uiso   1.00
S792   S     0.91505   0.23848   0.40339   0.00000  Uiso   1.00
C793   C     0.17078   0.42143   0.49982   0.00000  Uiso   1.00
C794   C     0.18630   0.35832   0.54159   0.00000  Uiso   1.00
C795   C     0.15698   0.62293   0.50050   0.00000  Uiso   1.00
C796   C     0.17552   0.37708   0.49889   0.00000  Uiso   1.00
C797   C     0.12985   0.47081   0.35166   0.00000  Uiso   1.00
C798   C     0.20333   0.52927   0.64833   0.00000  Uiso   1.00
C799   C     0.13007   0.47065   0.63475   0.00000  Uiso   1.00
C800   C     0.20321   0.52932   0.36525   0.00000  Uiso   1.00
C801   C     0.31727   0.48053   0.43378   0.00000  Uiso   1.00
C802   C     0.01546   0.51753   0.56628   0.00000  Uiso   1.00
C803   C     0.17625   0.37004   0.41213   0.00000  Uiso   1.00
C804   C     0.16228   0.57856   0.50008   0.00000  Uiso   1.00
C805   C     0.15108   0.63118   0.58664   0.00000  Uiso   1.00
C806   C     0.11633   0.61608   0.41491   0.00000  Uiso   1.00
C807   C     0.22438   0.38299   0.58144   0.00000  Uiso   1.00
C808   C     0.06812   0.50036   0.48780   0.00000  Uiso   1.00
C809   C     0.26504   0.49919   0.51216   0.00000  Uiso   1.00
C810   C     0.01200   0.49629   0.48140   0.00000  Uiso   1.00
C811   C     0.32090   0.50223   0.51859   0.00000  Uiso   1.00
C812   C     0.16361   0.35203   0.45629   0.00000  Uiso   1.00
C813   C     0.16831   0.64821   0.54307   0.00000  Uiso   1.00
C814   C     0.14860   0.64167   0.45725   0.00000  Uiso   1.00
Cu815  Cu    0.16667   0.50001   0.54689   0.00000  Uiso   1.00
Cu816  Cu    0.16667   0.49999   0.45311   0.00000  Uiso   1.00
H817   H     0.32452   0.49894   0.40417   0.00000  Uiso   1.00
H818   H     0.28088   0.60166   0.47241   0.00000  Uiso   1.00
H819   H     0.01010   0.49799   0.59540   0.00000  Uiso   1.00
H820   H     0.15704   0.39321   0.39575   0.00000  Uiso   1.00
H821   H     0.13288   0.59878   0.58799   0.00000  Uiso   1.00
H822   H     0.09408   0.58503   0.41857   0.00000  Uiso   1.00
H823   H     0.23858   0.41636   0.58031   0.00000  Uiso   1.00
H824   H     0.03134   0.37211   0.35319   0.00000  Uiso   1.00
H825   H     0.24013   0.62479   0.63959   0.00000  Uiso   1.00
H826   H     0.05367   0.39787   0.52758   0.00000  Uiso   1.00
N827   N     0.16668   0.50001   0.61736   0.00000  Uiso   1.00
N828   N     0.16665   0.49999   0.38264   0.00000  Uiso   1.00
O829   O     0.16666   0.43989   0.53958   0.00000  Uiso   1.00
O830   O     0.04284   0.55260   0.57328   0.00000  Uiso   1.00
O831   O     0.20927   0.35852   0.39333   0.00000  Uiso   1.00
O832   O     0.15322   0.65393   0.62134   0.00000  Uiso   1.00
O833   O     0.11189   0.62962   0.37599   0.00000  Uiso   1.00
O834   O     0.24426   0.36595   0.61444   0.00000  Uiso   1.00
O835   O     0.07820   0.42913   0.42237   0.00000  Uiso   1.00
O836   O     0.02788   0.45204   0.35514   0.00000  Uiso   1.00
O837   O     0.06660   0.38593   0.34836   0.00000  Uiso   1.00
O838   O     0.30465   0.54577   0.64360   0.00000  Uiso   1.00
O839   O     0.25504   0.57100   0.57768   0.00000  Uiso   1.00
O840   O     0.16667   0.56011   0.46042   0.00000  Uiso   1.00
O841   O     0.27053   0.61321   0.65270   0.00000  Uiso   1.00
O842   O     0.10626   0.38894   0.60834   0.00000  Uiso   1.00
O843   O     0.03153   0.42215   0.60759   0.00000  Uiso   1.00
O844   O     0.07452   0.42626   0.53809   0.00000  Uiso   1.00
O845   O     0.30237   0.57590   0.39268   0.00000  Uiso   1.00
O846   O     0.22897   0.61099   0.39150   0.00000  Uiso   1.00
O847   O     0.25892   0.57363   0.46206   0.00000  Uiso   1.00
O848   O     0.16666   0.43988   0.46039   0.00000  Uiso   1.00
O849   O     0.16667   0.56012   0.53961   0.00000  Uiso   1.00
O850   O     0.09161   0.50000   0.53046   0.00000  Uiso   1.00
O851   O     0.24172   0.50000   0.46954   0.00000  Uiso   1.00
O852   O     0.09161   0.49999   0.45127   0.00000  Uiso   1.00
O853   O     0.24172   0.50001   0.54873   0.00000  Uiso   1.00
O854   O     0.28730   0.44648   0.42747   0.00000  Uiso   1.00
S855   S     0.07593   0.43529   0.37142   0.00000  Uiso   1.00
S856   S     0.25765   0.56412   0.62853   0.00000  Uiso   1.00
S857   S     0.08556   0.42763   0.59674   0.00000  Uiso   1.00
S858   S     0.24838   0.57182   0.40339   0.00000  Uiso   1.00
C859   C     0.50412   0.42143   0.49982   0.00000  Uiso   1.00
C860   C     0.51963   0.35832   0.54159   0.00000  Uiso   1.00
C861   C     0.49032   0.62293   0.50050   0.00000  Uiso   1.00
C862   C     0.50886   0.37708   0.49889   0.00000  Uiso   1.00
C863   C     0.46319   0.47081   0.35166   0.00000  Uiso   1.00
C864   C     0.53666   0.52927   0.64833   0.00000  Uiso   1.00
C865   C     0.46341   0.47065   0.63475   0.00000  Uiso   1.00
C866   C     0.53655   0.52932   0.36525   0.00000  Uiso   1.00
C867   C     0.65060   0.48053   0.43378   0.00000  Uiso   1.00
C868   C     0.34879   0.51753   0.56628   0.00000  Uiso   1.00
C869   C     0.50959   0.37004   0.41213   0.00000  Uiso   1.00
C870   C     0.49561   0.57856   0.50008   0.00000  Uiso   1.00
C871   C     0.48441   0.63118   0.58664   0.00000  Uiso   1.00
C872   C     0.44966   0.61608   0.41491   0.00000  Uiso   1.00
C873   C     0.55771   0.38299   0.58144   0.00000  Uiso   1.00
C874   C     0.40145   0.50036   0.48780   0.00000  Uiso   1.00
C875   C     0.59838   0.49919   0.51216   0.00000  Uiso   1.00
C876   C     0.34534   0.49629   0.48140   0.00000  Uiso   1.00
C877   C     0.65423   0.50223   0.51859   0.00000  Uiso   1.00
C878   C     0.49694   0.35203   0.45629   0.00000  Uiso   1.00
C879   C     0.50164   0.64821   0.54307   0.00000  Uiso   1.00
C880   C     0.48194   0.64167   0.45725   0.00000  Uiso   1.00
Cu881  Cu    0.50000   0.50001   0.54689   0.00000  Uiso   1.00
Cu882  Cu    0.50000   0.49999   0.45311   0.00000  Uiso   1.00
H883   H     0.65785   0.49894   0.40417   0.00000  Uiso   1.00
H884   H     0.61421   0.60166   0.47241   0.00000  Uiso   1.00
H885   H     0.34344   0.49799   0.59540   0.00000  Uiso   1.00
H886   H     0.49038   0.39321   0.39575   0.00000  Uiso   1.00
H887   H     0.46622   0.59878   0.58799   0.00000  Uiso   1.00
H888   H     0.42741   0.58503   0.41857   0.00000  Uiso   1.00
H889   H     0.57192   0.41636   0.58031   0.00000  Uiso   1.00
H890   H     0.36467   0.37211   0.35319   0.00000  Uiso   1.00
H891   H     0.57346   0.62479   0.63959   0.00000  Uiso   1.00
H892   H     0.38701   0.39787   0.52758   0.00000  Uiso   1.00
N893   N     0.50001   0.50001   0.61736   0.00000  Uiso   1.00
N894   N     0.49999   0.49999   0.38264   0.00000  Uiso   1.00
O895   O     0.50000   0.43989   0.53958   0.00000  Uiso   1.00
O896   O     0.37618   0.55260   0.57328   0.00000  Uiso   1.00
O897   O     0.54260   0.35852   0.39333   0.00000  Uiso   1.00
O898   O     0.48655   0.65393   0.62134   0.00000  Uiso   1.00
O899   O     0.44522   0.62962   0.37599   0.00000  Uiso   1.00
O900   O     0.57759   0.36595   0.61444   0.00000  Uiso   1.00
O901   O     0.41153   0.42913   0.42237   0.00000  Uiso   1.00
O902   O     0.36122   0.45204   0.35514   0.00000  Uiso   1.00
O903   O     0.39993   0.38593   0.34836   0.00000  Uiso   1.00
O904   O     0.63799   0.54577   0.64360   0.00000  Uiso   1.00
O905   O     0.58837   0.57100   0.57768   0.00000  Uiso   1.00
O906   O     0.50000   0.56011   0.46042   0.00000  Uiso   1.00
O907   O     0.60386   0.61321   0.65270   0.00000  Uiso   1.00
O908   O     0.43959   0.38894   0.60834   0.00000  Uiso   1.00
O909   O     0.36486   0.42215   0.60759   0.00000  Uiso   1.00
O910   O     0.40785   0.42626   0.53809   0.00000  Uiso   1.00
O911   O     0.63570   0.57590   0.39268   0.00000  Uiso   1.00
O912   O     0.56231   0.61099   0.39150   0.00000  Uiso   1.00
O913   O     0.59225   0.57363   0.46206   0.00000  Uiso   1.00
O914   O     0.50000   0.43988   0.46039   0.00000  Uiso   1.00
O915   O     0.50000   0.56012   0.53961   0.00000  Uiso   1.00
O916   O     0.42495   0.50000   0.53046   0.00000  Uiso   1.00
O917   O     0.57505   0.50000   0.46954   0.00000  Uiso   1.00
O918   O     0.42494   0.49999   0.45127   0.00000  Uiso   1.00
O919   O     0.57506   0.50001   0.54873   0.00000  Uiso   1.00
O920   O     0.62063   0.44648   0.42747   0.00000  Uiso   1.00
S921   S     0.40926   0.43529   0.37142   0.00000  Uiso   1.00
S922   S     0.59098   0.56412   0.62853   0.00000  Uiso   1.00
S923   S     0.41889   0.42763   0.59674   0.00000  Uiso   1.00
S924   S     0.58172   0.57182   0.40339   0.00000  Uiso   1.00
C925   C     0.83745   0.42143   0.49982   0.00000  Uiso   1.00
C926   C     0.85297   0.35832   0.54159   0.00000  Uiso   1.00
C927   C     0.82365   0.62293   0.50050   0.00000  Uiso   1.00
C928   C     0.84219   0.37708   0.49889   0.00000  Uiso   1.00
C929   C     0.79652   0.47081   0.35166   0.00000  Uiso   1.00
C930   C     0.86999   0.52927   0.64833   0.00000  Uiso   1.00
C931   C     0.79674   0.47065   0.63475   0.00000  Uiso   1.00
C932   C     0.86988   0.52932   0.36525   0.00000  Uiso   1.00
C933   C     0.98394   0.48053   0.43378   0.00000  Uiso   1.00
C934   C     0.68212   0.51753   0.56628   0.00000  Uiso   1.00
C935   C     0.84292   0.37004   0.41213   0.00000  Uiso   1.00
C936   C     0.82895   0.57856   0.50008   0.00000  Uiso   1.00
C937   C     0.81774   0.63118   0.58664   0.00000  Uiso   1.00
C938   C     0.78300   0.61608   0.41491   0.00000  Uiso   1.00
C939   C     0.89105   0.38299   0.58144   0.00000  Uiso   1.00
C940   C     0.73479   0.50036   0.48780   0.00000  Uiso   1.00
C941   C     0.93171   0.49919   0.51216   0.00000  Uiso   1.00
C942   C     0.67867   0.49629   0.48140   0.00000  Uiso   1.00
C943   C     0.98756   0.50223   0.51859   0.00000  Uiso   1.00
C944   C     0.83027   0.35203   0.45629   0.00000  Uiso   1.00
C945   C     0.83498   0.64821   0.54307   0.00000  Uiso   1.00
C946   C     0.81527   0.64167   0.45725   0.00000  Uiso   1.00
Cu947  Cu    0.83333   0.50001   0.54689   0.00000  Uiso   1.00
Cu948  Cu    0.83333   0.49999   0.45311   0.00000  Uiso   1.00
H949   H     0.99119   0.49894   0.40417   0.00000  Uiso   1.00
H950   H     0.94755   0.60166   0.47241   0.00000  Uiso   1.00
H951   H     0.67677   0.49799   0.59540   0.00000  Uiso   1.00
H952   H     0.82371   0.39321   0.39575   0.00000  Uiso   1.00
H953   H     0.79955   0.59878   0.58799   0.00000  Uiso   1.00
H954   H     0.76075   0.58503   0.41857   0.00000  Uiso   1.00
H955   H     0.90525   0.41636   0.58031   0.00000  Uiso   1.00
H956   H     0.69800   0.37211   0.35319   0.00000  Uiso   1.00
H957   H     0.90680   0.62479   0.63959   0.00000  Uiso   1.00
H958   H     0.72034   0.39787   0.52758   0.00000  Uiso   1.00
N959   N     0.83335   0.50001   0.61736   0.00000  Uiso   1.00
N960   N     0.83332   0.49999   0.38264   0.00000  Uiso   1.00
O961   O     0.83333   0.43989   0.53958   0.00000  Uiso   1.00
O962   O     0.70951   0.55260   0.57328   0.00000  Uiso   1.00
O963   O     0.87594   0.35852   0.39333   0.00000  Uiso   1.00
O964   O     0.81989   0.65393   0.62134   0.00000  Uiso   1.00
O965   O     0.77855   0.62962   0.37599   0.00000  Uiso   1.00
O966   O     0.91092   0.36595   0.61444   0.00000  Uiso   1.00
O967   O     0.74486   0.42913   0.42237   0.00000  Uiso   1.00
O968   O     0.69455   0.45204   0.35514   0.00000  Uiso   1.00
O969   O     0.73327   0.38593   0.34836   0.00000  Uiso   1.00
O970   O     0.97132   0.54577   0.64360   0.00000  Uiso   1.00
O971   O     0.92171   0.57100   0.57768   0.00000  Uiso   1.00
O972   O     0.83334   0.56011   0.46042   0.00000  Uiso   1.00
O973   O     0.93720   0.61321   0.65270   0.00000  Uiso   1.00
O974   O     0.77293   0.38894   0.60834   0.00000  Uiso   1.00
O975   O     0.69820   0.42215   0.60759   0.00000  Uiso   1.00
O976   O     0.74118   0.42626   0.53809   0.00000  Uiso   1.00
O977   O     0.96903   0.57590   0.39268   0.00000  Uiso   1.00
O978   O     0.89564   0.61099   0.39150   0.00000  Uiso   1.00
O979   O     0.92558   0.57363   0.46206   0.00000  Uiso   1.00
O980   O     0.83333   0.43988   0.46039   0.00000  Uiso   1.00
O981   O     0.83334   0.56012   0.53961   0.00000  Uiso   1.00
O982   O     0.75828   0.50000   0.53046   0.00000  Uiso   1.00
O983   O     0.90839   0.50000   0.46954   0.00000  Uiso   1.00
O984   O     0.75828   0.49999   0.45127   0.00000  Uiso   1.00
O985   O     0.90839   0.50001   0.54873   0.00000  Uiso   1.00
O986   O     0.95396   0.44648   0.42747   0.00000  Uiso   1.00
S987   S     0.74260   0.43529   0.37142   0.00000  Uiso   1.00
S988   S     0.92431   0.56412   0.62853   0.00000  Uiso   1.00
S989   S     0.75223   0.42763   0.59674   0.00000  Uiso   1.00
S990   S     0.91505   0.57182   0.40339   0.00000  Uiso   1.00
C991   C     0.17078   0.75477   0.49982   0.00000  Uiso   1.00
C992   C     0.18630   0.69165   0.54159   0.00000  Uiso   1.00
C993   C     0.15698   0.95626   0.50050   0.00000  Uiso   1.00
C994   C     0.17552   0.71041   0.49889   0.00000  Uiso   1.00
C995   C     0.12985   0.80414   0.35166   0.00000  Uiso   1.00
C996   C     0.20333   0.86260   0.64833   0.00000  Uiso   1.00
C997   C     0.13007   0.80398   0.63475   0.00000  Uiso   1.00
C998   C     0.20321   0.86266   0.36525   0.00000  Uiso   1.00
C999   C     0.31727   0.81386   0.43378   0.00000  Uiso   1.00
C1000  C     0.01546   0.85086   0.56628   0.00000  Uiso   1.00
C1001  C     0.17625   0.70338   0.41213   0.00000  Uiso   1.00
C1002  C     0.16228   0.91190   0.50008   0.00000  Uiso   1.00
C1003  C     0.15108   0.96451   0.58664   0.00000  Uiso   1.00
C1004  C     0.11633   0.94941   0.41491   0.00000  Uiso   1.00
C1005  C     0.22438   0.71632   0.58144   0.00000  Uiso   1.00
C1006  C     0.06812   0.83369   0.48780   0.00000  Uiso   1.00
C1007  C     0.26504   0.83252   0.51216   0.00000  Uiso   1.00
C1008  C     0.01200   0.82962   0.48140   0.00000  Uiso   1.00
C1009  C     0.32090   0.83556   0.51859   0.00000  Uiso   1.00
C1010  C     0.16361   0.68537   0.45629   0.00000  Uiso   1.00
C1011  C     0.16831   0.98155   0.54307   0.00000  Uiso   1.00
C1012  C     0.14860   0.97500   0.45725   0.00000  Uiso   1.00
Cu1013 Cu    0.16667   0.83334   0.54689   0.00000  Uiso   1.00
Cu1014 Cu    0.16667   0.83333   0.45311   0.00000  Uiso   1.00
H1015  H     0.32452   0.83227   0.40417   0.00000  Uiso   1.00
H1016  H     0.28088   0.93500   0.47241   0.00000  Uiso   1.00
H1017  H     0.01010   0.83132   0.59540   0.00000  Uiso   1.00
H1018  H     0.15704   0.72655   0.39575   0.00000  Uiso   1.00
H1019  H     0.13288   0.93211   0.58799   0.00000  Uiso   1.00
H1020  H     0.09408   0.91836   0.41857   0.00000  Uiso   1.00
H1021  H     0.23858   0.74969   0.58031   0.00000  Uiso   1.00
H1022  H     0.03134   0.70545   0.35319   0.00000  Uiso   1.00
H1023  H     0.24013   0.95813   0.63959   0.00000  Uiso   1.00
H1024  H     0.05367   0.73120   0.52758   0.00000  Uiso   1.00
N1025  N     0.16668   0.83334   0.61736   0.00000  Uiso   1.00
N1026  N     0.16665   0.83332   0.38264   0.00000  Uiso   1.00
O1027  O     0.16666   0.77322   0.53958   0.00000  Uiso   1.00
O1028  O     0.04284   0.88593   0.57328   0.00000  Uiso   1.00
O1029  O     0.20927   0.69186   0.39333   0.00000  Uiso   1.00
O1030  O     0.15322   0.98727   0.62134   0.00000  Uiso   1.00
O1031  O     0.11189   0.96295   0.37599   0.00000  Uiso   1.00
O1032  O     0.24426   0.69929   0.61444   0.00000  Uiso   1.00
O1033  O     0.07820   0.76246   0.42237   0.00000  Uiso   1.00
O1034  O     0.02788   0.78537   0.35514   0.00000  Uiso   1.00
O1035  O     0.06660   0.71926   0.34836   0.00000  Uiso   1.00
O1036  O     0.30465   0.87910   0.64360   0.00000  Uiso   1.00
O1037  O     0.25504   0.90433   0.57768   0.00000  Uiso   1.00
O1038  O     0.16667   0.89345   0.46042   0.00000  Uiso   1.00
O1039  O     0.27053   0.94654   0.65270   0.00000  Uiso   1.00
O1040  O     0.10626   0.72227   0.60834   0.00000  Uiso   1.00
O1041  O     0.03153   0.75548   0.60759   0.00000  Uiso   1.00
O1042  O     0.07452   0.75959   0.53809   0.00000  Uiso   1.00
O1043  O     0.30237   0.90924   0.39268   0.00000  Uiso   1.00
O1044  O     0.22897   0.94433   0.39150   0.00000  Uiso   1.00
O1045  O     0.25892   0.90696   0.46206   0.00000  Uiso   1.00
O1046  O     0.16666   0.77321   0.46039   0.00000  Uiso   1.00
O1047  O     0.16667   0.89346   0.53961   0.00000  Uiso   1.00
O1048  O     0.09161   0.83334   0.53046   0.00000  Uiso   1.00
O1049  O     0.24172   0.83333   0.46954   0.00000  Uiso   1.00
O1050  O     0.09161   0.83333   0.45127   0.00000  Uiso   1.00
O1051  O     0.24172   0.83334   0.54873   0.00000  Uiso   1.00
O1052  O     0.28730   0.77981   0.42747   0.00000  Uiso   1.00
S1053  S     0.07593   0.76862   0.37142   0.00000  Uiso   1.00
S1054  S     0.25765   0.89746   0.62853   0.00000  Uiso   1.00
S1055  S     0.08556   0.76096   0.59674   0.00000  Uiso   1.00
S1056  S     0.24838   0.90515   0.40339   0.00000  Uiso   1.00
C1057  C     0.50412   0.75477   0.49982   0.00000  Uiso   1.00
C1058  C     0.51963   0.69165   0.54159   0.00000  Uiso   1.00
C1059  C     0.49032   0.95626   0.50050   0.00000  Uiso   1.00
C1060  C     0.50886   0.71041   0.49889   0.00000  Uiso   1.00
C1061  C     0.46319   0.80414   0.35166   0.00000  Uiso   1.00
C1062  C     0.53666   0.86260   0.64833   0.00000  Uiso   1.00
C1063  C     0.46341   0.80398   0.63475   0.00000  Uiso   1.00
C1064  C     0.53655   0.86266   0.36525   0.00000  Uiso   1.00
C1065  C     0.65060   0.81386   0.43378   0.00000  Uiso   1.00
C1066  C     0.34879   0.85086   0.56628   0.00000  Uiso   1.00
C1067  C     0.50959   0.70338   0.41213   0.00000  Uiso   1.00
C1068  C     0.49561   0.91190   0.50008   0.00000  Uiso   1.00
C1069  C     0.48441   0.96451   0.58664   0.00000  Uiso   1.00
C1070  C     0.44966   0.94941   0.41491   0.00000  Uiso   1.00
C1071  C     0.55771   0.71632   0.58144   0.00000  Uiso   1.00
C1072  C     0.40145   0.83369   0.48780   0.00000  Uiso   1.00
C1073  C     0.59838   0.83252   0.51216   0.00000  Uiso   1.00
C1074  C     0.34534   0.82962   0.48140   0.00000  Uiso   1.00
C1075  C     0.65423   0.83556   0.51859   0.00000  Uiso   1.00
C1076  C     0.49694   0.68537   0.45629   0.00000  Uiso   1.00
C1077  C     0.50164   0.98155   0.54307   0.00000  Uiso   1.00
C1078  C     0.48194   0.97500   0.45725   0.00000  Uiso   1.00
Cu1079 Cu    0.50000   0.83334   0.54689   0.00000  Uiso   1.00
Cu1080 Cu    0.50000   0.83333   0.45311   0.00000  Uiso   1.00
H1081  H     0.65785   0.83227   0.40417   0.00000  Uiso   1.00
H1082  H     0.61421   0.93500   0.47241   0.00000  Uiso   1.00
H1083  H     0.34344   0.83132   0.59540   0.00000  Uiso   1.00
H1084  H     0.49038   0.72655   0.39575   0.00000  Uiso   1.00
H1085  H     0.46622   0.93211   0.58799   0.00000  Uiso   1.00
H1086  H     0.42741   0.91836   0.41857   0.00000  Uiso   1.00
H1087  H     0.57192   0.74969   0.58031   0.00000  Uiso   1.00
H1088  H     0.36467   0.70545   0.35319   0.00000  Uiso   1.00
H1089  H     0.57346   0.95813   0.63959   0.00000  Uiso   1.00
H1090  H     0.38701   0.73120   0.52758   0.00000  Uiso   1.00
N1091  N     0.50001   0.83334   0.61736   0.00000  Uiso   1.00
N1092  N     0.49999   0.83332   0.38264   0.00000  Uiso   1.00
O1093  O     0.50000   0.77322   0.53958   0.00000  Uiso   1.00
O1094  O     0.37618   0.88593   0.57328   0.00000  Uiso   1.00
O1095  O     0.54260   0.69186   0.39333   0.00000  Uiso   1.00
O1096  O     0.48655   0.98727   0.62134   0.00000  Uiso   1.00
O1097  O     0.44522   0.96295   0.37599   0.00000  Uiso   1.00
O1098  O     0.57759   0.69929   0.61444   0.00000  Uiso   1.00
O1099  O     0.41153   0.76246   0.42237   0.00000  Uiso   1.00
O1100  O     0.36122   0.78537   0.35514   0.00000  Uiso   1.00
O1101  O     0.39993   0.71926   0.34836   0.00000  Uiso   1.00
O1102  O     0.63799   0.87910   0.64360   0.00000  Uiso   1.00
O1103  O     0.58837   0.90433   0.57768   0.00000  Uiso   1.00
O1104  O     0.50000   0.89345   0.46042   0.00000  Uiso   1.00
O1105  O     0.60386   0.94654   0.65270   0.00000  Uiso   1.00
O1106  O     0.43959   0.72227   0.60834   0.00000  Uiso   1.00
O1107  O     0.36486   0.75548   0.60759   0.00000  Uiso   1.00
O1108  O     0.40785   0.75959   0.53809   0.00000  Uiso   1.00
O1109  O     0.63570   0.90924   0.39268   0.00000  Uiso   1.00
O1110  O     0.56231   0.94433   0.39150   0.00000  Uiso   1.00
O1111  O     0.59225   0.90696   0.46206   0.00000  Uiso   1.00
O1112  O     0.50000   0.77321   0.46039   0.00000  Uiso   1.00
O1113  O     0.50000   0.89346   0.53961   0.00000  Uiso   1.00
O1114  O     0.42495   0.83334   0.53046   0.00000  Uiso   1.00
O1115  O     0.57505   0.83333   0.46954   0.00000  Uiso   1.00
O1116  O     0.42494   0.83333   0.45127   0.00000  Uiso   1.00
O1117  O     0.57506   0.83334   0.54873   0.00000  Uiso   1.00
O1118  O     0.62063   0.77981   0.42747   0.00000  Uiso   1.00
S1119  S     0.40926   0.76862   0.37142   0.00000  Uiso   1.00
S1120  S     0.59098   0.89746   0.62853   0.00000  Uiso   1.00
S1121  S     0.41889   0.76096   0.59674   0.00000  Uiso   1.00
S1122  S     0.58172   0.90515   0.40339   0.00000  Uiso   1.00
C1123  C     0.83745   0.75477   0.49982   0.00000  Uiso   1.00
C1124  C     0.85297   0.69165   0.54159   0.00000  Uiso   1.00
C1125  C     0.82365   0.95626   0.50050   0.00000  Uiso   1.00
C1126  C     0.84219   0.71041   0.49889   0.00000  Uiso   1.00
C1127  C     0.79652   0.80414   0.35166   0.00000  Uiso   1.00
C1128  C     0.86999   0.86260   0.64833   0.00000  Uiso   1.00
C1129  C     0.79674   0.80398   0.63475   0.00000  Uiso   1.00
C1130  C     0.86988   0.86266   0.36525   0.00000  Uiso   1.00
C1131  C     0.98394   0.81386   0.43378   0.00000  Uiso   1.00
C1132  C     0.68212   0.85086   0.56628   0.00000  Uiso   1.00
C1133  C     0.84292   0.70338   0.41213   0.00000  Uiso   1.00
C1134  C     0.82895   0.91190   0.50008   0.00000  Uiso   1.00
C1135  C     0.81774   0.96451   0.58664   0.00000  Uiso   1.00
C1136  C     0.78300   0.94941   0.41491   0.00000  Uiso   1.00
C1137  C     0.89105   0.71632   0.58144   0.00000  Uiso   1.00
C1138  C     0.73479   0.83369   0.48780   0.00000  Uiso   1.00
C1139  C     0.93171   0.83252   0.51216   0.00000  Uiso   1.00
C1140  C     0.67867   0.82962   0.48140   0.00000  Uiso   1.00
C1141  C     0.98756   0.83556   0.51859   0.00000  Uiso   1.00
C1142  C     0.83027   0.68537   0.45629   0.00000  Uiso   1.00
C1143  C     0.83498   0.98155   0.54307   0.00000  Uiso   1.00
C1144  C     0.81527   0.97500   0.45725   0.00000  Uiso   1.00
Cu1145 Cu    0.83333   0.83334   0.54689   0.00000  Uiso   1.00
Cu1146 Cu    0.83333   0.83333   0.45311   0.00000  Uiso   1.00
H1147  H     0.99119   0.83227   0.40417   0.00000  Uiso   1.00
H1148  H     0.94755   0.93500   0.47241   0.00000  Uiso   1.00
H1149  H     0.67677   0.83132   0.59540   0.00000  Uiso   1.00
H1150  H     0.82371   0.72655   0.39575   0.00000  Uiso   1.00
H1151  H     0.79955   0.93211   0.58799   0.00000  Uiso   1.00
H1152  H     0.76075   0.91836   0.41857   0.00000  Uiso   1.00
H1153  H     0.90525   0.74969   0.58031   0.00000  Uiso   1.00
H1154  H     0.69800   0.70545   0.35319   0.00000  Uiso   1.00
H1155  H     0.90680   0.95813   0.63959   0.00000  Uiso   1.00
H1156  H     0.72034   0.73120   0.52758   0.00000  Uiso   1.00
N1157  N     0.83335   0.83334   0.61736   0.00000  Uiso   1.00
N1158  N     0.83332   0.83332   0.38264   0.00000  Uiso   1.00
O1159  O     0.83333   0.77322   0.53958   0.00000  Uiso   1.00
O1160  O     0.70951   0.88593   0.57328   0.00000  Uiso   1.00
O1161  O     0.87594   0.69186   0.39333   0.00000  Uiso   1.00
O1162  O     0.81989   0.98727   0.62134   0.00000  Uiso   1.00
O1163  O     0.77855   0.96295   0.37599   0.00000  Uiso   1.00
O1164  O     0.91092   0.69929   0.61444   0.00000  Uiso   1.00
O1165  O     0.74486   0.76246   0.42237   0.00000  Uiso   1.00
O1166  O     0.69455   0.78537   0.35514   0.00000  Uiso   1.00
O1167  O     0.73327   0.71926   0.34836   0.00000  Uiso   1.00
O1168  O     0.97132   0.87910   0.64360   0.00000  Uiso   1.00
O1169  O     0.92171   0.90433   0.57768   0.00000  Uiso   1.00
O1170  O     0.83334   0.89345   0.46042   0.00000  Uiso   1.00
O1171  O     0.93720   0.94654   0.65270   0.00000  Uiso   1.00
O1172  O     0.77293   0.72227   0.60834   0.00000  Uiso   1.00
O1173  O     0.69820   0.75548   0.60759   0.00000  Uiso   1.00
O1174  O     0.74118   0.75959   0.53809   0.00000  Uiso   1.00
O1175  O     0.96903   0.90924   0.39268   0.00000  Uiso   1.00
O1176  O     0.89564   0.94433   0.39150   0.00000  Uiso   1.00
O1177  O     0.92558   0.90696   0.46206   0.00000  Uiso   1.00
O1178  O     0.83333   0.77321   0.46039   0.00000  Uiso   1.00
O1179  O     0.83334   0.89346   0.53961   0.00000  Uiso   1.00
O1180  O     0.75828   0.83334   0.53046   0.00000  Uiso   1.00
O1181  O     0.90839   0.83333   0.46954   0.00000  Uiso   1.00
O1182  O     0.75828   0.83333   0.45127   0.00000  Uiso   1.00
O1183  O     0.90839   0.83334   0.54873   0.00000  Uiso   1.00
O1184  O     0.95396   0.77981   0.42747   0.00000  Uiso   1.00
S1185  S     0.74260   0.76862   0.37142   0.00000  Uiso   1.00
S1186  S     0.92431   0.89746   0.62853   0.00000  Uiso   1.00
S1187  S     0.75223   0.76096   0.59674   0.00000  Uiso   1.00
S1188  S     0.91505   0.90515   0.40339   0.00000  Uiso   1.00
C1189  C     0.17078   0.08810   0.83315   0.00000  Uiso   1.00
C1190  C     0.18630   0.02499   0.87492   0.00000  Uiso   1.00
C1191  C     0.15698   0.28959   0.83383   0.00000  Uiso   1.00
C1192  C     0.17552   0.04375   0.83222   0.00000  Uiso   1.00
C1193  C     0.12985   0.13748   0.68499   0.00000  Uiso   1.00
C1194  C     0.20333   0.19593   0.98167   0.00000  Uiso   1.00
C1195  C     0.13007   0.13732   0.96809   0.00000  Uiso   1.00
C1196  C     0.20321   0.19599   0.69858   0.00000  Uiso   1.00
C1197  C     0.31727   0.14719   0.76712   0.00000  Uiso   1.00
C1198  C     0.01546   0.18419   0.89962   0.00000  Uiso   1.00
C1199  C     0.17625   0.03671   0.74547   0.00000  Uiso   1.00
C1200  C     0.16228   0.24523   0.83342   0.00000  Uiso   1.00
C1201  C     0.15108   0.29785   0.91997   0.00000  Uiso   1.00
C1202  C     0.11633   0.28275   0.74825   0.00000  Uiso   1.00
C1203  C     0.22438   0.04966   0.91477   0.00000  Uiso   1.00
C1204  C     0.06812   0.16703   0.82114   0.00000  Uiso   1.00
C1205  C     0.26504   0.16585   0.84549   0.00000  Uiso   1.00
C1206  C     0.01200   0.16295   0.81473   0.00000  Uiso   1.00
C1207  C     0.32090   0.16890   0.85193   0.00000  Uiso   1.00
C1208  C     0.16361   0.01870   0.78963   0.00000  Uiso   1.00
C1209  C     0.16831   0.31488   0.87641   0.00000  Uiso   1.00
C1210  C     0.14860   0.30834   0.79059   0.00000  Uiso   1.00
Cu1211 Cu    0.16667   0.16667   0.88022   0.00000  Uiso   1.00
Cu1212 Cu    0.16667   0.16666   0.78645   0.00000  Uiso   1.00
H1213  H     0.32452   0.16561   0.73750   0.00000  Uiso   1.00
H1214  H     0.28088   0.26833   0.80574   0.00000  Uiso   1.00
H1215  H     0.01010   0.16466   0.92873   0.00000  Uiso   1.00
H1216  H     0.15704   0.05988   0.72908   0.00000  Uiso   1.00
H1217  H     0.13288   0.26544   0.92132   0.00000  Uiso   1.00
H1218  H     0.09408   0.25169   0.75191   0.00000  Uiso   1.00
H1219  H     0.23858   0.08302   0.91365   0.00000  Uiso   1.00
H1220  H     0.03134   0.03878   0.68652   0.00000  Uiso   1.00
H1221  H     0.24013   0.29146   0.97292   0.00000  Uiso   1.00
H1222  H     0.05367   0.06454   0.86091   0.00000  Uiso   1.00
N1223  N     0.16668   0.16668   0.95069   0.00000  Uiso   1.00
N1224  N     0.16665   0.16666   0.71597   0.00000  Uiso   1.00
O1225  O     0.16666   0.10655   0.87291   0.00000  Uiso   1.00
O1226  O     0.04284   0.21927   0.90662   0.00000  Uiso   1.00
O1227  O     0.20927   0.02519   0.72666   0.00000  Uiso   1.00
O1228  O     0.15322   0.32060   0.95467   0.00000  Uiso   1.00
O1229  O     0.11189   0.29629   0.70933   0.00000  Uiso   1.00
O1230  O     0.24426   0.03262   0.94778   0.00000  Uiso   1.00
O1231  O     0.07820   0.09580   0.75570   0.00000  Uiso   1.00
O1232  O     0.02788   0.11871   0.68848   0.00000  Uiso   1.00
O1233  O     0.06660   0.05260   0.68169   0.00000  Uiso   1.00
O1234  O     0.30465   0.21244   0.97693   0.00000  Uiso   1.00
O1235  O     0.25504   0.23767   0.91102   0.00000  Uiso   1.00
O1236  O     0.16667   0.22678   0.79375   0.00000  Uiso   1.00
O1237  O     0.27053   0.27988   0.98603   0.00000  Uiso   1.00
O1238  O     0.10626   0.05561   0.94167   0.00000  Uiso   1.00
O1239  O     0.03153   0.08881   0.94093   0.00000  Uiso   1.00
O1240  O     0.07452   0.09293   0.87142   0.00000  Uiso   1.00
O1241  O     0.30237   0.24257   0.72601   0.00000  Uiso   1.00
O1242  O     0.22897   0.27766   0.72484   0.00000  Uiso   1.00
O1243  O     0.25892   0.24030   0.79539   0.00000  Uiso   1.00
O1244  O     0.16666   0.10654   0.79372   0.00000  Uiso   1.00
O1245  O     0.16667   0.22679   0.87294   0.00000  Uiso   1.00
O1246  O     0.09161   0.16667   0.86379   0.00000  Uiso   1.00
O1247  O     0.24172   0.16666   0.80288   0.00000  Uiso   1.00
O1248  O     0.09161   0.16666   0.78460   0.00000  Uiso   1.00
O1249  O     0.24172   0.16667   0.88207   0.00000  Uiso   1.00
O1250  O     0.28730   0.11314   0.76080   0.00000  Uiso   1.00
S1251  S     0.07593   0.10196   0.70475   0.00000  Uiso   1.00
S1252  S     0.25765   0.23079   0.96186   0.00000  Uiso   1.00
S1253  S     0.08556   0.09429   0.93007   0.00000  Uiso   1.00
S1254  S     0.24838   0.23848   0.73672   0.00000  Uiso   1.00
C1255  C     0.50412   0.08810   0.83315   0.00000  Uiso   1.00
C1256  C     0.51963   0.02499   0.87492   0.00000  Uiso   1.00
C1257  C     0.49032   0.28959   0.83383   0.00000  Uiso   1.00
C1258  C     0.50886   0.04375   0.83222   0.00000  Uiso   1.00
C1259  C     0.46319   0.13748   0.68499   0.00000  Uiso   1.00
C1260  C     0.53666   0.19593   0.98167   0.00000  Uiso   1.00
C1261  C     0.46341   0.13732   0.96809   0.00000  Uiso   1.00
C1262  C     0.53655   0.19599   0.69858   0.00000  Uiso   1.00
C1263  C     0.65060   0.14719   0.76712   0.00000  Uiso   1.00
C1264  C     0.34879   0.18419   0.89962   0.00000  Uiso   1.00
C1265  C     0.50959   0.03671   0.74547   0.00000  Uiso   1.00
C1266  C     0.49561   0.24523   0.83342   0.00000  Uiso   1.00
C1267  C     0.48441   0.29785   0.91997   0.00000  Uiso   1.00
C1268  C     0.44966   0.28275   0.74825   0.00000  Uiso   1.00
C1269  C     0.55771   0.04966   0.91477   0.00000  Uiso   1.00
C1270  C     0.40145   0.16703   0.82114   0.00000  Uiso   1.00
C1271  C     0.59838   0.16585   0.84549   0.00000  Uiso   1.00
C1272  C     0.34534   0.16295   0.81473   0.00000  Uiso   1.00
C1273  C     0.65423   0.16890   0.85193   0.00000  Uiso   1.00
C1274  C     0.49694   0.01870   0.78963   0.00000  Uiso   1.00
C1275  C     0.50164   0.31488   0.87641   0.00000  Uiso   1.00
C1276  C     0.48194   0.30834   0.79059   0.00000  Uiso   1.00
Cu1277 Cu    0.50000   0.16667   0.88022   0.00000  Uiso   1.00
Cu1278 Cu    0.50000   0.16666   0.78645   0.00000  Uiso   1.00
H1279  H     0.65785   0.16561   0.73750   0.00000  Uiso   1.00
H1280  H     0.61421   0.26833   0.80574   0.00000  Uiso   1.00
H1281  H     0.34344   0.16466   0.92873   0.00000  Uiso   1.00
H1282  H     0.49038   0.05988   0.72908   0.00000  Uiso   1.00
H1283  H     0.46622   0.26544   0.92132   0.00000  Uiso   1.00
H1284  H     0.42741   0.25169   0.75191   0.00000  Uiso   1.00
H1285  H     0.57192   0.08302   0.91365   0.00000  Uiso   1.00
H1286  H     0.36467   0.03878   0.68652   0.00000  Uiso   1.00
H1287  H     0.57346   0.29146   0.97292   0.00000  Uiso   1.00
H1288  H     0.38701   0.06454   0.86091   0.00000  Uiso   1.00
N1289  N     0.50001   0.16668   0.95069   0.00000  Uiso   1.00
N1290  N     0.49999   0.16666   0.71597   0.00000  Uiso   1.00
O1291  O     0.50000   0.10655   0.87291   0.00000  Uiso   1.00
O1292  O     0.37618   0.21927   0.90662   0.00000  Uiso   1.00
O1293  O     0.54260   0.02519   0.72666   0.00000  Uiso   1.00
O1294  O     0.48655   0.32060   0.95467   0.00000  Uiso   1.00
O1295  O     0.44522   0.29629   0.70933   0.00000  Uiso   1.00
O1296  O     0.57759   0.03262   0.94778   0.00000  Uiso   1.00
O1297  O     0.41153   0.09580   0.75570   0.00000  Uiso   1.00
O1298  O     0.36122   0.11871   0.68848   0.00000  Uiso   1.00
O1299  O     0.39993   0.05260   0.68169   0.00000  Uiso   1.00
O1300  O     0.63799   0.21244   0.97693   0.00000  Uiso   1.00
O1301  O     0.58837   0.23767   0.91102   0.00000  Uiso   1.00
O1302  O     0.50000   0.22678   0.79375   0.00000  Uiso   1.00
O1303  O     0.60386   0.27988   0.98603   0.00000  Uiso   1.00
O1304  O     0.43959   0.05561   0.94167   0.00000  Uiso   1.00
O1305  O     0.36486   0.08881   0.94093   0.00000  Uiso   1.00
O1306  O     0.40785   0.09293   0.87142   0.00000  Uiso   1.00
O1307  O     0.63570   0.24257   0.72601   0.00000  Uiso   1.00
O1308  O     0.56231   0.27766   0.72484   0.00000  Uiso   1.00
O1309  O     0.59225   0.24030   0.79539   0.00000  Uiso   1.00
O1310  O     0.50000   0.10654   0.79372   0.00000  Uiso   1.00
O1311  O     0.50000   0.22679   0.87294   0.00000  Uiso   1.00
O1312  O     0.42495   0.16667   0.86379   0.00000  Uiso   1.00
O1313  O     0.57505   0.16666   0.80288   0.00000  Uiso   1.00
O1314  O     0.42494   0.16666   0.78460   0.00000  Uiso   1.00
O1315  O     0.57506   0.16667   0.88207   0.00000  Uiso   1.00
O1316  O     0.62063   0.11314   0.76080   0.00000  Uiso   1.00
S1317  S     0.40926   0.10196   0.70475   0.00000  Uiso   1.00
S1318  S     0.59098   0.23079   0.96186   0.00000  Uiso   1.00
S1319  S     0.41889   0.09429   0.93007   0.00000  Uiso   1.00
S1320  S     0.58172   0.23848   0.73672   0.00000  Uiso   1.00
C1321  C     0.83745   0.08810   0.83315   0.00000  Uiso   1.00
C1322  C     0.85297   0.02499   0.87492   0.00000  Uiso   1.00
C1323  C     0.82365   0.28959   0.83383   0.00000  Uiso   1.00
C1324  C     0.84219   0.04375   0.83222   0.00000  Uiso   1.00
C1325  C     0.79652   0.13748   0.68499   0.00000  Uiso   1.00
C1326  C     0.86999   0.19593   0.98167   0.00000  Uiso   1.00
C1327  C     0.79674   0.13732   0.96809   0.00000  Uiso   1.00
C1328  C     0.86988   0.19599   0.69858   0.00000  Uiso   1.00
C1329  C     0.98394   0.14719   0.76712   0.00000  Uiso   1.00
C1330  C     0.68212   0.18419   0.89962   0.00000  Uiso   1.00
C1331  C     0.84292   0.03671   0.74547   0.00000  Uiso   1.00
C1332  C     0.82895   0.24523   0.83342   0.00000  Uiso   1.00
C1333  C     0.81774   0.29785   0.91997   0.00000  Uiso   1.00
C1334  C     0.78300   0.28275   0.74825   0.00000  Uiso   1.00
C1335  C     0.89105   0.04966   0.91477   0.00000  Uiso   1.00
C1336  C     0.73479   0.16703   0.82114   0.00000  Uiso   1.00
C1337  C     0.93171   0.16585   0.84549   0.00000  Uiso   1.00
C1338  C     0.67867   0.16295   0.81473   0.00000  Uiso   1.00
C1339  C     0.98756   0.16890   0.85193   0.00000  Uiso   1.00
C1340  C     0.83027   0.01870   0.78963   0.00000  Uiso   1.00
C1341  C     0.83498   0.31488   0.87641   0.00000  Uiso   1.00
C1342  C     0.81527   0.30834   0.79059   0.00000  Uiso   1.00
Cu1343 Cu    0.83333   0.16667   0.88022   0.00000  Uiso   1.00
Cu1344 Cu    0.83333   0.16666   0.78645   0.00000  Uiso   1.00
H1345  H     0.99119   0.16561   0.73750   0.00000  Uiso   1.00
H1346  H     0.94755   0.26833   0.80574   0.00000  Uiso   1.00
H1347  H     0.67677   0.16466   0.92873   0.00000  Uiso   1.00
H1348  H     0.82371   0.05988   0.72908   0.00000  Uiso   1.00
H1349  H     0.79955   0.26544   0.92132   0.00000  Uiso   1.00
H1350  H     0.76075   0.25169   0.75191   0.00000  Uiso   1.00
H1351  H     0.90525   0.08302   0.91365   0.00000  Uiso   1.00
H1352  H     0.69800   0.03878   0.68652   0.00000  Uiso   1.00
H1353  H     0.90680   0.29146   0.97292   0.00000  Uiso   1.00
H1354  H     0.72034   0.06454   0.86091   0.00000  Uiso   1.00
N1355  N     0.83335   0.16668   0.95069   0.00000  Uiso   1.00
N1356  N     0.83332   0.16666   0.71597   0.00000  Uiso   1.00
O1357  O     0.83333   0.10655   0.87291   0.00000  Uiso   1.00
O1358  O     0.70951   0.21927   0.90662   0.00000  Uiso   1.00
O1359  O     0.87594   0.02519   0.72666   0.00000  Uiso   1.00
O1360  O     0.81989   0.32060   0.95467   0.00000  Uiso   1.00
O1361  O     0.77855   0.29629   0.70933   0.00000  Uiso   1.00
O1362  O     0.91092   0.03262   0.94778   0.00000  Uiso   1.00
O1363  O     0.74486   0.09580   0.75570   0.00000  Uiso   1.00
O1364  O     0.69455   0.11871   0.68848   0.00000  Uiso   1.00
O1365  O     0.73327   0.05260   0.68169   0.00000  Uiso   1.00
O1366  O     0.97132   0.21244   0.97693   0.00000  Uiso   1.00
O1367  O     0.92171   0.23767   0.91102   0.00000  Uiso   1.00
O1368  O     0.83334   0.22678   0.79375   0.00000  Uiso   1.00
O1369  O     0.93720   0.27988   0.98603   0.00000  Uiso   1.00
O1370  O     0.77293   0.05561   0.94167   0.00000  Uiso   1.00
O1371  O     0.69820   0.08881   0.94093   0.00000  Uiso   1.00
O1372  O     0.74118   0.09293   0.87142   0.00000  Uiso   1.00
O1373  O     0.96903   0.24257   0.72601   0.00000  Uiso   1.00
O1374  O     0.89564   0.27766   0.72484   0.00000  Uiso   1.00
O1375  O     0.92558   0.24030   0.79539   0.00000  Uiso   1.00
O1376  O     0.83333   0.10654   0.79372   0.00000  Uiso   1.00
O1377  O     0.83334   0.22679   0.87294   0.00000  Uiso   1.00
O1378  O     0.75828   0.16667   0.86379   0.00000  Uiso   1.00
O1379  O     0.90839   0.16666   0.80288   0.00000  Uiso   1.00
O1380  O     0.75828   0.16666   0.78460   0.00000  Uiso   1.00
O1381  O     0.90839   0.16667   0.88207   0.00000  Uiso   1.00
O1382  O     0.95396   0.11314   0.76080   0.00000  Uiso   1.00
S1383  S     0.74260   0.10196   0.70475   0.00000  Uiso   1.00
S1384  S     0.92431   0.23079   0.96186   0.00000  Uiso   1.00
S1385  S     0.75223   0.09429   0.93007   0.00000  Uiso   1.00
S1386  S     0.91505   0.23848   0.73672   0.00000  Uiso   1.00
C1387  C     0.17078   0.42143   0.83315   0.00000  Uiso   1.00
C1388  C     0.18630   0.35832   0.87492   0.00000  Uiso   1.00
C1389  C     0.15698   0.62293   0.83383   0.00000  Uiso   1.00
C1390  C     0.17552   0.37708   0.83222   0.00000  Uiso   1.00
C1391  C     0.12985   0.47081   0.68499   0.00000  Uiso   1.00
C1392  C     0.20333   0.52927   0.98167   0.00000  Uiso   1.00
C1393  C     0.13007   0.47065   0.96809   0.00000  Uiso   1.00
C1394  C     0.20321   0.52932   0.69858   0.00000  Uiso   1.00
C1395  C     0.31727   0.48053   0.76712   0.00000  Uiso   1.00
C1396  C     0.01546   0.51753   0.89962   0.00000  Uiso   1.00
C1397  C     0.17625   0.37004   0.74547   0.00000  Uiso   1.00
C1398  C     0.16228   0.57856   0.83342   0.00000  Uiso   1.00
C1399  C     0.15108   0.63118   0.91997   0.00000  Uiso   1.00
C1400  C     0.11633   0.61608   0.74825   0.00000  Uiso   1.00
C1401  C     0.22438   0.38299   0.91477   0.00000  Uiso   1.00
C1402  C     0.06812   0.50036   0.82114   0.00000  Uiso   1.00
C1403  C     0.26504   0.49919   0.84549   0.00000  Uiso   1.00
C1404  C     0.01200   0.49629   0.81473   0.00000  Uiso   1.00
C1405  C     0.32090   0.50223   0.85193   0.00000  Uiso   1.00
C1406  C     0.16361   0.35203   0.78963   0.00000  Uiso   1.00
C1407  C     0.16831   0.64821   0.87641   0.00000  Uiso   1.00
C1408  C     0.14860   0.64167   0.79059   0.00000  Uiso   1.00
Cu1409 Cu    0.16667   0.50001   0.88022   0.00000  Uiso   1.00
Cu1410 Cu    0.16667   0.49999   0.78645   0.00000  Uiso   1.00
H1411  H     0.32452   0.49894   0.73750   0.00000  Uiso   1.00
H1412  H     0.28088   0.60166   0.80574   0.00000  Uiso   1.00
H1413  H     0.01010   0.49799   0.92873   0.00000  Uiso   1.00
H1414  H     0.15704   0.39321   0.72908   0.00000  Uiso   1.00
H1415  H     0.13288   0.59878   0.92132   0.00000  Uiso   1.00
H1416  H     0.09408   0.58503   0.75191   0.00000  Uiso   1.00
H1417  H     0.23858   0.41636   0.91365   0.00000  Uiso   1.00
H1418  H     0.03134   0.37211   0.68652   0.00000  Uiso   1.00
H1419  H     0.24013   0.62479   0.97292   0.00000  Uiso   1.00
H1420  H     0.05367   0.39787   0.86091   0.00000  Uiso   1.00
N1421  N     0.16668   0.50001   0.95069   0.00000  Uiso   1.00
N1422  N     0.16665   0.49999   0.71597   0.00000  Uiso   1.00
O1423  O     0.16666   0.43989   0.87291   0.00000  Uiso   1.00
O1424  O     0.04284   0.55260   0.90662   0.00000  Uiso   1.00
O1425  O     0.20927   0.35852   0.72666   0.00000  Uiso   1.00
O1426  O     0.15322   0.65393   0.95467   0.00000  Uiso   1.00
O1427  O     0.11189   0.62962   0.70933   0.00000  Uiso   1.00
O1428  O     0.24426   0.36595   0.94778   0.00000  Uiso   1.00
O1429  O     0.07820   0.42913   0.75570   0.00000  Uiso   1.00
O1430  O     0.02788   0.45204   0.68848   0.00000  Uiso   1.00
O1431  O     0.06660   0.38593   0.68169   0.00000  Uiso   1.00
O1432  O     0.30465   0.54577   0.97693   0.00000  Uiso   1.00
O1433  O     0.25504   0.57100   0.91102   0.00000  Uiso   1.00
O1434  O     0.16667   0.56011   0.79375   0.00000  Uiso   1.00
O1435  O     0.27053   0.61321   0.98603   0.00000  Uiso   1.00
O1436  O     0.10626   0.38894   0.94167   0.00000  Uiso   1.00
O1437  O     0.03153   0.42215   0.94093   0.00000  Uiso   1.00
O1438  O     0.07452   0.42626   0.87142   0.00000  Uiso   1.00
O1439  O     0.30237   0.57590   0.72601   0.00000  Uiso   1.00
O1440  O     0.22897   0.61099   0.72484   0.00000  Uiso   1.00
O1441  O     0.25892   0.57363   0.79539   0.00000  Uiso   1.00
O1442  O     0.16666   0.43988   0.79372   0.00000  Uiso   1.00
O1443  O     0.16667   0.56012   0.87294   0.00000  Uiso   1.00
O1444  O     0.09161   0.50000   0.86379   0.00000  Uiso   1.00
O1445  O     0.24172   0.50000   0.80288   0.00000  Uiso   1.00
O1446  O     0.09161   0.49999   0.78460   0.00000  Uiso   1.00
O1447  O     0.24172   0.50001   0.88207   0.00000  Uiso   1.00
O1448  O     0.28730   0.44648   0.76080   0.00000  Uiso   1.00
S1449  S     0.07593   0.43529   0.70475   0.00000  Uiso   1.00
S1450  S     0.25765   0.56412   0.96186   0.00000  Uiso   1.00
S1451  S     0.08556   0.42763   0.93007   0.00000  Uiso   1.00
S1452  S     0.24838   0.57182   0.73672   0.00000  Uiso   1.00
C1453  C     0.50412   0.42143   0.83315   0.00000  Uiso   1.00
C1454  C     0.51963   0.35832   0.87492   0.00000  Uiso   1.00
C1455  C     0.49032   0.62293   0.83383   0.00000  Uiso   1.00
C1456  C     0.50886   0.37708   0.83222   0.00000  Uiso   1.00
C1457  C     0.46319   0.47081   0.68499   0.00000  Uiso   1.00
C1458  C     0.53666   0.52927   0.98167   0.00000  Uiso   1.00
C1459  C     0.46341   0.47065   0.96809   0.00000  Uiso   1.00
C1460  C     0.53655   0.52932   0.69858   0.00000  Uiso   1.00
C1461  C     0.65060   0.48053   0.76712   0.00000  Uiso   1.00
C1462  C     0.34879   0.51753   0.89962   0.00000  Uiso   1.00
C1463  C     0.50959   0.37004   0.74547   0.00000  Uiso   1.00
C1464  C     0.49561   0.57856   0.83342   0.00000  Uiso   1.00
C1465  C     0.48441   0.63118   0.91997   0.00000  Uiso   1.00
C1466  C     0.44966   0.61608   0.74825   0.00000  Uiso   1.00
C1467  C     0.55771   0.38299   0.91477   0.00000  Uiso   1.00
C1468  C     0.40145   0.50036   0.82114   0.00000  Uiso   1.00
C1469  C     0.59838   0.49919   0.84549   0.00000  Uiso   1.00
C1470  C     0.34534   0.49629   0.81473   0.00000  Uiso   1.00
C1471  C     0.65423   0.50223   0.85193   0.00000  Uiso   1.00
C1472  C     0.49694   0.35203   0.78963   0.00000  Uiso   1.00
C1473  C     0.50164   0.64821   0.87641   0.00000  Uiso   1.00
C1474  C     0.48194   0.64167   0.79059   0.00000  Uiso   1.00
Cu1475 Cu    0.50000   0.50001   0.88022   0.00000  Uiso   1.00
Cu1476 Cu    0.50000   0.49999   0.78645   0.00000  Uiso   1.00
H1477  H     0.65785   0.49894   0.73750   0.00000  Uiso   1.00
H1478  H     0.61421   0.60166   0.80574   0.00000  Uiso   1.00
H1479  H     0.34344   0.49799   0.92873   0.00000  Uiso   1.00
H1480  H     0.49038   0.39321   0.72908   0.00000  Uiso   1.00
H1481  H     0.46622   0.59878   0.92132   0.00000  Uiso   1.00
H1482  H     0.42741   0.58503   0.75191   0.00000  Uiso   1.00
H1483  H     0.57192   0.41636   0.91365   0.00000  Uiso   1.00
H1484  H     0.36467   0.37211   0.68652   0.00000  Uiso   1.00
H1485  H     0.57346   0.62479   0.97292   0.00000  Uiso   1.00
H1486  H     0.38701   0.39787   0.86091   0.00000  Uiso   1.00
N1487  N     0.50001   0.50001   0.95069   0.00000  Uiso   1.00
N1488  N     0.49999   0.49999   0.71597   0.00000  Uiso   1.00
O1489  O     0.50000   0.43989   0.87291   0.00000  Uiso   1.00
O1490  O     0.37618   0.55260   0.90662   0.00000  Uiso   1.00
O1491  O     0.54260   0.35852   0.72666   0.00000  Uiso   1.00
O1492  O     0.48655   0.65393   0.95467   0.00000  Uiso   1.00
O1493  O     0.44522   0.62962   0.70933   0.00000  Uiso   1.00
O1494  O     0.57759   0.36595   0.94778   0.00000  Uiso   1.00
O1495  O     0.41153   0.42913   0.75570   0.00000  Uiso   1.00
O1496  O     0.36122   0.45204   0.68848   0.00000  Uiso   1.00
O1497  O     0.39993   0.38593   0.68169   0.00000  Uiso   1.00
O1498  O     0.63799   0.54577   0.97693   0.00000  Uiso   1.00
O1499  O     0.58837   0.57100   0.91102   0.00000  Uiso   1.00
O1500  O     0.50000   0.56011   0.79375   0.00000  Uiso   1.00
O1501  O     0.60386   0.61321   0.98603   0.00000  Uiso   1.00
O1502  O     0.43959   0.38894   0.94167   0.00000  Uiso   1.00
O1503  O     0.36486   0.42215   0.94093   0.00000  Uiso   1.00
O1504  O     0.40785   0.42626   0.87142   0.00000  Uiso   1.00
O1505  O     0.63570   0.57590   0.72601   0.00000  Uiso   1.00
O1506  O     0.56231   0.61099   0.72484   0.00000  Uiso   1.00
O1507  O     0.59225   0.57363   0.79539   0.00000  Uiso   1.00
O1508  O     0.50000   0.43988   0.79372   0.00000  Uiso   1.00
O1509  O     0.50000   0.56012   0.87294   0.00000  Uiso   1.00
O1510  O     0.42495   0.50000   0.86379   0.00000  Uiso   1.00
O1511  O     0.57505   0.50000   0.80288   0.00000  Uiso   1.00
O1512  O     0.42494   0.49999   0.78460   0.00000  Uiso   1.00
O1513  O     0.57506   0.50001   0.88207   0.00000  Uiso   1.00
O1514  O     0.62063   0.44648   0.76080   0.00000  Uiso   1.00
S1515  S     0.40926   0.43529   0.70475   0.00000  Uiso   1.00
S1516  S     0.59098   0.56412   0.96186   0.00000  Uiso   1.00
S1517  S     0.41889   0.42763   0.93007   0.00000  Uiso   1.00
S1518  S     0.58172   0.57182   0.73672   0.00000  Uiso   1.00
C1519  C     0.83745   0.42143   0.83315   0.00000  Uiso   1.00
C1520  C     0.85297   0.35832   0.87492   0.00000  Uiso   1.00
C1521  C     0.82365   0.62293   0.83383   0.00000  Uiso   1.00
C1522  C     0.84219   0.37708   0.83222   0.00000  Uiso   1.00
C1523  C     0.79652   0.47081   0.68499   0.00000  Uiso   1.00
C1524  C     0.86999   0.52927   0.98167   0.00000  Uiso   1.00
C1525  C     0.79674   0.47065   0.96809   0.00000  Uiso   1.00
C1526  C     0.86988   0.52932   0.69858   0.00000  Uiso   1.00
C1527  C     0.98394   0.48053   0.76712   0.00000  Uiso   1.00
C1528  C     0.68212   0.51753   0.89962   0.00000  Uiso   1.00
C1529  C     0.84292   0.37004   0.74547   0.00000  Uiso   1.00
C1530  C     0.82895   0.57856   0.83342   0.00000  Uiso   1.00
C1531  C     0.81774   0.63118   0.91997   0.00000  Uiso   1.00
C1532  C     0.78300   0.61608   0.74825   0.00000  Uiso   1.00
C1533  C     0.89105   0.38299   0.91477   0.00000  Uiso   1.00
C1534  C     0.73479   0.50036   0.82114   0.00000  Uiso   1.00
C1535  C     0.93171   0.49919   0.84549   0.00000  Uiso   1.00
C1536  C     0.67867   0.49629   0.81473   0.00000  Uiso   1.00
C1537  C     0.98756   0.50223   0.85193   0.00000  Uiso   1.00
C1538  C     0.83027   0.35203   0.78963   0.00000  Uiso   1.00
C1539  C     0.83498   0.64821   0.87641   0.00000  Uiso   1.00
C1540  C     0.81527   0.64167   0.79059   0.00000  Uiso   1.00
Cu1541 Cu    0.83333   0.50001   0.88022   0.00000  Uiso   1.00
Cu1542 Cu    0.83333   0.49999   0.78645   0.00000  Uiso   1.00
H1543  H     0.99119   0.49894   0.73750   0.00000  Uiso   1.00
H1544  H     0.94755   0.60166   0.80574   0.00000  Uiso   1.00
H1545  H     0.67677   0.49799   0.92873   0.00000  Uiso   1.00
H1546  H     0.82371   0.39321   0.72908   0.00000  Uiso   1.00
H1547  H     0.79955   0.59878   0.92132   0.00000  Uiso   1.00
H1548  H     0.76075   0.58503   0.75191   0.00000  Uiso   1.00
H1549  H     0.90525   0.41636   0.91365   0.00000  Uiso   1.00
H1550  H     0.69800   0.37211   0.68652   0.00000  Uiso   1.00
H1551  H     0.90680   0.62479   0.97292   0.00000  Uiso   1.00
H1552  H     0.72034   0.39787   0.86091   0.00000  Uiso   1.00
N1553  N     0.83335   0.50001   0.95069   0.00000  Uiso   1.00
N1554  N     0.83332   0.49999   0.71597   0.00000  Uiso   1.00
O1555  O     0.83333   0.43989   0.87291   0.00000  Uiso   1.00
O1556  O     0.70951   0.55260   0.90662   0.00000  Uiso   1.00
O1557  O     0.87594   0.35852   0.72666   0.00000  Uiso   1.00
O1558  O     0.81989   0.65393   0.95467   0.00000  Uiso   1.00
O1559  O     0.77855   0.62962   0.70933   0.00000  Uiso   1.00
O1560  O     0.91092   0.36595   0.94778   0.00000  Uiso   1.00
O1561  O     0.74486   0.42913   0.75570   0.00000  Uiso   1.00
O1562  O     0.69455   0.45204   0.68848   0.00000  Uiso   1.00
O1563  O     0.73327   0.38593   0.68169   0.00000  Uiso   1.00
O1564  O     0.97132   0.54577   0.97693   0.00000  Uiso   1.00
O1565  O     0.92171   0.57100   0.91102   0.00000  Uiso   1.00
O1566  O     0.83334   0.56011   0.79375   0.00000  Uiso   1.00
O1567  O     0.93720   0.61321   0.98603   0.00000  Uiso   1.00
O1568  O     0.77293   0.38894   0.94167   0.00000  Uiso   1.00
O1569  O     0.69820   0.42215   0.94093   0.00000  Uiso   1.00
O1570  O     0.74118   0.42626   0.87142   0.00000  Uiso   1.00
O1571  O     0.96903   0.57590   0.72601   0.00000  Uiso   1.00
O1572  O     0.89564   0.61099   0.72484   0.00000  Uiso   1.00
O1573  O     0.92558   0.57363   0.79539   0.00000  Uiso   1.00
O1574  O     0.83333   0.43988   0.79372   0.00000  Uiso   1.00
O1575  O     0.83334   0.56012   0.87294   0.00000  Uiso   1.00
O1576  O     0.75828   0.50000   0.86379   0.00000  Uiso   1.00
O1577  O     0.90839   0.50000   0.80288   0.00000  Uiso   1.00
O1578  O     0.75828   0.49999   0.78460   0.00000  Uiso   1.00
O1579  O     0.90839   0.50001   0.88207   0.00000  Uiso   1.00
O1580  O     0.95396   0.44648   0.76080   0.00000  Uiso   1.00
S1581  S     0.74260   0.43529   0.70475   0.00000  Uiso   1.00
S1582  S     0.92431   0.56412   0.96186   0.00000  Uiso   1.00
S1583  S     0.75223   0.42763   0.93007   0.00000  Uiso   1.00
S1584  S     0.91505   0.57182   0.73672   0.00000  Uiso   1.00
C1585  C     0.17078   0.75477   0.83315   0.00000  Uiso   1.00
C1586  C     0.18630   0.69165   0.87492   0.00000  Uiso   1.00
C1587  C     0.15698   0.95626   0.83383   0.00000  Uiso   1.00
C1588  C     0.17552   0.71041   0.83222   0.00000  Uiso   1.00
C1589  C     0.12985   0.80414   0.68499   0.00000  Uiso   1.00
C1590  C     0.20333   0.86260   0.98167   0.00000  Uiso   1.00
C1591  C     0.13007   0.80398   0.96809   0.00000  Uiso   1.00
C1592  C     0.20321   0.86266   0.69858   0.00000  Uiso   1.00
C1593  C     0.31727   0.81386   0.76712   0.00000  Uiso   1.00
C1594  C     0.01546   0.85086   0.89962   0.00000  Uiso   1.00
C1595  C     0.17625   0.70338   0.74547   0.00000  Uiso   1.00
C1596  C     0.16228   0.91190   0.83342   0.00000  Uiso   1.00
C1597  C     0.15108   0.96451   0.91997   0.00000  Uiso   1.00
C1598  C     0.11633   0.94941   0.74825   0.00000  Uiso   1.00
C1599  C     0.22438   0.71632   0.91477   0.00000  Uiso   1.00
C1600  C     0.06812   0.83369   0.82114   0.00000  Uiso   1.00
C1601  C     0.26504   0.83252   0.84549   0.00000  Uiso   1.00
C1602  C     0.01200   0.82962   0.81473   0.00000  Uiso   1.00
C1603  C     0.32090   0.83556   0.85193   0.00000  Uiso   1.00
C1604  C     0.16361   0.68537   0.78963   0.00000  Uiso   1.00
C1605  C     0.16831   0.98155   0.87641   0.00000  Uiso   1.00
C1606  C     0.14860   0.97500   0.79059   0.00000  Uiso   1.00
Cu1607 Cu    0.16667   0.83334   0.88022   0.00000  Uiso   1.00
Cu1608 Cu    0.16667   0.83333   0.78645   0.00000  Uiso   1.00
H1609  H     0.32452   0.83227   0.73750   0.00000  Uiso   1.00
H1610  H     0.28088   0.93500   0.80574   0.00000  Uiso   1.00
H1611  H     0.01010   0.83132   0.92873   0.00000  Uiso   1.00
H1612  H     0.15704   0.72655   0.72908   0.00000  Uiso   1.00
H1613  H     0.13288   0.93211   0.92132   0.00000  Uiso   1.00
H1614  H     0.09408   0.91836   0.75191   0.00000  Uiso   1.00
H1615  H     0.23858   0.74969   0.91365   0.00000  Uiso   1.00
H1616  H     0.03134   0.70545   0.68652   0.00000  Uiso   1.00
H1617  H     0.24013   0.95813   0.97292   0.00000  Uiso   1.00
H1618  H     0.05367   0.73120   0.86091   0.00000  Uiso   1.00
N1619  N     0.16668   0.83334   0.95069   0.00000  Uiso   1.00
N1620  N     0.16665   0.83332   0.71597   0.00000  Uiso   1.00
O1621  O     0.16666   0.77322   0.87291   0.00000  Uiso   1.00
O1622  O     0.04284   0.88593   0.90662   0.00000  Uiso   1.00
O1623  O     0.20927   0.69186   0.72666   0.00000  Uiso   1.00
O1624  O     0.15322   0.98727   0.95467   0.00000  Uiso   1.00
O1625  O     0.11189   0.96295   0.70933   0.00000  Uiso   1.00
O1626  O     0.24426   0.69929   0.94778   0.00000  Uiso   1.00
O1627  O     0.07820   0.76246   0.75570   0.00000  Uiso   1.00
O1628  O     0.02788   0.78537   0.68848   0.00000  Uiso   1.00
O1629  O     0.06660   0.71926   0.68169   0.00000  Uiso   1.00
O1630  O     0.30465   0.87910   0.97693   0.00000  Uiso   1.00
O1631  O     0.25504   0.90433   0.91102   0.00000  Uiso   1.00
O1632  O     0.16667   0.89345   0.79375   0.00000  Uiso   1.00
O1633  O     0.27053   0.94654   0.98603   0.00000  Uiso   1.00
O1634  O     0.10626   0.72227   0.94167   0.00000  Uiso   1.00
O1635  O     0.03153   0.75548   0.94093   0.00000  Uiso   1.00
O1636  O     0.07452   0.75959   0.87142   0.00000  Uiso   1.00
O1637  O     0.30237   0.90924   0.72601   0.00000  Uiso   1.00
O1638  O     0.22897   0.94433   0.72484   0.00000  Uiso   1.00
O1639  O     0.25892   0.90696   0.79539   0.00000  Uiso   1.00
O1640  O     0.16666   0.77321   0.79372   0.00000  Uiso   1.00
O1641  O     0.16667   0.89346   0.87294   0.00000  Uiso   1.00
O1642  O     0.09161   0.83334   0.86379   0.00000  Uiso   1.00
O1643  O     0.24172   0.83333   0.80288   0.00000  Uiso   1.00
O1644  O     0.09161   0.83333   0.78460   0.00000  Uiso   1.00
O1645  O     0.24172   0.83334   0.88207   0.00000  Uiso   1.00
O1646  O     0.28730   0.77981   0.76080   0.00000  Uiso   1.00
S1647  S     0.07593   0.76862   0.70475   0.00000  Uiso   1.00
S1648  S     0.25765   0.89746   0.96186   0.00000  Uiso   1.00
S1649  S     0.08556   0.76096   0.93007   0.00000  Uiso   1.00
S1650  S     0.24838   0.90515   0.73672   0.00000  Uiso   1.00
C1651  C     0.50412   0.75477   0.83315   0.00000  Uiso   1.00
C1652  C     0.51963   0.69165   0.87492   0.00000  Uiso   1.00
C1653  C     0.49032   0.95626   0.83383   0.00000  Uiso   1.00
C1654  C     0.50886   0.71041   0.83222   0.00000  Uiso   1.00
C1655  C     0.46319   0.80414   0.68499   0.00000  Uiso   1.00
C1656  C     0.53666   0.86260   0.98167   0.00000  Uiso   1.00
C1657  C     0.46341   0.80398   0.96809   0.00000  Uiso   1.00
C1658  C     0.53655   0.86266   0.69858   0.00000  Uiso   1.00
C1659  C     0.65060   0.81386   0.76712   0.00000  Uiso   1.00
C1660  C     0.34879   0.85086   0.89962   0.00000  Uiso   1.00
C1661  C     0.50959   0.70338   0.74547   0.00000  Uiso   1.00
C1662  C     0.49561   0.91190   0.83342   0.00000  Uiso   1.00
C1663  C     0.48441   0.96451   0.91997   0.00000  Uiso   1.00
C1664  C     0.44966   0.94941   0.74825   0.00000  Uiso   1.00
C1665  C     0.55771   0.71632   0.91477   0.00000  Uiso   1.00
C1666  C     0.40145   0.83369   0.82114   0.00000  Uiso   1.00
C1667  C     0.59838   0.83252   0.84549   0.00000  Uiso   1.00
C1668  C     0.34534   0.82962   0.81473   0.00000  Uiso   1.00
C1669  C     0.65423   0.83556   0.85193   0.00000  Uiso   1.00
C1670  C     0.49694   0.68537   0.78963   0.00000  Uiso   1.00
C1671  C     0.50164   0.98155   0.87641   0.00000  Uiso   1.00
C1672  C     0.48194   0.97500   0.79059   0.00000  Uiso   1.00
Cu1673 Cu    0.50000   0.83334   0.88022   0.00000  Uiso   1.00
Cu1674 Cu    0.50000   0.83333   0.78645   0.00000  Uiso   1.00
H1675  H     0.65785   0.83227   0.73750   0.00000  Uiso   1.00
H1676  H     0.61421   0.93500   0.80574   0.00000  Uiso   1.00
H1677  H     0.34344   0.83132   0.92873   0.00000  Uiso   1.00
H1678  H     0.49038   0.72655   0.72908   0.00000  Uiso   1.00
H1679  H     0.46622   0.93211   0.92132   0.00000  Uiso   1.00
H1680  H     0.42741   0.91836   0.75191   0.00000  Uiso   1.00
H1681  H     0.57192   0.74969   0.91365   0.00000  Uiso   1.00
H1682  H     0.36467   0.70545   0.68652   0.00000  Uiso   1.00
H1683  H     0.57346   0.95813   0.97292   0.00000  Uiso   1.00
H1684  H     0.38701   0.73120   0.86091   0.00000  Uiso   1.00
N1685  N     0.50001   0.83334   0.95069   0.00000  Uiso   1.00
N1686  N     0.49999   0.83332   0.71597   0.00000  Uiso   1.00
O1687  O     0.50000   0.77322   0.87291   0.00000  Uiso   1.00
O1688  O     0.37618   0.88593   0.90662   0.00000  Uiso   1.00
O1689  O     0.54260   0.69186   0.72666   0.00000  Uiso   1.00
O1690  O     0.48655   0.98727   0.95467   0.00000  Uiso   1.00
O1691  O     0.44522   0.96295   0.70933   0.00000  Uiso   1.00
O1692  O     0.57759   0.69929   0.94778   0.00000  Uiso   1.00
O1693  O     0.41153   0.76246   0.75570   0.00000  Uiso   1.00
O1694  O     0.36122   0.78537   0.68848   0.00000  Uiso   1.00
O1695  O     0.39993   0.71926   0.68169   0.00000  Uiso   1.00
O1696  O     0.63799   0.87910   0.97693   0.00000  Uiso   1.00
O1697  O     0.58837   0.90433   0.91102   0.00000  Uiso   1.00
O1698  O     0.50000   0.89345   0.79375   0.00000  Uiso   1.00
O1699  O     0.60386   0.94654   0.98603   0.00000  Uiso   1.00
O1700  O     0.43959   0.72227   0.94167   0.00000  Uiso   1.00
O1701  O     0.36486   0.75548   0.94093   0.00000  Uiso   1.00
O1702  O     0.40785   0.75959   0.87142   0.00000  Uiso   1.00
O1703  O     0.63570   0.90924   0.72601   0.00000  Uiso   1.00
O1704  O     0.56231   0.94433   0.72484   0.00000  Uiso   1.00
O1705  O     0.59225   0.90696   0.79539   0.00000  Uiso   1.00
O1706  O     0.50000   0.77321   0.79372   0.00000  Uiso   1.00
O1707  O     0.50000   0.89346   0.87294   0.00000  Uiso   1.00
O1708  O     0.42495   0.83334   0.86379   0.00000  Uiso   1.00
O1709  O     0.57505   0.83333   0.80288   0.00000  Uiso   1.00
O1710  O     0.42494   0.83333   0.78460   0.00000  Uiso   1.00
O1711  O     0.57506   0.83334   0.88207   0.00000  Uiso   1.00
O1712  O     0.62063   0.77981   0.76080   0.00000  Uiso   1.00
S1713  S     0.40926   0.76862   0.70475   0.00000  Uiso   1.00
S1714  S     0.59098   0.89746   0.96186   0.00000  Uiso   1.00
S1715  S     0.41889   0.76096   0.93007   0.00000  Uiso   1.00
S1716  S     0.58172   0.90515   0.73672   0.00000  Uiso   1.00
C1717  C     0.83745   0.75477   0.83315   0.00000  Uiso   1.00
C1718  C     0.85297   0.69165   0.87492   0.00000  Uiso   1.00
C1719  C     0.82365   0.95626   0.83383   0.00000  Uiso   1.00
C1720  C     0.84219   0.71041   0.83222   0.00000  Uiso   1.00
C1721  C     0.79652   0.80414   0.68499   0.00000  Uiso   1.00
C1722  C     0.86999   0.86260   0.98167   0.00000  Uiso   1.00
C1723  C     0.79674   0.80398   0.96809   0.00000  Uiso   1.00
C1724  C     0.86988   0.86266   0.69858   0.00000  Uiso   1.00
C1725  C     0.98394   0.81386   0.76712   0.00000  Uiso   1.00
C1726  C     0.68212   0.85086   0.89962   0.00000  Uiso   1.00
C1727  C     0.84292   0.70338   0.74547   0.00000  Uiso   1.00
C1728  C     0.82895   0.91190   0.83342   0.00000  Uiso   1.00
C1729  C     0.81774   0.96451   0.91997   0.00000  Uiso   1.00
C1730  C     0.78300   0.94941   0.74825   0.00000  Uiso   1.00
C1731  C     0.89105   0.71632   0.91477   0.00000  Uiso   1.00
C1732  C     0.73479   0.83369   0.82114   0.00000  Uiso   1.00
C1733  C     0.93171   0.83252   0.84549   0.00000  Uiso   1.00
C1734  C     0.67867   0.82962   0.81473   0.00000  Uiso   1.00
C1735  C     0.98756   0.83556   0.85193   0.00000  Uiso   1.00
C1736  C     0.83027   0.68537   0.78963   0.00000  Uiso   1.00
C1737  C     0.83498   0.98155   0.87641   0.00000  Uiso   1.00
C1738  C     0.81527   0.97500   0.79059   0.00000  Uiso   1.00
Cu1739 Cu    0.83333   0.83334   0.88022   0.00000  Uiso   1.00
Cu1740 Cu    0.83333   0.83333   0.78645   0.00000  Uiso   1.00
H1741  H     0.99119   0.83227   0.73750   0.00000  Uiso   1.00
H1742  H     0.94755   0.93500   0.80574   0.00000  Uiso   1.00
H1743  H     0.67677   0.83132   0.92873   0.00000  Uiso   1.00
H1744  H     0.82371   0.72655   0.72908   0.00000  Uiso   1.00
H1745  H     0.79955   0.93211   0.92132   0.00000  Uiso   1.00
H1746  H     0.76075   0.91836   0.75191   0.00000  Uiso   1.00
H1747  H     0.90525   0.74969   0.91365   0.00000  Uiso   1.00
H1748  H     0.69800   0.70545   0.68652   0.00000  Uiso   1.00
H1749  H     0.90680   0.95813   0.97292   0.00000  Uiso   1.00
H1750  H     0.72034   0.73120   0.86091   0.00000  Uiso   1.00
N1751  N     0.83335   0.83334   0.95069   0.00000  Uiso   1.00
N1752  N     0.83332   0.83332   0.71597   0.00000  Uiso   1.00
O1753  O     0.83333   0.77322   0.87291   0.00000  Uiso   1.00
O1754  O     0.70951   0.88593   0.90662   0.00000  Uiso   1.00
O1755  O     0.87594   0.69186   0.72666   0.00000  Uiso   1.00
O1756  O     0.81989   0.98727   0.95467   0.00000  Uiso   1.00
O1757  O     0.77855   0.96295   0.70933   0.00000  Uiso   1.00
O1758  O     0.91092   0.69929   0.94778   0.00000  Uiso   1.00
O1759  O     0.74486   0.76246   0.75570   0.00000  Uiso   1.00
O1760  O     0.69455   0.78537   0.68848   0.00000  Uiso   1.00
O1761  O     0.73327   0.71926   0.68169   0.00000  Uiso   1.00
O1762  O     0.97132   0.87910   0.97693   0.00000  Uiso   1.00
O1763  O     0.92171   0.90433   0.91102   0.00000  Uiso   1.00
O1764  O     0.83334   0.89345   0.79375   0.00000  Uiso   1.00
O1765  O     0.93720   0.94654   0.98603   0.00000  Uiso   1.00
O1766  O     0.77293   0.72227   0.94167   0.00000  Uiso   1.00
O1767  O     0.69820   0.75548   0.94093   0.00000  Uiso   1.00
O1768  O     0.74118   0.75959   0.87142   0.00000  Uiso   1.00
O1769  O     0.96903   0.90924   0.72601   0.00000  Uiso   1.00
O1770  O     0.89564   0.94433   0.72484   0.00000  Uiso   1.00
O1771  O     0.92558   0.90696   0.79539   0.00000  Uiso   1.00
O1772  O     0.83333   0.77321   0.79372   0.00000  Uiso   1.00
O1773  O     0.83334   0.89346   0.87294   0.00000  Uiso   1.00
O1774  O     0.75828   0.83334   0.86379   0.00000  Uiso   1.00
O1775  O     0.90839   0.83333   0.80288   0.00000  Uiso   1.00
O1776  O     0.75828   0.83333   0.78460   0.00000  Uiso   1.00
O1777  O     0.90839   0.83334   0.88207   0.00000  Uiso   1.00
O1778  O     0.95396   0.77981   0.76080   0.00000  Uiso   1.00
S1779  S     0.74260   0.76862   0.70475   0.00000  Uiso   1.00
S1780  S     0.92431   0.89746   0.96186   0.00000  Uiso   1.00
S1781  S     0.75223   0.76096   0.93007   0.00000  Uiso   1.00
S1782  S     0.91505   0.90515   0.73672   0.00000  Uiso   1.00
loop_
_geom_bond_atom_site_label_1
_geom_bond_atom_site_label_2
_geom_bond_distance
_geom_bond_site_symmetry_2
_ccdc_geom_bond_type
C1     O37     1.316   .     A
C1     C4      1.478   .     S
C1     O56     1.306   .     A
C2     C4      1.410   .     A
C2     C15     1.499   .     S
C2     C417    1.407   1_545 S
C3     C21     1.420   .     A
C3     C22     1.416   .     A
C3     C12     1.482   .     S
C4     C20     1.416   .     A
C5     N36     1.401   .     A
C5     S63     1.838   .     S
C5     C1195   1.458   1_554 S
C6     N35     1.400   .     A
C6     S64     1.835   .     S
C6     C602    1.457   .     S
C7     S65     1.846   .     S
C7     N35     1.392   .     A
C7     C599    1.458   .     S
C8     S66     1.844   .     S
C8     N36     1.391   .     A
C8     C1194   1.457   1_554 S
C9     H25     1.084   .     S
C9     O62     1.221   .     D
C9     C84     1.482   .     S
C10    H27     1.084   .     S
C10    O38     1.220   .     D
C10    C151    1.479   1_455 S
C11    H28     1.075   .     S
C11    O39     1.220   .     D
C11    C20     1.485   .     S
C12    O48     1.316   .     A
C12    O57     1.309   .     A
C13    C21     1.498   .     S
C13    H29     1.076   .     S
C13    O40     1.220   .     D
C14    C22     1.500   .     S
C14    O41     1.220   .     D
C14    H30     1.085   .     S
C15    H31     1.082   .     S
C15    O42     1.220   .     D
C16    O58     1.293   .     A
C16    O60     1.316   .     A
C16    C18     1.453   .     S
C17    O59     1.292   .     A
C17    C19     1.451   .     S
C17    O61     1.316   .     A
C18    C141    1.482   1_455 S
C18    C151    1.376   1_455 S
C19    C76     1.479   .     S
C19    C84     1.376   .     S
C20    C418    1.405   1_545 S
C21    C200    1.407   .     S
C22    C218    1.405   .     S
Cu23   O58     1.977   .     S
Cu23   Cu24    2.719   .     S
Cu23   N35     2.043   .     S
Cu23   O61     1.990   .     S
Cu23   O57     1.979   .     S
Cu23   O37     1.967   .     S
Cu24   O60     1.990   .     S
Cu24   N36     2.043   .     S
Cu24   O59     1.977   .     S
Cu24   O56     1.979   .     S
Cu24   O48     1.967   .     S
H26    O55     0.991   .     S
H32    O45     0.991   .     S
H33    O49     0.986   .     S
H34    O52     0.991   .     S
O43    S63     1.490   .     D
O44    S63     1.501   .     D
O45    S63     1.681   .     S
O46    S64     1.500   .     D
O47    S64     1.490   .     D
O49    S64     1.677   .     S
O50    S65     1.501   .     D
O51    S65     1.500   .     D
O52    S65     1.675   .     S
O53    S66     1.501   .     D
O54    S66     1.501   .     D
O55    S66     1.676   .     S
C67    O103    1.316   .     A
C67    C70     1.478   .     S
C67    O122    1.306   .     A
C68    C70     1.410   .     A
C68    C81     1.499   .     S
C68    C483    1.407   1_545 S
C69    C87     1.420   .     A
C69    C88     1.416   .     A
C69    C78     1.482   .     S
C70    C86     1.416   .     A
C71    N102    1.401   .     A
C71    S129    1.838   .     S
C71    C1261   1.458   1_554 S
C72    N101    1.400   .     A
C72    S130    1.835   .     S
C72    C668    1.457   .     S
C73    S131    1.846   .     S
C73    N101    1.392   .     A
C73    C665    1.458   .     S
C74    S132    1.844   .     S
C74    N102    1.391   .     A
C74    C1260   1.457   1_554 S
C75    H91     1.084   .     S
C75    O128    1.221   .     D
C75    C150    1.482   .     S
C76    H93     1.084   .     S
C76    O104    1.220   .     D
C77    H94     1.075   .     S
C77    O105    1.220   .     D
C77    C86     1.485   .     S
C78    O114    1.316   .     A
C78    O123    1.309   .     A
C79    C87     1.498   .     S
C79    H95     1.076   .     S
C79    O106    1.220   .     D
C80    C88     1.500   .     S
C80    O107    1.220   .     D
C80    H96     1.085   .     S
C81    H97     1.082   .     S
C81    O108    1.220   .     D
C82    O124    1.293   .     A
C82    O126    1.316   .     A
C82    C84     1.453   .     S
C83    O125    1.292   .     A
C83    C85     1.451   .     S
C83    O127    1.316   .     A
C85    C142    1.479   .     S
C85    C150    1.376   .     S
C86    C484    1.405   1_545 S
C87    C266    1.407   .     S
C88    C284    1.405   .     S
Cu89   O124    1.977   .     S
Cu89   Cu90    2.719   .     S
Cu89   N101    2.043   .     S
Cu89   O127    1.990   .     S
Cu89   O123    1.979   .     S
Cu89   O103    1.967   .     S
Cu90   O126    1.990   .     S
Cu90   N102    2.043   .     S
Cu90   O125    1.977   .     S
Cu90   O122    1.979   .     S
Cu90   O114    1.967   .     S
H92    O121    0.991   .     S
H98    O111    0.991   .     S
H99    O115    0.986   .     S
H100   O118    0.991   .     S
O109   S129    1.490   .     D
O110   S129    1.501   .     D
O111   S129    1.681   .     S
O112   S130    1.500   .     D
O113   S130    1.490   .     D
O115   S130    1.677   .     S
O116   S131    1.501   .     D
O117   S131    1.500   .     D
O118   S131    1.675   .     S
O119   S132    1.501   .     D
O120   S132    1.501   .     D
O121   S132    1.676   .     S
C133   O169    1.316   .     A
C133   C136    1.478   .     S
C133   O188    1.306   .     A
C134   C136    1.410   .     A
C134   C147    1.499   .     S
C134   C549    1.407   1_545 S
C135   C153    1.420   .     A
C135   C154    1.416   .     A
C135   C144    1.482   .     S
C136   C152    1.416   .     A
C137   N168    1.401   .     A
C137   S195    1.838   .     S
C137   C1327   1.458   1_554 S
C138   N167    1.400   .     A
C138   S196    1.835   .     S
C138   C734    1.457   .     S
C139   S197    1.846   .     S
C139   N167    1.392   .     A
C139   C731    1.458   .     S
C140   S198    1.844   .     S
C140   N168    1.391   .     A
C140   C1326   1.457   1_554 S
C141   H157    1.084   .     S
C141   O194    1.221   .     D
C141   C18     1.482   1_655 S
C142   H159    1.084   .     S
C142   O170    1.220   .     D
C143   H160    1.075   .     S
C143   O171    1.220   .     D
C143   C152    1.485   .     S
C144   O180    1.316   .     A
C144   O189    1.309   .     A
C145   C153    1.498   .     S
C145   H161    1.076   .     S
C145   O172    1.220   .     D
C146   C154    1.500   .     S
C146   O173    1.220   .     D
C146   H162    1.085   .     S
C147   H163    1.082   .     S
C147   O174    1.220   .     D
C148   O190    1.293   .     A
C148   O192    1.316   .     A
C148   C150    1.453   .     S
C149   O191    1.292   .     A
C149   C151    1.451   .     S
C149   O193    1.316   .     A
C151   C10     1.479   1_655 S
C151   C18     1.376   1_655 S
C152   C550    1.405   1_545 S
C153   C332    1.407   .     S
C154   C350    1.405   .     S
Cu155  O190    1.977   .     S
Cu155  Cu156   2.719   .     S
Cu155  N167    2.043   .     S
Cu155  O193    1.990   .     S
Cu155  O189    1.979   .     S
Cu155  O169    1.967   .     S
Cu156  O192    1.990   .     S
Cu156  N168    2.043   .     S
Cu156  O191    1.977   .     S
Cu156  O188    1.979   .     S
Cu156  O180    1.967   .     S
H158   O187    0.991   .     S
H164   O177    0.991   .     S
H165   O181    0.986   .     S
H166   O184    0.991   .     S
O175   S195    1.490   .     D
O176   S195    1.501   .     D
O177   S195    1.681   .     S
O178   S196    1.500   .     D
O179   S196    1.490   .     D
O181   S196    1.677   .     S
O182   S197    1.501   .     D
O183   S197    1.500   .     D
O184   S197    1.675   .     S
O185   S198    1.501   .     D
O186   S198    1.501   .     D
O187   S198    1.676   .     S
C199   O235    1.316   .     A
C199   C202    1.478   .     S
C199   O254    1.306   .     A
C200   C202    1.410   .     A
C200   C213    1.499   .     S
C201   C219    1.420   .     A
C201   C220    1.416   .     A
C201   C210    1.482   .     S
C202   C218    1.416   .     A
C203   N234    1.401   .     A
C203   S261    1.838   .     S
C203   C1393   1.458   1_554 S
C204   N233    1.400   .     A
C204   S262    1.835   .     S
C204   C800    1.457   .     S
C205   S263    1.846   .     S
C205   N233    1.392   .     A
C205   C797    1.458   .     S
C206   S264    1.844   .     S
C206   N234    1.391   .     A
C206   C1392   1.457   1_554 S
C207   H223    1.084   .     S
C207   O260    1.221   .     D
C207   C282    1.482   .     S
C208   H225    1.084   .     S
C208   O236    1.220   .     D
C208   C349    1.479   1_455 S
C209   H226    1.075   .     S
C209   O237    1.220   .     D
C209   C218    1.485   .     S
C210   O246    1.316   .     A
C210   O255    1.309   .     A
C211   C219    1.498   .     S
C211   H227    1.076   .     S
C211   O238    1.220   .     D
C212   C220    1.500   .     S
C212   O239    1.220   .     D
C212   H228    1.085   .     S
C213   H229    1.082   .     S
C213   O240    1.220   .     D
C214   O256    1.293   .     A
C214   O258    1.316   .     A
C214   C216    1.453   .     S
C215   O257    1.292   .     A
C215   C217    1.451   .     S
C215   O259    1.316   .     A
C216   C339    1.482   1_455 S
C216   C349    1.376   1_455 S
C217   C274    1.479   .     S
C217   C282    1.376   .     S
C219   C398    1.407   .     S
C220   C416    1.405   .     S
Cu221  O256    1.977   .     S
Cu221  Cu222   2.719   .     S
Cu221  N233    2.043   .     S
Cu221  O259    1.990   .     S
Cu221  O255    1.979   .     S
Cu221  O235    1.967   .     S
Cu222  O258    1.990   .     S
Cu222  N234    2.043   .     S
Cu222  O257    1.977   .     S
Cu222  O254    1.979   .     S
Cu222  O246    1.967   .     S
H224   O253    0.991   .     S
H230   O243    0.991   .     S
H231   O247    0.986   .     S
H232   O250    0.991   .     S
O241   S261    1.490   .     D
O242   S261    1.501   .     D
O243   S261    1.681   .     S
O244   S262    1.500   .     D
O245   S262    1.490   .     D
O247   S262    1.677   .     S
O248   S263    1.501   .     D
O249   S263    1.500   .     D
O250   S263    1.675   .     S
O251   S264    1.501   .     D
O252   S264    1.501   .     D
O253   S264    1.676   .     S
C265   O301    1.316   .     A
C265   C268    1.478   .     S
C265   O320    1.306   .     A
C266   C268    1.410   .     A
C266   C279    1.499   .     S
C267   C285    1.420   .     A
C267   C286    1.416   .     A
C267   C276    1.482   .     S
C268   C284    1.416   .     A
C269   N300    1.401   .     A
C269   S327    1.838   .     S
C269   C1459   1.458   1_554 S
C270   N299    1.400   .     A
C270   S328    1.835   .     S
C270   C866    1.457   .     S
C271   S329    1.846   .     S
C271   N299    1.392   .     A
C271   C863    1.458   .     S
C272   S330    1.844   .     S
C272   N300    1.391   .     A
C272   C1458   1.457   1_554 S
C273   H289    1.084   .     S
C273   O326    1.221   .     D
C273   C348    1.482   .     S
C274   H291    1.084   .     S
C274   O302    1.220   .     D
C275   H292    1.075   .     S
C275   O303    1.220   .     D
C275   C284    1.485   .     S
C276   O312    1.316   .     A
C276   O321    1.309   .     A
C277   C285    1.498   .     S
C277   H293    1.076   .     S
C277   O304    1.220   .     D
C278   C286    1.500   .     S
C278   O305    1.220   .     D
C278   H294    1.085   .     S
C279   H295    1.082   .     S
C279   O306    1.220   .     D
C280   O322    1.293   .     A
C280   O324    1.316   .     A
C280   C282    1.453   .     S
C281   O323    1.292   .     A
C281   C283    1.451   .     S
C281   O325    1.316   .     A
C283   C340    1.479   .     S
C283   C348    1.376   .     S
C285   C464    1.407   .     S
C286   C482    1.405   .     S
Cu287  O322    1.977   .     S
Cu287  Cu288   2.719   .     S
Cu287  N299    2.043   .     S
Cu287  O325    1.990   .     S
Cu287  O321    1.979   .     S
Cu287  O301    1.967   .     S
Cu288  O324    1.990   .     S
Cu288  N300    2.043   .     S
Cu288  O323    1.977   .     S
Cu288  O320    1.979   .     S
Cu288  O312    1.967   .     S
H290   O319    0.991   .     S
H296   O309    0.991   .     S
H297   O313    0.986   .     S
H298   O316    0.991   .     S
O307   S327    1.490   .     D
O308   S327    1.501   .     D
O309   S327    1.681   .     S
O310   S328    1.500   .     D
O311   S328    1.490   .     D
O313   S328    1.677   .     S
O314   S329    1.501   .     D
O315   S329    1.500   .     D
O316   S329    1.675   .     S
O317   S330    1.501   .     D
O318   S330    1.501   .     D
O319   S330    1.676   .     S
C331   O367    1.316   .     A
C331   C334    1.478   .     S
C331   O386    1.306   .     A
C332   C334    1.410   .     A
C332   C345    1.499   .     S
C333   C351    1.420   .     A
C333   C352    1.416   .     A
C333   C342    1.482   .     S
C334   C350    1.416   .     A
C335   N366    1.401   .     A
C335   S393    1.838   .     S
C335   C1525   1.458   1_554 S
C336   N365    1.400   .     A
C336   S394    1.835   .     S
C336   C932    1.457   .     S
C337   S395    1.846   .     S
C337   N365    1.392   .     A
C337   C929    1.458   .     S
C338   S396    1.844   .     S
C338   N366    1.391   .     A
C338   C1524   1.457   1_554 S
C339   H355    1.084   .     S
C339   O392    1.221   .     D
C339   C216    1.482   1_655 S
C340   H357    1.084   .     S
C340   O368    1.220   .     D
C341   H358    1.075   .     S
C341   O369    1.220   .     D
C341   C350    1.485   .     S
C342   O378    1.316   .     A
C342   O387    1.309   .     A
C343   C351    1.498   .     S
C343   H359    1.076   .     S
C343   O370    1.220   .     D
C344   C352    1.500   .     S
C344   O371    1.220   .     D
C344   H360    1.085   .     S
C345   H361    1.082   .     S
C345   O372    1.220   .     D
C346   O388    1.293   .     A
C346   O390    1.316   .     A
C346   C348    1.453   .     S
C347   O389    1.292   .     A
C347   C349    1.451   .     S
C347   O391    1.316   .     A
C349   C208    1.479   1_655 S
C349   C216    1.376   1_655 S
C351   C530    1.407   .     S
C352   C548    1.405   .     S
Cu353  O388    1.977   .     S
Cu353  Cu354   2.719   .     S
Cu353  N365    2.043   .     S
Cu353  O391    1.990   .     S
Cu353  O387    1.979   .     S
Cu353  O367    1.967   .     S
Cu354  O390    1.990   .     S
Cu354  N366    2.043   .     S
Cu354  O389    1.977   .     S
Cu354  O386    1.979   .     S
Cu354  O378    1.967   .     S
H356   O385    0.991   .     S
H362   O375    0.991   .     S
H363   O379    0.986   .     S
H364   O382    0.991   .     S
O373   S393    1.490   .     D
O374   S393    1.501   .     D
O375   S393    1.681   .     S
O376   S394    1.500   .     D
O377   S394    1.490   .     D
O379   S394    1.677   .     S
O380   S395    1.501   .     D
O381   S395    1.500   .     D
O382   S395    1.675   .     S
O383   S396    1.501   .     D
O384   S396    1.501   .     D
O385   S396    1.676   .     S
C397   O433    1.316   .     A
C397   C400    1.478   .     S
C397   O452    1.306   .     A
C398   C400    1.410   .     A
C398   C411    1.499   .     S
C399   C417    1.420   .     A
C399   C418    1.416   .     A
C399   C408    1.482   .     S
C400   C416    1.416   .     A
C401   N432    1.401   .     A
C401   S459    1.838   .     S
C401   C1591   1.458   1_554 S
C402   N431    1.400   .     A
C402   S460    1.835   .     S
C402   C998    1.457   .     S
C403   S461    1.846   .     S
C403   N431    1.392   .     A
C403   C995    1.458   .     S
C404   S462    1.844   .     S
C404   N432    1.391   .     A
C404   C1590   1.457   1_554 S
C405   H421    1.084   .     S
C405   O458    1.221   .     D
C405   C480    1.482   .     S
C406   H423    1.084   .     S
C406   O434    1.220   .     D
C406   C547    1.479   1_455 S
C407   H424    1.075   .     S
C407   O435    1.220   .     D
C407   C416    1.485   .     S
C408   O444    1.316   .     A
C408   O453    1.309   .     A
C409   C417    1.498   .     S
C409   H425    1.076   .     S
C409   O436    1.220   .     D
C410   C418    1.500   .     S
C410   O437    1.220   .     D
C410   H426    1.085   .     S
C411   H427    1.082   .     S
C411   O438    1.220   .     D
C412   O454    1.293   .     A
C412   O456    1.316   .     A
C412   C414    1.453   .     S
C413   O455    1.292   .     A
C413   C415    1.451   .     S
C413   O457    1.316   .     A
C414   C537    1.482   1_455 S
C414   C547    1.376   1_455 S
C415   C472    1.479   .     S
C415   C480    1.376   .     S
C417   C2      1.407   1_565 S
C418   C20     1.405   1_565 S
Cu419  O454    1.977   .     S
Cu419  Cu420   2.719   .     S
Cu419  N431    2.043   .     S
Cu419  O457    1.990   .     S
Cu419  O453    1.979   .     S
Cu419  O433    1.967   .     S
Cu420  O456    1.990   .     S
Cu420  N432    2.043   .     S
Cu420  O455    1.977   .     S
Cu420  O452    1.979   .     S
Cu420  O444    1.967   .     S
H422   O451    0.991   .     S
H428   O441    0.991   .     S
H429   O445    0.986   .     S
H430   O448    0.991   .     S
O439   S459    1.490   .     D
O440   S459    1.501   .     D
O441   S459    1.681   .     S
O442   S460    1.500   .     D
O443   S460    1.490   .     D
O445   S460    1.677   .     S
O446   S461    1.501   .     D
O447   S461    1.500   .     D
O448   S461    1.675   .     S
O449   S462    1.501   .     D
O450   S462    1.501   .     D
O451   S462    1.676   .     S
C463   O499    1.316   .     A
C463   C466    1.478   .     S
C463   O518    1.306   .     A
C464   C466    1.410   .     A
C464   C477    1.499   .     S
C465   C483    1.420   .     A
C465   C484    1.416   .     A
C465   C474    1.482   .     S
C466   C482    1.416   .     A
C467   N498    1.401   .     A
C467   S525    1.838   .     S
C467   C1657   1.458   1_554 S
C468   N497    1.400   .     A
C468   S526    1.835   .     S
C468   C1064   1.457   .     S
C469   S527    1.846   .     S
C469   N497    1.392   .     A
C469   C1061   1.458   .     S
C470   S528    1.844   .     S
C470   N498    1.391   .     A
C470   C1656   1.457   1_554 S
C471   H487    1.084   .     S
C471   O524    1.221   .     D
C471   C546    1.482   .     S
C472   H489    1.084   .     S
C472   O500    1.220   .     D
C473   H490    1.075   .     S
C473   O501    1.220   .     D
C473   C482    1.485   .     S
C474   O510    1.316   .     A
C474   O519    1.309   .     A
C475   C483    1.498   .     S
C475   H491    1.076   .     S
C475   O502    1.220   .     D
C476   C484    1.500   .     S
C476   O503    1.220   .     D
C476   H492    1.085   .     S
C477   H493    1.082   .     S
C477   O504    1.220   .     D
C478   O520    1.293   .     A
C478   O522    1.316   .     A
C478   C480    1.453   .     S
C479   O521    1.292   .     A
C479   C481    1.451   .     S
C479   O523    1.316   .     A
C481   C538    1.479   .     S
C481   C546    1.376   .     S
C483   C68     1.407   1_565 S
C484   C86     1.405   1_565 S
Cu485  O520    1.977   .     S
Cu485  Cu486   2.719   .     S
Cu485  N497    2.043   .     S
Cu485  O523    1.990   .     S
Cu485  O519    1.979   .     S
Cu485  O499    1.967   .     S
Cu486  O522    1.990   .     S
Cu486  N498    2.043   .     S
Cu486  O521    1.977   .     S
Cu486  O518    1.979   .     S
Cu486  O510    1.967   .     S
H488   O517    0.991   .     S
H494   O507    0.991   .     S
H495   O511    0.986   .     S
H496   O514    0.991   .     S
O505   S525    1.490   .     D
O506   S525    1.501   .     D
O507   S525    1.681   .     S
O508   S526    1.500   .     D
O509   S526    1.490   .     D
O511   S526    1.677   .     S
O512   S527    1.501   .     D
O513   S527    1.500   .     D
O514   S527    1.675   .     S
O515   S528    1.501   .     D
O516   S528    1.501   .     D
O517   S528    1.676   .     S
C529   O565    1.316   .     A
C529   C532    1.478   .     S
C529   O584    1.306   .     A
C530   C532    1.410   .     A
C530   C543    1.499   .     S
C531   C549    1.420   .     A
C531   C550    1.416   .     A
C531   C540    1.482   .     S
C532   C548    1.416   .     A
C533   N564    1.401   .     A
C533   S591    1.838   .     S
C533   C1723   1.458   1_554 S
C534   N563    1.400   .     A
C534   S592    1.835   .     S
C534   C1130   1.457   .     S
C535   S593    1.846   .     S
C535   N563    1.392   .     A
C535   C1127   1.458   .     S
C536   S594    1.844   .     S
C536   N564    1.391   .     A
C536   C1722   1.457   1_554 S
C537   H553    1.084   .     S
C537   O590    1.221   .     D
C537   C414    1.482   1_655 S
C538   H555    1.084   .     S
C538   O566    1.220   .     D
C539   H556    1.075   .     S
C539   O567    1.220   .     D
C539   C548    1.485   .     S
C540   O576    1.316   .     A
C540   O585    1.309   .     A
C541   C549    1.498   .     S
C541   H557    1.076   .     S
C541   O568    1.220   .     D
C542   C550    1.500   .     S
C542   O569    1.220   .     D
C542   H558    1.085   .     S
C543   H559    1.082   .     S
C543   O570    1.220   .     D
C544   O586    1.293   .     A
C544   O588    1.316   .     A
C544   C546    1.453   .     S
C545   O587    1.292   .     A
C545   C547    1.451   .     S
C545   O589    1.316   .     A
C547   C406    1.479   1_655 S
C547   C414    1.376   1_655 S
C549   C134    1.407   1_565 S
C550   C152    1.405   1_565 S
Cu551  O586    1.977   .     S
Cu551  Cu552   2.719   .     S
Cu551  N563    2.043   .     S
Cu551  O589    1.990   .     S
Cu551  O585    1.979   .     S
Cu551  O565    1.967   .     S
Cu552  O588    1.990   .     S
Cu552  N564    2.043   .     S
Cu552  O587    1.977   .     S
Cu552  O584    1.979   .     S
Cu552  O576    1.967   .     S
H554   O583    0.991   .     S
H560   O573    0.991   .     S
H561   O577    0.986   .     S
H562   O580    0.991   .     S
O571   S591    1.490   .     D
O572   S591    1.501   .     D
O573   S591    1.681   .     S
O574   S592    1.500   .     D
O575   S592    1.490   .     D
O577   S592    1.677   .     S
O578   S593    1.501   .     D
O579   S593    1.500   .     D
O580   S593    1.675   .     S
O581   S594    1.501   .     D
O582   S594    1.501   .     D
O583   S594    1.676   .     S
C595   O631    1.316   .     A
C595   C598    1.478   .     S
C595   O650    1.306   .     A
C596   C598    1.410   .     A
C596   C609    1.499   .     S
C596   C1011   1.407   1_545 S
C597   C615    1.420   .     A
C597   C616    1.416   .     A
C597   C606    1.482   .     S
C598   C614    1.416   .     A
C599   N630    1.401   .     A
C599   S657    1.838   .     S
C600   N629    1.400   .     A
C600   S658    1.835   .     S
C600   C1196   1.457   .     S
C601   S659    1.846   .     S
C601   N629    1.392   .     A
C601   C1193   1.458   .     S
C602   S660    1.844   .     S
C602   N630    1.391   .     A
C603   H619    1.084   .     S
C603   O656    1.221   .     D
C603   C678    1.482   .     S
C604   H621    1.084   .     S
C604   O632    1.220   .     D
C604   C745    1.479   1_455 S
C605   H622    1.075   .     S
C605   O633    1.220   .     D
C605   C614    1.485   .     S
C606   O642    1.316   .     A
C606   O651    1.309   .     A
C607   C615    1.498   .     S
C607   H623    1.076   .     S
C607   O634    1.220   .     D
C608   C616    1.500   .     S
C608   O635    1.220   .     D
C608   H624    1.085   .     S
C609   H625    1.082   .     S
C609   O636    1.220   .     D
C610   O652    1.293   .     A
C610   O654    1.316   .     A
C610   C612    1.453   .     S
C611   O653    1.292   .     A
C611   C613    1.451   .     S
C611   O655    1.316   .     A
C612   C735    1.482   1_455 S
C612   C745    1.376   1_455 S
C613   C670    1.479   .     S
C613   C678    1.376   .     S
C614   C1012   1.405   1_545 S
C615   C794    1.407   .     S
C616   C812    1.405   .     S
Cu617  O652    1.977   .     S
Cu617  Cu618   2.719   .     S
Cu617  N629    2.043   .     S
Cu617  O655    1.990   .     S
Cu617  O651    1.979   .     S
Cu617  O631    1.967   .     S
Cu618  O654    1.990   .     S
Cu618  N630    2.043   .     S
Cu618  O653    1.977   .     S
Cu618  O650    1.979   .     S
Cu618  O642    1.967   .     S
H620   O649    0.991   .     S
H626   O639    0.991   .     S
H627   O643    0.986   .     S
H628   O646    0.991   .     S
O637   S657    1.490   .     D
O638   S657    1.501   .     D
O639   S657    1.681   .     S
O640   S658    1.500   .     D
O641   S658    1.490   .     D
O643   S658    1.677   .     S
O644   S659    1.501   .     D
O645   S659    1.500   .     D
O646   S659    1.675   .     S
O647   S660    1.501   .     D
O648   S660    1.501   .     D
O649   S660    1.676   .     S
C661   O697    1.316   .     A
C661   C664    1.478   .     S
C661   O716    1.306   .     A
C662   C664    1.410   .     A
C662   C675    1.499   .     S
C662   C1077   1.407   1_545 S
C663   C681    1.420   .     A
C663   C682    1.416   .     A
C663   C672    1.482   .     S
C664   C680    1.416   .     A
C665   N696    1.401   .     A
C665   S723    1.838   .     S
C666   N695    1.400   .     A
C666   S724    1.835   .     S
C666   C1262   1.457   .     S
C667   S725    1.846   .     S
C667   N695    1.392   .     A
C667   C1259   1.458   .     S
C668   S726    1.844   .     S
C668   N696    1.391   .     A
C669   H685    1.084   .     S
C669   O722    1.221   .     D
C669   C744    1.482   .     S
C670   H687    1.084   .     S
C670   O698    1.220   .     D
C671   H688    1.075   .     S
C671   O699    1.220   .     D
C671   C680    1.485   .     S
C672   O708    1.316   .     A
C672   O717    1.309   .     A
C673   C681    1.498   .     S
C673   H689    1.076   .     S
C673   O700    1.220   .     D
C674   C682    1.500   .     S
C674   O701    1.220   .     D
C674   H690    1.085   .     S
C675   H691    1.082   .     S
C675   O702    1.220   .     D
C676   O718    1.293   .     A
C676   O720    1.316   .     A
C676   C678    1.453   .     S
C677   O719    1.292   .     A
C677   C679    1.451   .     S
C677   O721    1.316   .     A
C679   C736    1.479   .     S
C679   C744    1.376   .     S
C680   C1078   1.405   1_545 S
C681   C860    1.407   .     S
C682   C878    1.405   .     S
Cu683  O718    1.977   .     S
Cu683  Cu684   2.719   .     S
Cu683  N695    2.043   .     S
Cu683  O721    1.990   .     S
Cu683  O717    1.979   .     S
Cu683  O697    1.967   .     S
Cu684  O720    1.990   .     S
Cu684  N696    2.043   .     S
Cu684  O719    1.977   .     S
Cu684  O716    1.979   .     S
Cu684  O708    1.967   .     S
H686   O715    0.991   .     S
H692   O705    0.991   .     S
H693   O709    0.986   .     S
H694   O712    0.991   .     S
O703   S723    1.490   .     D
O704   S723    1.501   .     D
O705   S723    1.681   .     S
O706   S724    1.500   .     D
O707   S724    1.490   .     D
O709   S724    1.677   .     S
O710   S725    1.501   .     D
O711   S725    1.500   .     D
O712   S725    1.675   .     S
O713   S726    1.501   .     D
O714   S726    1.501   .     D
O715   S726    1.676   .     S
C727   O763    1.316   .     A
C727   C730    1.478   .     S
C727   O782    1.306   .     A
C728   C730    1.410   .     A
C728   C741    1.499   .     S
C728   C1143   1.407   1_545 S
C729   C747    1.420   .     A
C729   C748    1.416   .     A
C729   C738    1.482   .     S
C730   C746    1.416   .     A
C731   N762    1.401   .     A
C731   S789    1.838   .     S
C732   N761    1.400   .     A
C732   S790    1.835   .     S
C732   C1328   1.457   .     S
C733   S791    1.846   .     S
C733   N761    1.392   .     A
C733   C1325   1.458   .     S
C734   S792    1.844   .     S
C734   N762    1.391   .     A
C735   H751    1.084   .     S
C735   O788    1.221   .     D
C735   C612    1.482   1_655 S
C736   H753    1.084   .     S
C736   O764    1.220   .     D
C737   H754    1.075   .     S
C737   O765    1.220   .     D
C737   C746    1.485   .     S
C738   O774    1.316   .     A
C738   O783    1.309   .     A
C739   C747    1.498   .     S
C739   H755    1.076   .     S
C739   O766    1.220   .     D
C740   C748    1.500   .     S
C740   O767    1.220   .     D
C740   H756    1.085   .     S
C741   H757    1.082   .     S
C741   O768    1.220   .     D
C742   O784    1.293   .     A
C742   O786    1.316   .     A
C742   C744    1.453   .     S
C743   O785    1.292   .     A
C743   C745    1.451   .     S
C743   O787    1.316   .     A
C745   C604    1.479   1_655 S
C745   C612    1.376   1_655 S
C746   C1144   1.405   1_545 S
C747   C926    1.407   .     S
C748   C944    1.405   .     S
Cu749  O784    1.977   .     S
Cu749  Cu750   2.719   .     S
Cu749  N761    2.043   .     S
Cu749  O787    1.990   .     S
Cu749  O783    1.979   .     S
Cu749  O763    1.967   .     S
Cu750  O786    1.990   .     S
Cu750  N762    2.043   .     S
Cu750  O785    1.977   .     S
Cu750  O782    1.979   .     S
Cu750  O774    1.967   .     S
H752   O781    0.991   .     S
H758   O771    0.991   .     S
H759   O775    0.986   .     S
H760   O778    0.991   .     S
O769   S789    1.490   .     D
O770   S789    1.501   .     D
O771   S789    1.681   .     S
O772   S790    1.500   .     D
O773   S790    1.490   .     D
O775   S790    1.677   .     S
O776   S791    1.501   .     D
O777   S791    1.500   .     D
O778   S791    1.675   .     S
O779   S792    1.501   .     D
O780   S792    1.501   .     D
O781   S792    1.676   .     S
C793   O829    1.316   .     A
C793   C796    1.478   .     S
C793   O848    1.306   .     A
C794   C796    1.410   .     A
C794   C807    1.499   .     S
C795   C813    1.420   .     A
C795   C814    1.416   .     A
C795   C804    1.482   .     S
C796   C812    1.416   .     A
C797   N828    1.401   .     A
C797   S855    1.838   .     S
C798   N827    1.400   .     A
C798   S856    1.835   .     S
C798   C1394   1.457   .     S
C799   S857    1.846   .     S
C799   N827    1.392   .     A
C799   C1391   1.458   .     S
C800   S858    1.844   .     S
C800   N828    1.391   .     A
C801   H817    1.084   .     S
C801   O854    1.221   .     D
C801   C876    1.482   .     S
C802   H819    1.084   .     S
C802   O830    1.220   .     D
C802   C943    1.479   1_455 S
C803   H820    1.075   .     S
C803   O831    1.220   .     D
C803   C812    1.485   .     S
C804   O840    1.316   .     A
C804   O849    1.309   .     A
C805   C813    1.498   .     S
C805   H821    1.076   .     S
C805   O832    1.220   .     D
C806   C814    1.500   .     S
C806   O833    1.220   .     D
C806   H822    1.085   .     S
C807   H823    1.082   .     S
C807   O834    1.220   .     D
C808   O850    1.293   .     A
C808   O852    1.316   .     A
C808   C810    1.453   .     S
C809   O851    1.292   .     A
C809   C811    1.451   .     S
C809   O853    1.316   .     A
C810   C933    1.482   1_455 S
C810   C943    1.376   1_455 S
C811   C868    1.479   .     S
C811   C876    1.376   .     S
C813   C992    1.407   .     S
C814   C1010   1.405   .     S
Cu815  O850    1.977   .     S
Cu815  Cu816   2.719   .     S
Cu815  N827    2.043   .     S
Cu815  O853    1.990   .     S
Cu815  O849    1.979   .     S
Cu815  O829    1.967   .     S
Cu816  O852    1.990   .     S
Cu816  N828    2.043   .     S
Cu816  O851    1.977   .     S
Cu816  O848    1.979   .     S
Cu816  O840    1.967   .     S
H818   O847    0.991   .     S
H824   O837    0.991   .     S
H825   O841    0.986   .     S
H826   O844    0.991   .     S
O835   S855    1.490   .     D
O836   S855    1.501   .     D
O837   S855    1.681   .     S
O838   S856    1.500   .     D
O839   S856    1.490   .     D
O841   S856    1.677   .     S
O842   S857    1.501   .     D
O843   S857    1.500   .     D
O844   S857    1.675   .     S
O845   S858    1.501   .     D
O846   S858    1.501   .     D
O847   S858    1.676   .     S
C859   O895    1.316   .     A
C859   C862    1.478   .     S
C859   O914    1.306   .     A
C860   C862    1.410   .     A
C860   C873    1.499   .     S
C861   C879    1.420   .     A
C861   C880    1.416   .     A
C861   C870    1.482   .     S
C862   C878    1.416   .     A
C863   N894    1.401   .     A
C863   S921    1.838   .     S
C864   N893    1.400   .     A
C864   S922    1.835   .     S
C864   C1460   1.457   .     S
C865   S923    1.846   .     S
C865   N893    1.392   .     A
C865   C1457   1.458   .     S
C866   S924    1.844   .     S
C866   N894    1.391   .     A
C867   H883    1.084   .     S
C867   O920    1.221   .     D
C867   C942    1.482   .     S
C868   H885    1.084   .     S
C868   O896    1.220   .     D
C869   H886    1.075   .     S
C869   O897    1.220   .     D
C869   C878    1.485   .     S
C870   O906    1.316   .     A
C870   O915    1.309   .     A
C871   C879    1.498   .     S
C871   H887    1.076   .     S
C871   O898    1.220   .     D
C872   C880    1.500   .     S
C872   O899    1.220   .     D
C872   H888    1.085   .     S
C873   H889    1.082   .     S
C873   O900    1.220   .     D
C874   O916    1.293   .     A
C874   O918    1.316   .     A
C874   C876    1.453   .     S
C875   O917    1.292   .     A
C875   C877    1.451   .     S
C875   O919    1.316   .     A
C877   C934    1.479   .     S
C877   C942    1.376   .     S
C879   C1058   1.407   .     S
C880   C1076   1.405   .     S
Cu881  O916    1.977   .     S
Cu881  Cu882   2.719   .     S
Cu881  N893    2.043   .     S
Cu881  O919    1.990   .     S
Cu881  O915    1.979   .     S
Cu881  O895    1.967   .     S
Cu882  O918    1.990   .     S
Cu882  N894    2.043   .     S
Cu882  O917    1.977   .     S
Cu882  O914    1.979   .     S
Cu882  O906    1.967   .     S
H884   O913    0.991   .     S
H890   O903    0.991   .     S
H891   O907    0.986   .     S
H892   O910    0.991   .     S
O901   S921    1.490   .     D
O902   S921    1.501   .     D
O903   S921    1.681   .     S
O904   S922    1.500   .     D
O905   S922    1.490   .     D
O907   S922    1.677   .     S
O908   S923    1.501   .     D
O909   S923    1.500   .     D
O910   S923    1.675   .     S
O911   S924    1.501   .     D
O912   S924    1.501   .     D
O913   S924    1.676   .     S
C925   O961    1.316   .     A
C925   C928    1.478   .     S
C925   O980    1.306   .     A
C926   C928    1.410   .     A
C926   C939    1.499   .     S
C927   C945    1.420   .     A
C927   C946    1.416   .     A
C927   C936    1.482   .     S
C928   C944    1.416   .     A
C929   N960    1.401   .     A
C929   S987    1.838   .     S
C930   N959    1.400   .     A
C930   S988    1.835   .     S
C930   C1526   1.457   .     S
C931   S989    1.846   .     S
C931   N959    1.392   .     A
C931   C1523   1.458   .     S
C932   S990    1.844   .     S
C932   N960    1.391   .     A
C933   H949    1.084   .     S
C933   O986    1.221   .     D
C933   C810    1.482   1_655 S
C934   H951    1.084   .     S
C934   O962    1.220   .     D
C935   H952    1.075   .     S
C935   O963    1.220   .     D
C935   C944    1.485   .     S
C936   O972    1.316   .     A
C936   O981    1.309   .     A
C937   C945    1.498   .     S
C937   H953    1.076   .     S
C937   O964    1.220   .     D
C938   C946    1.500   .     S
C938   O965    1.220   .     D
C938   H954    1.085   .     S
C939   H955    1.082   .     S
C939   O966    1.220   .     D
C940   O982    1.293   .     A
C940   O984    1.316   .     A
C940   C942    1.453   .     S
C941   O983    1.292   .     A
C941   C943    1.451   .     S
C941   O985    1.316   .     A
C943   C802    1.479   1_655 S
C943   C810    1.376   1_655 S
C945   C1124   1.407   .     S
C946   C1142   1.405   .     S
Cu947  O982    1.977   .     S
Cu947  Cu948   2.719   .     S
Cu947  N959    2.043   .     S
Cu947  O985    1.990   .     S
Cu947  O981    1.979   .     S
Cu947  O961    1.967   .     S
Cu948  O984    1.990   .     S
Cu948  N960    2.043   .     S
Cu948  O983    1.977   .     S
Cu948  O980    1.979   .     S
Cu948  O972    1.967   .     S
H950   O979    0.991   .     S
H956   O969    0.991   .     S
H957   O973    0.986   .     S
H958   O976    0.991   .     S
O967   S987    1.490   .     D
O968   S987    1.501   .     D
O969   S987    1.681   .     S
O970   S988    1.500   .     D
O971   S988    1.490   .     D
O973   S988    1.677   .     S
O974   S989    1.501   .     D
O975   S989    1.500   .     D
O976   S989    1.675   .     S
O977   S990    1.501   .     D
O978   S990    1.501   .     D
O979   S990    1.676   .     S
C991   O1027   1.316   .     A
C991   C994    1.478   .     S
C991   O1046   1.306   .     A
C992   C994    1.410   .     A
C992   C1005   1.499   .     S
C993   C1011   1.420   .     A
C993   C1012   1.416   .     A
C993   C1002   1.482   .     S
C994   C1010   1.416   .     A
C995   N1026   1.401   .     A
C995   S1053   1.838   .     S
C996   N1025   1.400   .     A
C996   S1054   1.835   .     S
C996   C1592   1.457   .     S
C997   S1055   1.846   .     S
C997   N1025   1.392   .     A
C997   C1589   1.458   .     S
C998   S1056   1.844   .     S
C998   N1026   1.391   .     A
C999   H1015   1.084   .     S
C999   O1052   1.221   .     D
C999   C1074   1.482   .     S
C1000  H1017   1.084   .     S
C1000  O1028   1.220   .     D
C1000  C1141   1.479   1_455 S
C1001  H1018   1.075   .     S
C1001  O1029   1.220   .     D
C1001  C1010   1.485   .     S
C1002  O1038   1.316   .     A
C1002  O1047   1.309   .     A
C1003  C1011   1.498   .     S
C1003  H1019   1.076   .     S
C1003  O1030   1.220   .     D
C1004  C1012   1.500   .     S
C1004  O1031   1.220   .     D
C1004  H1020   1.085   .     S
C1005  H1021   1.082   .     S
C1005  O1032   1.220   .     D
C1006  O1048   1.293   .     A
C1006  O1050   1.316   .     A
C1006  C1008   1.453   .     S
C1007  O1049   1.292   .     A
C1007  C1009   1.451   .     S
C1007  O1051   1.316   .     A
C1008  C1131   1.482   1_455 S
C1008  C1141   1.376   1_455 S
C1009  C1066   1.479   .     S
C1009  C1074   1.376   .     S
C1011  C596    1.407   1_565 S
C1012  C614    1.405   1_565 S
Cu1013 O1048   1.977   .     S
Cu1013 Cu1014  2.719   .     S
Cu1013 N1025   2.043   .     S
Cu1013 O1051   1.990   .     S
Cu1013 O1047   1.979   .     S
Cu1013 O1027   1.967   .     S
Cu1014 O1050   1.990   .     S
Cu1014 N1026   2.043   .     S
Cu1014 O1049   1.977   .     S
Cu1014 O1046   1.979   .     S
Cu1014 O1038   1.967   .     S
H1016  O1045   0.991   .     S
H1022  O1035   0.991   .     S
H1023  O1039   0.986   .     S
H1024  O1042   0.991   .     S
O1033  S1053   1.490   .     D
O1034  S1053   1.501   .     D
O1035  S1053   1.681   .     S
O1036  S1054   1.500   .     D
O1037  S1054   1.490   .     D
O1039  S1054   1.677   .     S
O1040  S1055   1.501   .     D
O1041  S1055   1.500   .     D
O1042  S1055   1.675   .     S
O1043  S1056   1.501   .     D
O1044  S1056   1.501   .     D
O1045  S1056   1.676   .     S
C1057  O1093   1.316   .     A
C1057  C1060   1.478   .     S
C1057  O1112   1.306   .     A
C1058  C1060   1.410   .     A
C1058  C1071   1.499   .     S
C1059  C1077   1.420   .     A
C1059  C1078   1.416   .     A
C1059  C1068   1.482   .     S
C1060  C1076   1.416   .     A
C1061  N1092   1.401   .     A
C1061  S1119   1.838   .     S
C1062  N1091   1.400   .     A
C1062  S1120   1.835   .     S
C1062  C1658   1.457   .     S
C1063  S1121   1.846   .     S
C1063  N1091   1.392   .     A
C1063  C1655   1.458   .     S
C1064  S1122   1.844   .     S
C1064  N1092   1.391   .     A
C1065  H1081   1.084   .     S
C1065  O1118   1.221   .     D
C1065  C1140   1.482   .     S
C1066  H1083   1.084   .     S
C1066  O1094   1.220   .     D
C1067  H1084   1.075   .     S
C1067  O1095   1.220   .     D
C1067  C1076   1.485   .     S
C1068  O1104   1.316   .     A
C1068  O1113   1.309   .     A
C1069  C1077   1.498   .     S
C1069  H1085   1.076   .     S
C1069  O1096   1.220   .     D
C1070  C1078   1.500   .     S
C1070  O1097   1.220   .     D
C1070  H1086   1.085   .     S
C1071  H1087   1.082   .     S
C1071  O1098   1.220   .     D
C1072  O1114   1.293   .     A
C1072  O1116   1.316   .     A
C1072  C1074   1.453   .     S
C1073  O1115   1.292   .     A
C1073  C1075   1.451   .     S
C1073  O1117   1.316   .     A
C1075  C1132   1.479   .     S
C1075  C1140   1.376   .     S
C1077  C662    1.407   1_565 S
C1078  C680    1.405   1_565 S
Cu1079 O1114   1.977   .     S
Cu1079 Cu1080  2.719   .     S
Cu1079 N1091   2.043   .     S
Cu1079 O1117   1.990   .     S
Cu1079 O1113   1.979   .     S
Cu1079 O1093   1.967   .     S
Cu1080 O1116   1.990   .     S
Cu1080 N1092   2.043   .     S
Cu1080 O1115   1.977   .     S
Cu1080 O1112   1.979   .     S
Cu1080 O1104   1.967   .     S
H1082  O1111   0.991   .     S
H1088  O1101   0.991   .     S
H1089  O1105   0.986   .     S
H1090  O1108   0.991   .     S
O1099  S1119   1.490   .     D
O1100  S1119   1.501   .     D
O1101  S1119   1.681   .     S
O1102  S1120   1.500   .     D
O1103  S1120   1.490   .     D
O1105  S1120   1.677   .     S
O1106  S1121   1.501   .     D
O1107  S1121   1.500   .     D
O1108  S1121   1.675   .     S
O1109  S1122   1.501   .     D
O1110  S1122   1.501   .     D
O1111  S1122   1.676   .     S
C1123  O1159   1.316   .     A
C1123  C1126   1.478   .     S
C1123  O1178   1.306   .     A
C1124  C1126   1.410   .     A
C1124  C1137   1.499   .     S
C1125  C1143   1.420   .     A
C1125  C1144   1.416   .     A
C1125  C1134   1.482   .     S
C1126  C1142   1.416   .     A
C1127  N1158   1.401   .     A
C1127  S1185   1.838   .     S
C1128  N1157   1.400   .     A
C1128  S1186   1.835   .     S
C1128  C1724   1.457   .     S
C1129  S1187   1.846   .     S
C1129  N1157   1.392   .     A
C1129  C1721   1.458   .     S
C1130  S1188   1.844   .     S
C1130  N1158   1.391   .     A
C1131  H1147   1.084   .     S
C1131  O1184   1.221   .     D
C1131  C1008   1.482   1_655 S
C1132  H1149   1.084   .     S
C1132  O1160   1.220   .     D
C1133  H1150   1.075   .     S
C1133  O1161   1.220   .     D
C1133  C1142   1.485   .     S
C1134  O1170   1.316   .     A
C1134  O1179   1.309   .     A
C1135  C1143   1.498   .     S
C1135  H1151   1.076   .     S
C1135  O1162   1.220   .     D
C1136  C1144   1.500   .     S
C1136  O1163   1.220   .     D
C1136  H1152   1.085   .     S
C1137  H1153   1.082   .     S
C1137  O1164   1.220   .     D
C1138  O1180   1.293   .     A
C1138  O1182   1.316   .     A
C1138  C1140   1.453   .     S
C1139  O1181   1.292   .     A
C1139  C1141   1.451   .     S
C1139  O1183   1.316   .     A
C1141  C1000   1.479   1_655 S
C1141  C1008   1.376   1_655 S
C1143  C728    1.407   1_565 S
C1144  C746    1.405   1_565 S
Cu1145 O1180   1.977   .     S
Cu1145 Cu1146  2.719   .     S
Cu1145 N1157   2.043   .     S
Cu1145 O1183   1.990   .     S
Cu1145 O1179   1.979   .     S
Cu1145 O1159   1.967   .     S
Cu1146 O1182   1.990   .     S
Cu1146 N1158   2.043   .     S
Cu1146 O1181   1.977   .     S
Cu1146 O1178   1.979   .     S
Cu1146 O1170   1.967   .     S
H1148  O1177   0.991   .     S
H1154  O1167   0.991   .     S
H1155  O1171   0.986   .     S
H1156  O1174   0.991   .     S
O1165  S1185   1.490   .     D
O1166  S1185   1.501   .     D
O1167  S1185   1.681   .     S
O1168  S1186   1.500   .     D
O1169  S1186   1.490   .     D
O1171  S1186   1.677   .     S
O1172  S1187   1.501   .     D
O1173  S1187   1.500   .     D
O1174  S1187   1.675   .     S
O1175  S1188   1.501   .     D
O1176  S1188   1.501   .     D
O1177  S1188   1.676   .     S
C1189  O1225   1.316   .     A
C1189  C1192   1.478   .     S
C1189  O1244   1.306   .     A
C1190  C1192   1.410   .     A
C1190  C1203   1.499   .     S
C1190  C1605   1.407   1_545 S
C1191  C1209   1.420   .     A
C1191  C1210   1.416   .     A
C1191  C1200   1.482   .     S
C1192  C1208   1.416   .     A
C1193  N1224   1.401   .     A
C1193  S1251   1.838   .     S
C1194  N1223   1.400   .     A
C1194  S1252   1.835   .     S
C1194  C8      1.457   1_556 S
C1195  S1253   1.846   .     S
C1195  N1223   1.392   .     A
C1195  C5      1.458   1_556 S
C1196  S1254   1.844   .     S
C1196  N1224   1.391   .     A
C1197  H1213   1.084   .     S
C1197  O1250   1.221   .     D
C1197  C1272   1.482   .     S
C1198  H1215   1.084   .     S
C1198  O1226   1.220   .     D
C1198  C1339   1.479   1_455 S
C1199  H1216   1.075   .     S
C1199  O1227   1.220   .     D
C1199  C1208   1.485   .     S
C1200  O1236   1.316   .     A
C1200  O1245   1.309   .     A
C1201  C1209   1.498   .     S
C1201  H1217   1.076   .     S
C1201  O1228   1.220   .     D
C1202  C1210   1.500   .     S
C1202  O1229   1.220   .     D
C1202  H1218   1.085   .     S
C1203  H1219   1.082   .     S
C1203  O1230   1.220   .     D
C1204  O1246   1.293   .     A
C1204  O1248   1.316   .     A
C1204  C1206   1.453   .     S
C1205  O1247   1.292   .     A
C1205  C1207   1.451   .     S
C1205  O1249   1.316   .     A
C1206  C1329   1.482   1_455 S
C1206  C1339   1.376   1_455 S
C1207  C1264   1.479   .     S
C1207  C1272   1.376   .     S
C1208  C1606   1.405   1_545 S
C1209  C1388   1.407   .     S
C1210  C1406   1.405   .     S
Cu1211 O1246   1.977   .     S
Cu1211 Cu1212  2.719   .     S
Cu1211 N1223   2.043   .     S
Cu1211 O1249   1.990   .     S
Cu1211 O1245   1.979   .     S
Cu1211 O1225   1.967   .     S
Cu1212 O1248   1.990   .     S
Cu1212 N1224   2.043   .     S
Cu1212 O1247   1.977   .     S
Cu1212 O1244   1.979   .     S
Cu1212 O1236   1.967   .     S
H1214  O1243   0.991   .     S
H1220  O1233   0.991   .     S
H1221  O1237   0.986   .     S
H1222  O1240   0.991   .     S
O1231  S1251   1.490   .     D
O1232  S1251   1.501   .     D
O1233  S1251   1.681   .     S
O1234  S1252   1.500   .     D
O1235  S1252   1.490   .     D
O1237  S1252   1.677   .     S
O1238  S1253   1.501   .     D
O1239  S1253   1.500   .     D
O1240  S1253   1.675   .     S
O1241  S1254   1.501   .     D
O1242  S1254   1.501   .     D
O1243  S1254   1.676   .     S
C1255  O1291   1.316   .     A
C1255  C1258   1.478   .     S
C1255  O1310   1.306   .     A
C1256  C1258   1.410   .     A
C1256  C1269   1.499   .     S
C1256  C1671   1.407   1_545 S
C1257  C1275   1.420   .     A
C1257  C1276   1.416   .     A
C1257  C1266   1.482   .     S
C1258  C1274   1.416   .     A
C1259  N1290   1.401   .     A
C1259  S1317   1.838   .     S
C1260  N1289   1.400   .     A
C1260  S1318   1.835   .     S
C1260  C74     1.457   1_556 S
C1261  S1319   1.846   .     S
C1261  N1289   1.392   .     A
C1261  C71     1.458   1_556 S
C1262  S1320   1.844   .     S
C1262  N1290   1.391   .     A
C1263  H1279   1.084   .     S
C1263  O1316   1.221   .     D
C1263  C1338   1.482   .     S
C1264  H1281   1.084   .     S
C1264  O1292   1.220   .     D
C1265  H1282   1.075   .     S
C1265  O1293   1.220   .     D
C1265  C1274   1.485   .     S
C1266  O1302   1.316   .     A
C1266  O1311   1.309   .     A
C1267  C1275   1.498   .     S
C1267  H1283   1.076   .     S
C1267  O1294   1.220   .     D
C1268  C1276   1.500   .     S
C1268  O1295   1.220   .     D
C1268  H1284   1.085   .     S
C1269  H1285   1.082   .     S
C1269  O1296   1.220   .     D
C1270  O1312   1.293   .     A
C1270  O1314   1.316   .     A
C1270  C1272   1.453   .     S
C1271  O1313   1.292   .     A
C1271  C1273   1.451   .     S
C1271  O1315   1.316   .     A
C1273  C1330   1.479   .     S
C1273  C1338   1.376   .     S
C1274  C1672   1.405   1_545 S
C1275  C1454   1.407   .     S
C1276  C1472   1.405   .     S
Cu1277 O1312   1.977   .     S
Cu1277 Cu1278  2.719   .     S
Cu1277 N1289   2.043   .     S
Cu1277 O1315   1.990   .     S
Cu1277 O1311   1.979   .     S
Cu1277 O1291   1.967   .     S
Cu1278 O1314   1.990   .     S
Cu1278 N1290   2.043   .     S
Cu1278 O1313   1.977   .     S
Cu1278 O1310   1.979   .     S
Cu1278 O1302   1.967   .     S
H1280  O1309   0.991   .     S
H1286  O1299   0.991   .     S
H1287  O1303   0.986   .     S
H1288  O1306   0.991   .     S
O1297  S1317   1.490   .     D
O1298  S1317   1.501   .     D
O1299  S1317   1.681   .     S
O1300  S1318   1.500   .     D
O1301  S1318   1.490   .     D
O1303  S1318   1.677   .     S
O1304  S1319   1.501   .     D
O1305  S1319   1.500   .     D
O1306  S1319   1.675   .     S
O1307  S1320   1.501   .     D
O1308  S1320   1.501   .     D
O1309  S1320   1.676   .     S
C1321  O1357   1.316   .     A
C1321  C1324   1.478   .     S
C1321  O1376   1.306   .     A
C1322  C1324   1.410   .     A
C1322  C1335   1.499   .     S
C1322  C1737   1.407   1_545 S
C1323  C1341   1.420   .     A
C1323  C1342   1.416   .     A
C1323  C1332   1.482   .     S
C1324  C1340   1.416   .     A
C1325  N1356   1.401   .     A
C1325  S1383   1.838   .     S
C1326  N1355   1.400   .     A
C1326  S1384   1.835   .     S
C1326  C140    1.457   1_556 S
C1327  S1385   1.846   .     S
C1327  N1355   1.392   .     A
C1327  C137    1.458   1_556 S
C1328  S1386   1.844   .     S
C1328  N1356   1.391   .     A
C1329  H1345   1.084   .     S
C1329  O1382   1.221   .     D
C1329  C1206   1.482   1_655 S
C1330  H1347   1.084   .     S
C1330  O1358   1.220   .     D
C1331  H1348   1.075   .     S
C1331  O1359   1.220   .     D
C1331  C1340   1.485   .     S
C1332  O1368   1.316   .     A
C1332  O1377   1.309   .     A
C1333  C1341   1.498   .     S
C1333  H1349   1.076   .     S
C1333  O1360   1.220   .     D
C1334  C1342   1.500   .     S
C1334  O1361   1.220   .     D
C1334  H1350   1.085   .     S
C1335  H1351   1.082   .     S
C1335  O1362   1.220   .     D
C1336  O1378   1.293   .     A
C1336  O1380   1.316   .     A
C1336  C1338   1.453   .     S
C1337  O1379   1.292   .     A
C1337  C1339   1.451   .     S
C1337  O1381   1.316   .     A
C1339  C1198   1.479   1_655 S
C1339  C1206   1.376   1_655 S
C1340  C1738   1.405   1_545 S
C1341  C1520   1.407   .     S
C1342  C1538   1.405   .     S
Cu1343 O1378   1.977   .     S
Cu1343 Cu1344  2.719   .     S
Cu1343 N1355   2.043   .     S
Cu1343 O1381   1.990   .     S
Cu1343 O1377   1.979   .     S
Cu1343 O1357   1.967   .     S
Cu1344 O1380   1.990   .     S
Cu1344 N1356   2.043   .     S
Cu1344 O1379   1.977   .     S
Cu1344 O1376   1.979   .     S
Cu1344 O1368   1.967   .     S
H1346  O1375   0.991   .     S
H1352  O1365   0.991   .     S
H1353  O1369   0.986   .     S
H1354  O1372   0.991   .     S
O1363  S1383   1.490   .     D
O1364  S1383   1.501   .     D
O1365  S1383   1.681   .     S
O1366  S1384   1.500   .     D
O1367  S1384   1.490   .     D
O1369  S1384   1.677   .     S
O1370  S1385   1.501   .     D
O1371  S1385   1.500   .     D
O1372  S1385   1.675   .     S
O1373  S1386   1.501   .     D
O1374  S1386   1.501   .     D
O1375  S1386   1.676   .     S
C1387  O1423   1.316   .     A
C1387  C1390   1.478   .     S
C1387  O1442   1.306   .     A
C1388  C1390   1.410   .     A
C1388  C1401   1.499   .     S
C1389  C1407   1.420   .     A
C1389  C1408   1.416   .     A
C1389  C1398   1.482   .     S
C1390  C1406   1.416   .     A
C1391  N1422   1.401   .     A
C1391  S1449   1.838   .     S
C1392  N1421   1.400   .     A
C1392  S1450   1.835   .     S
C1392  C206    1.457   1_556 S
C1393  S1451   1.846   .     S
C1393  N1421   1.392   .     A
C1393  C203    1.458   1_556 S
C1394  S1452   1.844   .     S
C1394  N1422   1.391   .     A
C1395  H1411   1.084   .     S
C1395  O1448   1.221   .     D
C1395  C1470   1.482   .     S
C1396  H1413   1.084   .     S
C1396  O1424   1.220   .     D
C1396  C1537   1.479   1_455 S
C1397  H1414   1.075   .     S
C1397  O1425   1.220   .     D
C1397  C1406   1.485   .     S
C1398  O1434   1.316   .     A
C1398  O1443   1.309   .     A
C1399  C1407   1.498   .     S
C1399  H1415   1.076   .     S
C1399  O1426   1.220   .     D
C1400  C1408   1.500   .     S
C1400  O1427   1.220   .     D
C1400  H1416   1.085   .     S
C1401  H1417   1.082   .     S
C1401  O1428   1.220   .     D
C1402  O1444   1.293   .     A
C1402  O1446   1.316   .     A
C1402  C1404   1.453   .     S
C1403  O1445   1.292   .     A
C1403  C1405   1.451   .     S
C1403  O1447   1.316   .     A
C1404  C1527   1.482   1_455 S
C1404  C1537   1.376   1_455 S
C1405  C1462   1.479   .     S
C1405  C1470   1.376   .     S
C1407  C1586   1.407   .     S
C1408  C1604   1.405   .     S
Cu1409 O1444   1.977   .     S
Cu1409 Cu1410  2.719   .     S
Cu1409 N1421   2.043   .     S
Cu1409 O1447   1.990   .     S
Cu1409 O1443   1.979   .     S
Cu1409 O1423   1.967   .     S
Cu1410 O1446   1.990   .     S
Cu1410 N1422   2.043   .     S
Cu1410 O1445   1.977   .     S
Cu1410 O1442   1.979   .     S
Cu1410 O1434   1.967   .     S
H1412  O1441   0.991   .     S
H1418  O1431   0.991   .     S
H1419  O1435   0.986   .     S
H1420  O1438   0.991   .     S
O1429  S1449   1.490   .     D
O1430  S1449   1.501   .     D
O1431  S1449   1.681   .     S
O1432  S1450   1.500   .     D
O1433  S1450   1.490   .     D
O1435  S1450   1.677   .     S
O1436  S1451   1.501   .     D
O1437  S1451   1.500   .     D
O1438  S1451   1.675   .     S
O1439  S1452   1.501   .     D
O1440  S1452   1.501   .     D
O1441  S1452   1.676   .     S
C1453  O1489   1.316   .     A
C1453  C1456   1.478   .     S
C1453  O1508   1.306   .     A
C1454  C1456   1.410   .     A
C1454  C1467   1.499   .     S
C1455  C1473   1.420   .     A
C1455  C1474   1.416   .     A
C1455  C1464   1.482   .     S
C1456  C1472   1.416   .     A
C1457  N1488   1.401   .     A
C1457  S1515   1.838   .     S
C1458  N1487   1.400   .     A
C1458  S1516   1.835   .     S
C1458  C272    1.457   1_556 S
C1459  S1517   1.846   .     S
C1459  N1487   1.392   .     A
C1459  C269    1.458   1_556 S
C1460  S1518   1.844   .     S
C1460  N1488   1.391   .     A
C1461  H1477   1.084   .     S
C1461  O1514   1.221   .     D
C1461  C1536   1.482   .     S
C1462  H1479   1.084   .     S
C1462  O1490   1.220   .     D
C1463  H1480   1.075   .     S
C1463  O1491   1.220   .     D
C1463  C1472   1.485   .     S
C1464  O1500   1.316   .     A
C1464  O1509   1.309   .     A
C1465  C1473   1.498   .     S
C1465  H1481   1.076   .     S
C1465  O1492   1.220   .     D
C1466  C1474   1.500   .     S
C1466  O1493   1.220   .     D
C1466  H1482   1.085   .     S
C1467  H1483   1.082   .     S
C1467  O1494   1.220   .     D
C1468  O1510   1.293   .     A
C1468  O1512   1.316   .     A
C1468  C1470   1.453   .     S
C1469  O1511   1.292   .     A
C1469  C1471   1.451   .     S
C1469  O1513   1.316   .     A
C1471  C1528   1.479   .     S
C1471  C1536   1.376   .     S
C1473  C1652   1.407   .     S
C1474  C1670   1.405   .     S
Cu1475 O1510   1.977   .     S
Cu1475 Cu1476  2.719   .     S
Cu1475 N1487   2.043   .     S
Cu1475 O1513   1.990   .     S
Cu1475 O1509   1.979   .     S
Cu1475 O1489   1.967   .     S
Cu1476 O1512   1.990   .     S
Cu1476 N1488   2.043   .     S
Cu1476 O1511   1.977   .     S
Cu1476 O1508   1.979   .     S
Cu1476 O1500   1.967   .     S
H1478  O1507   0.991   .     S
H1484  O1497   0.991   .     S
H1485  O1501   0.986   .     S
H1486  O1504   0.991   .     S
O1495  S1515   1.490   .     D
O1496  S1515   1.501   .     D
O1497  S1515   1.681   .     S
O1498  S1516   1.500   .     D
O1499  S1516   1.490   .     D
O1501  S1516   1.677   .     S
O1502  S1517   1.501   .     D
O1503  S1517   1.500   .     D
O1504  S1517   1.675   .     S
O1505  S1518   1.501   .     D
O1506  S1518   1.501   .     D
O1507  S1518   1.676   .     S
C1519  O1555   1.316   .     A
C1519  C1522   1.478   .     S
C1519  O1574   1.306   .     A
C1520  C1522   1.410   .     A
C1520  C1533   1.499   .     S
C1521  C1539   1.420   .     A
C1521  C1540   1.416   .     A
C1521  C1530   1.482   .     S
C1522  C1538   1.416   .     A
C1523  N1554   1.401   .     A
C1523  S1581   1.838   .     S
C1524  N1553   1.400   .     A
C1524  S1582   1.835   .     S
C1524  C338    1.457   1_556 S
C1525  S1583   1.846   .     S
C1525  N1553   1.392   .     A
C1525  C335    1.458   1_556 S
C1526  S1584   1.844   .     S
C1526  N1554   1.391   .     A
C1527  H1543   1.084   .     S
C1527  O1580   1.221   .     D
C1527  C1404   1.482   1_655 S
C1528  H1545   1.084   .     S
C1528  O1556   1.220   .     D
C1529  H1546   1.075   .     S
C1529  O1557   1.220   .     D
C1529  C1538   1.485   .     S
C1530  O1566   1.316   .     A
C1530  O1575   1.309   .     A
C1531  C1539   1.498   .     S
C1531  H1547   1.076   .     S
C1531  O1558   1.220   .     D
C1532  C1540   1.500   .     S
C1532  O1559   1.220   .     D
C1532  H1548   1.085   .     S
C1533  H1549   1.082   .     S
C1533  O1560   1.220   .     D
C1534  O1576   1.293   .     A
C1534  O1578   1.316   .     A
C1534  C1536   1.453   .     S
C1535  O1577   1.292   .     A
C1535  C1537   1.451   .     S
C1535  O1579   1.316   .     A
C1537  C1396   1.479   1_655 S
C1537  C1404   1.376   1_655 S
C1539  C1718   1.407   .     S
C1540  C1736   1.405   .     S
Cu1541 O1576   1.977   .     S
Cu1541 Cu1542  2.719   .     S
Cu1541 N1553   2.043   .     S
Cu1541 O1579   1.990   .     S
Cu1541 O1575   1.979   .     S
Cu1541 O1555   1.967   .     S
Cu1542 O1578   1.990   .     S
Cu1542 N1554   2.043   .     S
Cu1542 O1577   1.977   .     S
Cu1542 O1574   1.979   .     S
Cu1542 O1566   1.967   .     S
H1544  O1573   0.991   .     S
H1550  O1563   0.991   .     S
H1551  O1567   0.986   .     S
H1552  O1570   0.991   .     S
O1561  S1581   1.490   .     D
O1562  S1581   1.501   .     D
O1563  S1581   1.681   .     S
O1564  S1582   1.500   .     D
O1565  S1582   1.490   .     D
O1567  S1582   1.677   .     S
O1568  S1583   1.501   .     D
O1569  S1583   1.500   .     D
O1570  S1583   1.675   .     S
O1571  S1584   1.501   .     D
O1572  S1584   1.501   .     D
O1573  S1584   1.676   .     S
C1585  O1621   1.316   .     A
C1585  C1588   1.478   .     S
C1585  O1640   1.306   .     A
C1586  C1588   1.410   .     A
C1586  C1599   1.499   .     S
C1587  C1605   1.420   .     A
C1587  C1606   1.416   .     A
C1587  C1596   1.482   .     S
C1588  C1604   1.416   .     A
C1589  N1620   1.401   .     A
C1589  S1647   1.838   .     S
C1590  N1619   1.400   .     A
C1590  S1648   1.835   .     S
C1590  C404    1.457   1_556 S
C1591  S1649   1.846   .     S
C1591  N1619   1.392   .     A
C1591  C401    1.458   1_556 S
C1592  S1650   1.844   .     S
C1592  N1620   1.391   .     A
C1593  H1609   1.084   .     S
C1593  O1646   1.221   .     D
C1593  C1668   1.482   .     S
C1594  H1611   1.084   .     S
C1594  O1622   1.220   .     D
C1594  C1735   1.479   1_455 S
C1595  H1612   1.075   .     S
C1595  O1623   1.220   .     D
C1595  C1604   1.485   .     S
C1596  O1632   1.316   .     A
C1596  O1641   1.309   .     A
C1597  C1605   1.498   .     S
C1597  H1613   1.076   .     S
C1597  O1624   1.220   .     D
C1598  C1606   1.500   .     S
C1598  O1625   1.220   .     D
C1598  H1614   1.085   .     S
C1599  H1615   1.082   .     S
C1599  O1626   1.220   .     D
C1600  O1642   1.293   .     A
C1600  O1644   1.316   .     A
C1600  C1602   1.453   .     S
C1601  O1643   1.292   .     A
C1601  C1603   1.451   .     S
C1601  O1645   1.316   .     A
C1602  C1725   1.482   1_455 S
C1602  C1735   1.376   1_455 S
C1603  C1660   1.479   .     S
C1603  C1668   1.376   .     S
C1605  C1190   1.407   1_565 S
C1606  C1208   1.405   1_565 S
Cu1607 O1642   1.977   .     S
Cu1607 Cu1608  2.719   .     S
Cu1607 N1619   2.043   .     S
Cu1607 O1645   1.990   .     S
Cu1607 O1641   1.979   .     S
Cu1607 O1621   1.967   .     S
Cu1608 O1644   1.990   .     S
Cu1608 N1620   2.043   .     S
Cu1608 O1643   1.977   .     S
Cu1608 O1640   1.979   .     S
Cu1608 O1632   1.967   .     S
H1610  O1639   0.991   .     S
H1616  O1629   0.991   .     S
H1617  O1633   0.986   .     S
H1618  O1636   0.991   .     S
O1627  S1647   1.490   .     D
O1628  S1647   1.501   .     D
O1629  S1647   1.681   .     S
O1630  S1648   1.500   .     D
O1631  S1648   1.490   .     D
O1633  S1648   1.677   .     S
O1634  S1649   1.501   .     D
O1635  S1649   1.500   .     D
O1636  S1649   1.675   .     S
O1637  S1650   1.501   .     D
O1638  S1650   1.501   .     D
O1639  S1650   1.676   .     S
C1651  O1687   1.316   .     A
C1651  C1654   1.478   .     S
C1651  O1706   1.306   .     A
C1652  C1654   1.410   .     A
C1652  C1665   1.499   .     S
C1653  C1671   1.420   .     A
C1653  C1672   1.416   .     A
C1653  C1662   1.482   .     S
C1654  C1670   1.416   .     A
C1655  N1686   1.401   .     A
C1655  S1713   1.838   .     S
C1656  N1685   1.400   .     A
C1656  S1714   1.835   .     S
C1656  C470    1.457   1_556 S
C1657  S1715   1.846   .     S
C1657  N1685   1.392   .     A
C1657  C467    1.458   1_556 S
C1658  S1716   1.844   .     S
C1658  N1686   1.391   .     A
C1659  H1675   1.084   .     S
C1659  O1712   1.221   .     D
C1659  C1734   1.482   .     S
C1660  H1677   1.084   .     S
C1660  O1688   1.220   .     D
C1661  H1678   1.075   .     S
C1661  O1689   1.220   .     D
C1661  C1670   1.485   .     S
C1662  O1698   1.316   .     A
C1662  O1707   1.309   .     A
C1663  C1671   1.498   .     S
C1663  H1679   1.076   .     S
C1663  O1690   1.220   .     D
C1664  C1672   1.500   .     S
C1664  O1691   1.220   .     D
C1664  H1680   1.085   .     S
C1665  H1681   1.082   .     S
C1665  O1692   1.220   .     D
C1666  O1708   1.293   .     A
C1666  O1710   1.316   .     A
C1666  C1668   1.453   .     S
C1667  O1709   1.292   .     A
C1667  C1669   1.451   .     S
C1667  O1711   1.316   .     A
C1669  C1726   1.479   .     S
C1669  C1734   1.376   .     S
C1671  C1256   1.407   1_565 S
C1672  C1274   1.405   1_565 S
Cu1673 O1708   1.977   .     S
Cu1673 Cu1674  2.719   .     S
Cu1673 N1685   2.043   .     S
Cu1673 O1711   1.990   .     S
Cu1673 O1707   1.979   .     S
Cu1673 O1687   1.967   .     S
Cu1674 O1710   1.990   .     S
Cu1674 N1686   2.043   .     S
Cu1674 O1709   1.977   .     S
Cu1674 O1706   1.979   .     S
Cu1674 O1698   1.967   .     S
H1676  O1705   0.991   .     S
H1682  O1695   0.991   .     S
H1683  O1699   0.986   .     S
H1684  O1702   0.991   .     S
O1693  S1713   1.490   .     D
O1694  S1713   1.501   .     D
O1695  S1713   1.681   .     S
O1696  S1714   1.500   .     D
O1697  S1714   1.490   .     D
O1699  S1714   1.677   .     S
O1700  S1715   1.501   .     D
O1701  S1715   1.500   .     D
O1702  S1715   1.675   .     S
O1703  S1716   1.501   .     D
O1704  S1716   1.501   .     D
O1705  S1716   1.676   .     S
C1717  O1753   1.316   .     A
C1717  C1720   1.478   .     S
C1717  O1772   1.306   .     A
C1718  C1720   1.410   .     A
C1718  C1731   1.499   .     S
C1719  C1737   1.420   .     A
C1719  C1738   1.416   .     A
C1719  C1728   1.482   .     S
C1720  C1736   1.416   .     A
C1721  N1752   1.401   .     A
C1721  S1779   1.838   .     S
C1722  N1751   1.400   .     A
C1722  S1780   1.835   .     S
C1722  C536    1.457   1_556 S
C1723  S1781   1.846   .     S
C1723  N1751   1.392   .     A
C1723  C533    1.458   1_556 S
C1724  S1782   1.844   .     S
C1724  N1752   1.391   .     A
C1725  H1741   1.084   .     S
C1725  O1778   1.221   .     D
C1725  C1602   1.482   1_655 S
C1726  H1743   1.084   .     S
C1726  O1754   1.220   .     D
C1727  H1744   1.075   .     S
C1727  O1755   1.220   .     D
C1727  C1736   1.485   .     S
C1728  O1764   1.316   .     A
C1728  O1773   1.309   .     A
C1729  C1737   1.498   .     S
C1729  H1745   1.076   .     S
C1729  O1756   1.220   .     D
C1730  C1738   1.500   .     S
C1730  O1757   1.220   .     D
C1730  H1746   1.085   .     S
C1731  H1747   1.082   .     S
C1731  O1758   1.220   .     D
C1732  O1774   1.293   .     A
C1732  O1776   1.316   .     A
C1732  C1734   1.453   .     S
C1733  O1775   1.292   .     A
C1733  C1735   1.451   .     S
C1733  O1777   1.316   .     A
C1735  C1594   1.479   1_655 S
C1735  C1602   1.376   1_655 S
C1737  C1322   1.407   1_565 S
C1738  C1340   1.405   1_565 S
Cu1739 O1774   1.977   .     S
Cu1739 Cu1740  2.719   .     S
Cu1739 N1751   2.043   .     S
Cu1739 O1777   1.990   .     S
Cu1739 O1773   1.979   .     S
Cu1739 O1753   1.967   .     S
Cu1740 O1776   1.990   .     S
Cu1740 N1752   2.043   .     S
Cu1740 O1775   1.977   .     S
Cu1740 O1772   1.979   .     S
Cu1740 O1764   1.967   .     S
H1742  O1771   0.991   .     S
H1748  O1761   0.991   .     S
H1749  O1765   0.986   .     S
H1750  O1768   0.991   .     S
O1759  S1779   1.490   .     D
O1760  S1779   1.501   .     D
O1761  S1779   1.681   .     S
O1762  S1780   1.500   .     D
O1763  S1780   1.490   .     D
O1765  S1780   1.677   .     S
O1766  S1781   1.501   .     D
O1767  S1781   1.500   .     D
O1768  S1781   1.675   .     S
O1769  S1782   1.501   .     D
O1770  S1782   1.501   .     D
O1771  S1782   1.676   .     S
