data_str_m2_o10_o17_pcu_sym.234
_audit_creation_date              2020-01-03
_audit_creation_method            'Materials Studio'
_symmetry_space_group_name_H-M    'P1'
_symmetry_Int_Tables_number       1
_symmetry_cell_setting            triclinic
loop_
_symmetry_equiv_pos_as_xyz
  x,y,z
_cell_length_a                    30.0894
_cell_length_b                    26.3253
_cell_length_c                    22.7392
_cell_angle_alpha                 103.2938
_cell_angle_beta                  95.5720
_cell_angle_gamma                 95.2653
loop_
_atom_site_label
_atom_site_type_symbol
_atom_site_fract_x
_atom_site_fract_y
_atom_site_fract_z
_atom_site_U_iso_or_equiv
_atom_site_adp_type
_atom_site_occupancy
C1     C     0.24843   0.06680   0.15128   0.00000  Uiso   1.00
C2     C     0.25163   0.26655   0.18204   0.00000  Uiso   1.00
C3     C     0.01276   0.07258   0.12112   0.00000  Uiso   1.00
C4     C     0.48738   0.26033   0.21077   0.00000  Uiso   1.00
C5     C     0.24243   0.01087   0.14382   0.00000  Uiso   1.00
C6     C     0.25800   0.32246   0.18932   0.00000  Uiso   1.00
C7     C     0.16480   0.16719   0.16674   0.00000  Uiso   1.00
C8     C     0.33523   0.16595   0.16658   0.00000  Uiso   1.00
C9     C     0.41243   0.21191   0.19735   0.00000  Uiso   1.00
C10    C     0.08780   0.12106   0.13540   0.00000  Uiso   1.00
C11    C     0.38363   0.16625   0.16695   0.00000  Uiso   1.00
C12    C     0.11644   0.16668   0.16625   0.00000  Uiso   1.00
C13    C     0.40079   0.12020   0.13844   0.00000  Uiso   1.00
C14    C     0.09918   0.21256   0.19478   0.00000  Uiso   1.00
C15    C     0.44775   0.11817   0.14456   0.00000  Uiso   1.00
C16    C     0.05230   0.21462   0.18799   0.00000  Uiso   1.00
C17    C     0.47663   0.16593   0.16746   0.00000  Uiso   1.00
C18    C     0.02344   0.16690   0.16481   0.00000  Uiso   1.00
C19    C     0.45887   0.21277   0.19341   0.00000  Uiso   1.00
C20    C     0.04127   0.12011   0.13884   0.00000  Uiso   1.00
C21    C     0.46711   0.07061   0.12736   0.00000  Uiso   1.00
C22    C     0.03303   0.26222   0.20487   0.00000  Uiso   1.00
Cu23   Cu    0.25501   0.17246   0.22813   0.00000  Uiso   1.00
Cu24   Cu    0.24500   0.16087   0.10521   0.00000  Uiso   1.00
H25    H     0.02659   0.03578   0.10726   0.00000  Uiso   1.00
H26    H     0.47363   0.29719   0.22428   0.00000  Uiso   1.00
N27    N     0.23745   0.15214   0.01284   0.00000  Uiso   1.00
N28    N     0.26256   0.18119   0.32049   0.00000  Uiso   1.00
O29    O     0.25326   0.09538   0.20659   0.00000  Uiso   1.00
O30    O     0.24675   0.23796   0.12674   0.00000  Uiso   1.00
O31    O     0.24480   0.08559   0.10279   0.00000  Uiso   1.00
O32    O     0.25520   0.24774   0.23055   0.00000  Uiso   1.00
O33    O     0.18936   0.17155   0.21857   0.00000  Uiso   1.00
O34    O     0.31065   0.16179   0.11476   0.00000  Uiso   1.00
O35    O     0.18090   0.16176   0.11477   0.00000  Uiso   1.00
O36    O     0.31910   0.17157   0.21857   0.00000  Uiso   1.00
C37    C     0.39386   0.25909   0.23130   0.00000  Uiso   1.00
O38    O     0.36137   0.27515   0.20806   0.00000  Uiso   1.00
O39    O     0.41372   0.28505   0.28995   0.00000  Uiso   1.00
H40    H     0.39842   0.31675   0.30808   0.00000  Uiso   1.00
C41    C     0.10682   0.07405   0.10187   0.00000  Uiso   1.00
O42    O     0.13886   0.05785   0.12603   0.00000  Uiso   1.00
O43    O     0.08807   0.04864   0.04256   0.00000  Uiso   1.00
H44    H     0.10386   0.01731   0.02460   0.00000  Uiso   1.00
Br45   Br    0.35942   0.06408   0.08437   0.00000  Uiso   1.00
Br46   Br    0.14015   0.26826   0.25001   0.00000  Uiso   1.00
C47    C     0.44354   0.01838   0.12635   0.00000  Uiso   1.00
O48    O     0.41750   0.01434   0.16351   0.00000  Uiso   1.00
O49    O     0.45310   0.30673   0.08554   0.00000  Uiso   1.00
H50    H     0.43530   0.27347   0.08996   0.00000  Uiso   1.00
C51    C     0.05683   0.31439   0.20607   0.00000  Uiso   1.00
O52    O     0.08324   0.31829   0.16933   0.00000  Uiso   1.00
O53    O     0.04715   0.02612   0.24665   0.00000  Uiso   1.00
H54    H     0.06516   0.05930   0.24241   0.00000  Uiso   1.00
Br55   Br    0.20482   0.30645   0.06961   0.00000  Uiso   1.00
Br56   Br    0.29645   0.02684   0.26281   0.00000  Uiso   1.00
C57    C     0.19710   0.12391   0.31266   0.00000  Uiso   1.00
O58    O     0.16204   0.14384   0.31652   0.00000  Uiso   1.00
O59    O     0.19638   0.07153   0.28142   0.00000  Uiso   1.00
H60    H     0.16531   0.05538   0.26054   0.00000  Uiso   1.00
C61    C     0.29948   0.22102   0.01556   0.00000  Uiso   1.00
O62    O     0.32004   0.24264   0.31606   0.00000  Uiso   1.00
O63    O     0.31246   0.23878   0.07747   0.00000  Uiso   1.00
H64    H     0.33866   0.26777   0.08821   0.00000  Uiso   1.00
C65    C     0.74843   0.06680   0.15128   0.00000  Uiso   1.00
C66    C     0.75163   0.26655   0.18204   0.00000  Uiso   1.00
C67    C     0.51276   0.07258   0.12112   0.00000  Uiso   1.00
C68    C     0.98738   0.26033   0.21077   0.00000  Uiso   1.00
C69    C     0.74243   0.01087   0.14382   0.00000  Uiso   1.00
C70    C     0.75800   0.32246   0.18932   0.00000  Uiso   1.00
C71    C     0.66480   0.16719   0.16674   0.00000  Uiso   1.00
C72    C     0.83523   0.16595   0.16658   0.00000  Uiso   1.00
C73    C     0.91243   0.21191   0.19735   0.00000  Uiso   1.00
C74    C     0.58780   0.12106   0.13540   0.00000  Uiso   1.00
C75    C     0.88363   0.16625   0.16695   0.00000  Uiso   1.00
C76    C     0.61644   0.16668   0.16625   0.00000  Uiso   1.00
C77    C     0.90079   0.12020   0.13844   0.00000  Uiso   1.00
C78    C     0.59918   0.21256   0.19478   0.00000  Uiso   1.00
C79    C     0.94775   0.11817   0.14456   0.00000  Uiso   1.00
C80    C     0.55230   0.21462   0.18799   0.00000  Uiso   1.00
C81    C     0.97663   0.16593   0.16746   0.00000  Uiso   1.00
C82    C     0.52344   0.16690   0.16481   0.00000  Uiso   1.00
C83    C     0.95887   0.21277   0.19341   0.00000  Uiso   1.00
C84    C     0.54127   0.12011   0.13884   0.00000  Uiso   1.00
C85    C     0.96711   0.07061   0.12736   0.00000  Uiso   1.00
C86    C     0.53303   0.26222   0.20487   0.00000  Uiso   1.00
Cu87   Cu    0.75501   0.17246   0.22813   0.00000  Uiso   1.00
Cu88   Cu    0.74500   0.16087   0.10521   0.00000  Uiso   1.00
H89    H     0.52659   0.03578   0.10726   0.00000  Uiso   1.00
H90    H     0.97363   0.29719   0.22428   0.00000  Uiso   1.00
N91    N     0.73745   0.15214   0.01284   0.00000  Uiso   1.00
N92    N     0.76256   0.18119   0.32049   0.00000  Uiso   1.00
O93    O     0.75326   0.09538   0.20659   0.00000  Uiso   1.00
O94    O     0.74675   0.23796   0.12674   0.00000  Uiso   1.00
O95    O     0.74480   0.08559   0.10279   0.00000  Uiso   1.00
O96    O     0.75520   0.24774   0.23055   0.00000  Uiso   1.00
O97    O     0.68936   0.17155   0.21857   0.00000  Uiso   1.00
O98    O     0.81065   0.16179   0.11476   0.00000  Uiso   1.00
O99    O     0.68090   0.16176   0.11477   0.00000  Uiso   1.00
O100   O     0.81910   0.17157   0.21857   0.00000  Uiso   1.00
C101   C     0.89386   0.25909   0.23130   0.00000  Uiso   1.00
O102   O     0.86137   0.27515   0.20806   0.00000  Uiso   1.00
O103   O     0.91372   0.28505   0.28995   0.00000  Uiso   1.00
H104   H     0.89842   0.31675   0.30808   0.00000  Uiso   1.00
C105   C     0.60682   0.07405   0.10187   0.00000  Uiso   1.00
O106   O     0.63886   0.05785   0.12603   0.00000  Uiso   1.00
O107   O     0.58807   0.04864   0.04256   0.00000  Uiso   1.00
H108   H     0.60386   0.01731   0.02460   0.00000  Uiso   1.00
Br109  Br    0.85942   0.06408   0.08437   0.00000  Uiso   1.00
Br110  Br    0.64015   0.26826   0.25001   0.00000  Uiso   1.00
C111   C     0.94354   0.01838   0.12635   0.00000  Uiso   1.00
O112   O     0.91750   0.01434   0.16351   0.00000  Uiso   1.00
O113   O     0.95310   0.30673   0.08554   0.00000  Uiso   1.00
H114   H     0.93530   0.27347   0.08996   0.00000  Uiso   1.00
C115   C     0.55683   0.31439   0.20607   0.00000  Uiso   1.00
O116   O     0.58324   0.31829   0.16933   0.00000  Uiso   1.00
O117   O     0.54715   0.02612   0.24665   0.00000  Uiso   1.00
H118   H     0.56516   0.05930   0.24241   0.00000  Uiso   1.00
Br119  Br    0.70482   0.30645   0.06961   0.00000  Uiso   1.00
Br120  Br    0.79645   0.02684   0.26281   0.00000  Uiso   1.00
C121   C     0.69710   0.12391   0.31266   0.00000  Uiso   1.00
O122   O     0.66204   0.14384   0.31652   0.00000  Uiso   1.00
O123   O     0.69638   0.07153   0.28142   0.00000  Uiso   1.00
H124   H     0.66531   0.05538   0.26054   0.00000  Uiso   1.00
C125   C     0.79948   0.22102   0.01556   0.00000  Uiso   1.00
O126   O     0.82004   0.24264   0.31606   0.00000  Uiso   1.00
O127   O     0.81246   0.23878   0.07747   0.00000  Uiso   1.00
H128   H     0.83866   0.26777   0.08821   0.00000  Uiso   1.00
C129   C     0.24843   0.40013   0.15128   0.00000  Uiso   1.00
C130   C     0.25163   0.59988   0.18204   0.00000  Uiso   1.00
C131   C     0.01276   0.40592   0.12112   0.00000  Uiso   1.00
C132   C     0.48738   0.59366   0.21077   0.00000  Uiso   1.00
C133   C     0.24243   0.34420   0.14382   0.00000  Uiso   1.00
C134   C     0.25800   0.65580   0.18932   0.00000  Uiso   1.00
C135   C     0.16480   0.50053   0.16674   0.00000  Uiso   1.00
C136   C     0.33523   0.49928   0.16658   0.00000  Uiso   1.00
C137   C     0.41243   0.54524   0.19735   0.00000  Uiso   1.00
C138   C     0.08780   0.45439   0.13540   0.00000  Uiso   1.00
C139   C     0.38363   0.49958   0.16695   0.00000  Uiso   1.00
C140   C     0.11644   0.50001   0.16625   0.00000  Uiso   1.00
C141   C     0.40079   0.45354   0.13844   0.00000  Uiso   1.00
C142   C     0.09918   0.54589   0.19478   0.00000  Uiso   1.00
C143   C     0.44775   0.45150   0.14456   0.00000  Uiso   1.00
C144   C     0.05230   0.54796   0.18799   0.00000  Uiso   1.00
C145   C     0.47663   0.49926   0.16746   0.00000  Uiso   1.00
C146   C     0.02344   0.50023   0.16481   0.00000  Uiso   1.00
C147   C     0.45887   0.54610   0.19341   0.00000  Uiso   1.00
C148   C     0.04127   0.45345   0.13884   0.00000  Uiso   1.00
C149   C     0.46711   0.40395   0.12736   0.00000  Uiso   1.00
C150   C     0.03303   0.59555   0.20487   0.00000  Uiso   1.00
Cu151  Cu    0.25501   0.50579   0.22813   0.00000  Uiso   1.00
Cu152  Cu    0.24500   0.49421   0.10521   0.00000  Uiso   1.00
H153   H     0.02659   0.36912   0.10726   0.00000  Uiso   1.00
H154   H     0.47363   0.63053   0.22428   0.00000  Uiso   1.00
N155   N     0.23745   0.48547   0.01284   0.00000  Uiso   1.00
N156   N     0.26256   0.51453   0.32049   0.00000  Uiso   1.00
O157   O     0.25326   0.42871   0.20659   0.00000  Uiso   1.00
O158   O     0.24675   0.57129   0.12674   0.00000  Uiso   1.00
O159   O     0.24480   0.41892   0.10279   0.00000  Uiso   1.00
O160   O     0.25520   0.58108   0.23055   0.00000  Uiso   1.00
O161   O     0.18936   0.50488   0.21857   0.00000  Uiso   1.00
O162   O     0.31065   0.49512   0.11476   0.00000  Uiso   1.00
O163   O     0.18090   0.49510   0.11477   0.00000  Uiso   1.00
O164   O     0.31910   0.50490   0.21857   0.00000  Uiso   1.00
C165   C     0.39386   0.59243   0.23130   0.00000  Uiso   1.00
O166   O     0.36137   0.60848   0.20806   0.00000  Uiso   1.00
O167   O     0.41372   0.61838   0.28995   0.00000  Uiso   1.00
H168   H     0.39842   0.65009   0.30808   0.00000  Uiso   1.00
C169   C     0.10682   0.40738   0.10187   0.00000  Uiso   1.00
O170   O     0.13886   0.39119   0.12603   0.00000  Uiso   1.00
O171   O     0.08807   0.38197   0.04256   0.00000  Uiso   1.00
H172   H     0.10386   0.35064   0.02460   0.00000  Uiso   1.00
Br173  Br    0.35942   0.39741   0.08437   0.00000  Uiso   1.00
Br174  Br    0.14015   0.60159   0.25001   0.00000  Uiso   1.00
C175   C     0.44354   0.35171   0.12635   0.00000  Uiso   1.00
O176   O     0.41750   0.34768   0.16351   0.00000  Uiso   1.00
O177   O     0.45310   0.64006   0.08554   0.00000  Uiso   1.00
H178   H     0.43530   0.60681   0.08996   0.00000  Uiso   1.00
C179   C     0.05683   0.64773   0.20607   0.00000  Uiso   1.00
O180   O     0.08324   0.65163   0.16933   0.00000  Uiso   1.00
O181   O     0.04715   0.35945   0.24665   0.00000  Uiso   1.00
H182   H     0.06516   0.39264   0.24241   0.00000  Uiso   1.00
Br183  Br    0.20482   0.63978   0.06961   0.00000  Uiso   1.00
Br184  Br    0.29645   0.36017   0.26281   0.00000  Uiso   1.00
C185   C     0.19710   0.45724   0.31266   0.00000  Uiso   1.00
O186   O     0.16204   0.47717   0.31652   0.00000  Uiso   1.00
O187   O     0.19638   0.40486   0.28142   0.00000  Uiso   1.00
H188   H     0.16531   0.38872   0.26054   0.00000  Uiso   1.00
C189   C     0.29948   0.55436   0.01556   0.00000  Uiso   1.00
O190   O     0.32004   0.57597   0.31606   0.00000  Uiso   1.00
O191   O     0.31246   0.57211   0.07747   0.00000  Uiso   1.00
H192   H     0.33866   0.60110   0.08821   0.00000  Uiso   1.00
C193   C     0.74843   0.40013   0.15128   0.00000  Uiso   1.00
C194   C     0.75163   0.59988   0.18204   0.00000  Uiso   1.00
C195   C     0.51276   0.40592   0.12112   0.00000  Uiso   1.00
C196   C     0.98738   0.59366   0.21077   0.00000  Uiso   1.00
C197   C     0.74243   0.34420   0.14382   0.00000  Uiso   1.00
C198   C     0.75800   0.65580   0.18932   0.00000  Uiso   1.00
C199   C     0.66480   0.50053   0.16674   0.00000  Uiso   1.00
C200   C     0.83523   0.49928   0.16658   0.00000  Uiso   1.00
C201   C     0.91243   0.54524   0.19735   0.00000  Uiso   1.00
C202   C     0.58780   0.45439   0.13540   0.00000  Uiso   1.00
C203   C     0.88363   0.49958   0.16695   0.00000  Uiso   1.00
C204   C     0.61644   0.50001   0.16625   0.00000  Uiso   1.00
C205   C     0.90079   0.45354   0.13844   0.00000  Uiso   1.00
C206   C     0.59918   0.54589   0.19478   0.00000  Uiso   1.00
C207   C     0.94775   0.45150   0.14456   0.00000  Uiso   1.00
C208   C     0.55230   0.54796   0.18799   0.00000  Uiso   1.00
C209   C     0.97663   0.49926   0.16746   0.00000  Uiso   1.00
C210   C     0.52344   0.50023   0.16481   0.00000  Uiso   1.00
C211   C     0.95887   0.54610   0.19341   0.00000  Uiso   1.00
C212   C     0.54127   0.45345   0.13884   0.00000  Uiso   1.00
C213   C     0.96711   0.40395   0.12736   0.00000  Uiso   1.00
C214   C     0.53303   0.59555   0.20487   0.00000  Uiso   1.00
Cu215  Cu    0.75501   0.50579   0.22813   0.00000  Uiso   1.00
Cu216  Cu    0.74500   0.49421   0.10521   0.00000  Uiso   1.00
H217   H     0.52659   0.36912   0.10726   0.00000  Uiso   1.00
H218   H     0.97363   0.63053   0.22428   0.00000  Uiso   1.00
N219   N     0.73745   0.48547   0.01284   0.00000  Uiso   1.00
N220   N     0.76256   0.51453   0.32049   0.00000  Uiso   1.00
O221   O     0.75326   0.42871   0.20659   0.00000  Uiso   1.00
O222   O     0.74675   0.57129   0.12674   0.00000  Uiso   1.00
O223   O     0.74480   0.41892   0.10279   0.00000  Uiso   1.00
O224   O     0.75520   0.58108   0.23055   0.00000  Uiso   1.00
O225   O     0.68936   0.50488   0.21857   0.00000  Uiso   1.00
O226   O     0.81065   0.49512   0.11476   0.00000  Uiso   1.00
O227   O     0.68090   0.49510   0.11477   0.00000  Uiso   1.00
O228   O     0.81910   0.50490   0.21857   0.00000  Uiso   1.00
C229   C     0.89386   0.59243   0.23130   0.00000  Uiso   1.00
O230   O     0.86137   0.60848   0.20806   0.00000  Uiso   1.00
O231   O     0.91372   0.61838   0.28995   0.00000  Uiso   1.00
H232   H     0.89842   0.65009   0.30808   0.00000  Uiso   1.00
C233   C     0.60682   0.40738   0.10187   0.00000  Uiso   1.00
O234   O     0.63886   0.39119   0.12603   0.00000  Uiso   1.00
O235   O     0.58807   0.38197   0.04256   0.00000  Uiso   1.00
H236   H     0.60386   0.35064   0.02460   0.00000  Uiso   1.00
Br237  Br    0.85942   0.39741   0.08437   0.00000  Uiso   1.00
Br238  Br    0.64015   0.60159   0.25001   0.00000  Uiso   1.00
C239   C     0.94354   0.35171   0.12635   0.00000  Uiso   1.00
O240   O     0.91750   0.34768   0.16351   0.00000  Uiso   1.00
O241   O     0.95310   0.64006   0.08554   0.00000  Uiso   1.00
H242   H     0.93530   0.60681   0.08996   0.00000  Uiso   1.00
C243   C     0.55683   0.64773   0.20607   0.00000  Uiso   1.00
O244   O     0.58324   0.65163   0.16933   0.00000  Uiso   1.00
O245   O     0.54715   0.35945   0.24665   0.00000  Uiso   1.00
H246   H     0.56516   0.39264   0.24241   0.00000  Uiso   1.00
Br247  Br    0.70482   0.63978   0.06961   0.00000  Uiso   1.00
Br248  Br    0.79645   0.36017   0.26281   0.00000  Uiso   1.00
C249   C     0.69710   0.45724   0.31266   0.00000  Uiso   1.00
O250   O     0.66204   0.47717   0.31652   0.00000  Uiso   1.00
O251   O     0.69638   0.40486   0.28142   0.00000  Uiso   1.00
H252   H     0.66531   0.38872   0.26054   0.00000  Uiso   1.00
C253   C     0.79948   0.55436   0.01556   0.00000  Uiso   1.00
O254   O     0.82004   0.57597   0.31606   0.00000  Uiso   1.00
O255   O     0.81246   0.57211   0.07747   0.00000  Uiso   1.00
H256   H     0.83866   0.60110   0.08821   0.00000  Uiso   1.00
C257   C     0.24843   0.73346   0.15128   0.00000  Uiso   1.00
C258   C     0.25163   0.93322   0.18204   0.00000  Uiso   1.00
C259   C     0.01276   0.73925   0.12112   0.00000  Uiso   1.00
C260   C     0.48738   0.92699   0.21077   0.00000  Uiso   1.00
C261   C     0.24243   0.67753   0.14382   0.00000  Uiso   1.00
C262   C     0.25800   0.98913   0.18932   0.00000  Uiso   1.00
C263   C     0.16480   0.83386   0.16674   0.00000  Uiso   1.00
C264   C     0.33523   0.83262   0.16658   0.00000  Uiso   1.00
C265   C     0.41243   0.87857   0.19735   0.00000  Uiso   1.00
C266   C     0.08780   0.78773   0.13540   0.00000  Uiso   1.00
C267   C     0.38363   0.83291   0.16695   0.00000  Uiso   1.00
C268   C     0.11644   0.83334   0.16625   0.00000  Uiso   1.00
C269   C     0.40079   0.78687   0.13844   0.00000  Uiso   1.00
C270   C     0.09918   0.87922   0.19478   0.00000  Uiso   1.00
C271   C     0.44775   0.78484   0.14456   0.00000  Uiso   1.00
C272   C     0.05230   0.88129   0.18799   0.00000  Uiso   1.00
C273   C     0.47663   0.83260   0.16746   0.00000  Uiso   1.00
C274   C     0.02344   0.83356   0.16481   0.00000  Uiso   1.00
C275   C     0.45887   0.87943   0.19341   0.00000  Uiso   1.00
C276   C     0.04127   0.78678   0.13884   0.00000  Uiso   1.00
C277   C     0.46711   0.73728   0.12736   0.00000  Uiso   1.00
C278   C     0.03303   0.92888   0.20487   0.00000  Uiso   1.00
Cu279  Cu    0.25501   0.83913   0.22813   0.00000  Uiso   1.00
Cu280  Cu    0.24500   0.82754   0.10521   0.00000  Uiso   1.00
H281   H     0.02659   0.70245   0.10726   0.00000  Uiso   1.00
H282   H     0.47363   0.96386   0.22428   0.00000  Uiso   1.00
N283   N     0.23745   0.81881   0.01284   0.00000  Uiso   1.00
N284   N     0.26256   0.84786   0.32049   0.00000  Uiso   1.00
O285   O     0.25326   0.76204   0.20659   0.00000  Uiso   1.00
O286   O     0.24675   0.90462   0.12674   0.00000  Uiso   1.00
O287   O     0.24480   0.75226   0.10279   0.00000  Uiso   1.00
O288   O     0.25520   0.91441   0.23055   0.00000  Uiso   1.00
O289   O     0.18936   0.83821   0.21857   0.00000  Uiso   1.00
O290   O     0.31065   0.82845   0.11476   0.00000  Uiso   1.00
O291   O     0.18090   0.82843   0.11477   0.00000  Uiso   1.00
O292   O     0.31910   0.83824   0.21857   0.00000  Uiso   1.00
C293   C     0.39386   0.92576   0.23130   0.00000  Uiso   1.00
O294   O     0.36137   0.94182   0.20806   0.00000  Uiso   1.00
O295   O     0.41372   0.95171   0.28995   0.00000  Uiso   1.00
H296   H     0.39842   0.98342   0.30808   0.00000  Uiso   1.00
C297   C     0.10682   0.74072   0.10187   0.00000  Uiso   1.00
O298   O     0.13886   0.72452   0.12603   0.00000  Uiso   1.00
O299   O     0.08807   0.71531   0.04256   0.00000  Uiso   1.00
H300   H     0.10386   0.68397   0.02460   0.00000  Uiso   1.00
Br301  Br    0.35942   0.73075   0.08437   0.00000  Uiso   1.00
Br302  Br    0.14015   0.93493   0.25001   0.00000  Uiso   1.00
C303   C     0.44354   0.68504   0.12635   0.00000  Uiso   1.00
O304   O     0.41750   0.68101   0.16351   0.00000  Uiso   1.00
O305   O     0.45310   0.97339   0.08554   0.00000  Uiso   1.00
H306   H     0.43530   0.94014   0.08996   0.00000  Uiso   1.00
C307   C     0.05683   0.98106   0.20607   0.00000  Uiso   1.00
O308   O     0.08324   0.98496   0.16933   0.00000  Uiso   1.00
O309   O     0.04715   0.69278   0.24665   0.00000  Uiso   1.00
H310   H     0.06516   0.72597   0.24241   0.00000  Uiso   1.00
Br311  Br    0.20482   0.97312   0.06961   0.00000  Uiso   1.00
Br312  Br    0.29645   0.69351   0.26281   0.00000  Uiso   1.00
C313   C     0.19710   0.79058   0.31266   0.00000  Uiso   1.00
O314   O     0.16204   0.81050   0.31652   0.00000  Uiso   1.00
O315   O     0.19638   0.73820   0.28142   0.00000  Uiso   1.00
H316   H     0.16531   0.72205   0.26054   0.00000  Uiso   1.00
C317   C     0.29948   0.88769   0.01556   0.00000  Uiso   1.00
O318   O     0.32004   0.90931   0.31606   0.00000  Uiso   1.00
O319   O     0.31246   0.90544   0.07747   0.00000  Uiso   1.00
H320   H     0.33866   0.93444   0.08821   0.00000  Uiso   1.00
C321   C     0.74843   0.73346   0.15128   0.00000  Uiso   1.00
C322   C     0.75163   0.93322   0.18204   0.00000  Uiso   1.00
C323   C     0.51276   0.73925   0.12112   0.00000  Uiso   1.00
C324   C     0.98738   0.92699   0.21077   0.00000  Uiso   1.00
C325   C     0.74243   0.67753   0.14382   0.00000  Uiso   1.00
C326   C     0.75800   0.98913   0.18932   0.00000  Uiso   1.00
C327   C     0.66480   0.83386   0.16674   0.00000  Uiso   1.00
C328   C     0.83523   0.83262   0.16658   0.00000  Uiso   1.00
C329   C     0.91243   0.87857   0.19735   0.00000  Uiso   1.00
C330   C     0.58780   0.78773   0.13540   0.00000  Uiso   1.00
C331   C     0.88363   0.83291   0.16695   0.00000  Uiso   1.00
C332   C     0.61644   0.83334   0.16625   0.00000  Uiso   1.00
C333   C     0.90079   0.78687   0.13844   0.00000  Uiso   1.00
C334   C     0.59918   0.87922   0.19478   0.00000  Uiso   1.00
C335   C     0.94775   0.78484   0.14456   0.00000  Uiso   1.00
C336   C     0.55230   0.88129   0.18799   0.00000  Uiso   1.00
C337   C     0.97663   0.83260   0.16746   0.00000  Uiso   1.00
C338   C     0.52344   0.83356   0.16481   0.00000  Uiso   1.00
C339   C     0.95887   0.87943   0.19341   0.00000  Uiso   1.00
C340   C     0.54127   0.78678   0.13884   0.00000  Uiso   1.00
C341   C     0.96711   0.73728   0.12736   0.00000  Uiso   1.00
C342   C     0.53303   0.92888   0.20487   0.00000  Uiso   1.00
Cu343  Cu    0.75501   0.83913   0.22813   0.00000  Uiso   1.00
Cu344  Cu    0.74500   0.82754   0.10521   0.00000  Uiso   1.00
H345   H     0.52659   0.70245   0.10726   0.00000  Uiso   1.00
H346   H     0.97363   0.96386   0.22428   0.00000  Uiso   1.00
N347   N     0.73745   0.81881   0.01284   0.00000  Uiso   1.00
N348   N     0.76256   0.84786   0.32049   0.00000  Uiso   1.00
O349   O     0.75326   0.76204   0.20659   0.00000  Uiso   1.00
O350   O     0.74675   0.90462   0.12674   0.00000  Uiso   1.00
O351   O     0.74480   0.75226   0.10279   0.00000  Uiso   1.00
O352   O     0.75520   0.91441   0.23055   0.00000  Uiso   1.00
O353   O     0.68936   0.83821   0.21857   0.00000  Uiso   1.00
O354   O     0.81065   0.82845   0.11476   0.00000  Uiso   1.00
O355   O     0.68090   0.82843   0.11477   0.00000  Uiso   1.00
O356   O     0.81910   0.83824   0.21857   0.00000  Uiso   1.00
C357   C     0.89386   0.92576   0.23130   0.00000  Uiso   1.00
O358   O     0.86137   0.94182   0.20806   0.00000  Uiso   1.00
O359   O     0.91372   0.95171   0.28995   0.00000  Uiso   1.00
H360   H     0.89842   0.98342   0.30808   0.00000  Uiso   1.00
C361   C     0.60682   0.74072   0.10187   0.00000  Uiso   1.00
O362   O     0.63886   0.72452   0.12603   0.00000  Uiso   1.00
O363   O     0.58807   0.71531   0.04256   0.00000  Uiso   1.00
H364   H     0.60386   0.68397   0.02460   0.00000  Uiso   1.00
Br365  Br    0.85942   0.73075   0.08437   0.00000  Uiso   1.00
Br366  Br    0.64015   0.93493   0.25001   0.00000  Uiso   1.00
C367   C     0.94354   0.68504   0.12635   0.00000  Uiso   1.00
O368   O     0.91750   0.68101   0.16351   0.00000  Uiso   1.00
O369   O     0.95310   0.97339   0.08554   0.00000  Uiso   1.00
H370   H     0.93530   0.94014   0.08996   0.00000  Uiso   1.00
C371   C     0.55683   0.98106   0.20607   0.00000  Uiso   1.00
O372   O     0.58324   0.98496   0.16933   0.00000  Uiso   1.00
O373   O     0.54715   0.69278   0.24665   0.00000  Uiso   1.00
H374   H     0.56516   0.72597   0.24241   0.00000  Uiso   1.00
Br375  Br    0.70482   0.97312   0.06961   0.00000  Uiso   1.00
Br376  Br    0.79645   0.69351   0.26281   0.00000  Uiso   1.00
C377   C     0.69710   0.79058   0.31266   0.00000  Uiso   1.00
O378   O     0.66204   0.81050   0.31652   0.00000  Uiso   1.00
O379   O     0.69638   0.73820   0.28142   0.00000  Uiso   1.00
H380   H     0.66531   0.72205   0.26054   0.00000  Uiso   1.00
C381   C     0.79948   0.88769   0.01556   0.00000  Uiso   1.00
O382   O     0.82004   0.90931   0.31606   0.00000  Uiso   1.00
O383   O     0.81246   0.90544   0.07747   0.00000  Uiso   1.00
H384   H     0.83866   0.93444   0.08821   0.00000  Uiso   1.00
C385   C     0.24843   0.06680   0.48461   0.00000  Uiso   1.00
C386   C     0.25163   0.26655   0.51538   0.00000  Uiso   1.00
C387   C     0.01276   0.07258   0.45445   0.00000  Uiso   1.00
C388   C     0.48738   0.26033   0.54410   0.00000  Uiso   1.00
C389   C     0.24243   0.01087   0.47715   0.00000  Uiso   1.00
C390   C     0.25800   0.32246   0.52265   0.00000  Uiso   1.00
C391   C     0.16480   0.16719   0.50007   0.00000  Uiso   1.00
C392   C     0.33523   0.16595   0.49991   0.00000  Uiso   1.00
C393   C     0.41243   0.21191   0.53069   0.00000  Uiso   1.00
C394   C     0.08780   0.12106   0.46873   0.00000  Uiso   1.00
C395   C     0.38363   0.16625   0.50029   0.00000  Uiso   1.00
C396   C     0.11644   0.16668   0.49958   0.00000  Uiso   1.00
C397   C     0.40079   0.12020   0.47178   0.00000  Uiso   1.00
C398   C     0.09918   0.21256   0.52811   0.00000  Uiso   1.00
C399   C     0.44775   0.11817   0.47790   0.00000  Uiso   1.00
C400   C     0.05230   0.21462   0.52132   0.00000  Uiso   1.00
C401   C     0.47663   0.16593   0.50079   0.00000  Uiso   1.00
C402   C     0.02344   0.16690   0.49815   0.00000  Uiso   1.00
C403   C     0.45887   0.21277   0.52674   0.00000  Uiso   1.00
C404   C     0.04127   0.12011   0.47218   0.00000  Uiso   1.00
C405   C     0.46711   0.07061   0.46069   0.00000  Uiso   1.00
C406   C     0.03303   0.26222   0.53820   0.00000  Uiso   1.00
Cu407  Cu    0.25501   0.17246   0.56146   0.00000  Uiso   1.00
Cu408  Cu    0.24500   0.16087   0.43854   0.00000  Uiso   1.00
H409   H     0.02659   0.03578   0.44060   0.00000  Uiso   1.00
H410   H     0.47363   0.29719   0.55761   0.00000  Uiso   1.00
N411   N     0.23745   0.15214   0.34617   0.00000  Uiso   1.00
N412   N     0.26256   0.18119   0.65383   0.00000  Uiso   1.00
O413   O     0.25326   0.09538   0.53992   0.00000  Uiso   1.00
O414   O     0.24675   0.23796   0.46008   0.00000  Uiso   1.00
O415   O     0.24480   0.08559   0.43612   0.00000  Uiso   1.00
O416   O     0.25520   0.24774   0.56388   0.00000  Uiso   1.00
O417   O     0.18936   0.17155   0.55191   0.00000  Uiso   1.00
O418   O     0.31065   0.16179   0.44809   0.00000  Uiso   1.00
O419   O     0.18090   0.16176   0.44810   0.00000  Uiso   1.00
O420   O     0.31910   0.17157   0.55190   0.00000  Uiso   1.00
C421   C     0.39386   0.25909   0.56463   0.00000  Uiso   1.00
O422   O     0.36137   0.27515   0.54140   0.00000  Uiso   1.00
O423   O     0.41372   0.28505   0.62328   0.00000  Uiso   1.00
H424   H     0.39842   0.31675   0.64141   0.00000  Uiso   1.00
C425   C     0.10682   0.07405   0.43521   0.00000  Uiso   1.00
O426   O     0.13886   0.05785   0.45936   0.00000  Uiso   1.00
O427   O     0.08807   0.04864   0.37589   0.00000  Uiso   1.00
H428   H     0.10386   0.01731   0.35794   0.00000  Uiso   1.00
Br429  Br    0.35942   0.06408   0.41771   0.00000  Uiso   1.00
Br430  Br    0.14015   0.26826   0.58335   0.00000  Uiso   1.00
C431   C     0.44354   0.01838   0.45968   0.00000  Uiso   1.00
O432   O     0.41750   0.01434   0.49684   0.00000  Uiso   1.00
O433   O     0.45310   0.30673   0.41887   0.00000  Uiso   1.00
H434   H     0.43530   0.27347   0.42329   0.00000  Uiso   1.00
C435   C     0.05683   0.31439   0.53940   0.00000  Uiso   1.00
O436   O     0.08324   0.31829   0.50266   0.00000  Uiso   1.00
O437   O     0.04715   0.02612   0.57998   0.00000  Uiso   1.00
H438   H     0.06516   0.05930   0.57574   0.00000  Uiso   1.00
Br439  Br    0.20482   0.30645   0.40294   0.00000  Uiso   1.00
Br440  Br    0.29645   0.02684   0.59614   0.00000  Uiso   1.00
C441   C     0.19710   0.12391   0.64600   0.00000  Uiso   1.00
O442   O     0.16204   0.14384   0.64986   0.00000  Uiso   1.00
O443   O     0.19638   0.07153   0.61475   0.00000  Uiso   1.00
H444   H     0.16531   0.05538   0.59388   0.00000  Uiso   1.00
C445   C     0.29948   0.22102   0.34890   0.00000  Uiso   1.00
O446   O     0.32004   0.24264   0.64940   0.00000  Uiso   1.00
O447   O     0.31246   0.23878   0.41080   0.00000  Uiso   1.00
H448   H     0.33866   0.26777   0.42154   0.00000  Uiso   1.00
C449   C     0.74843   0.06680   0.48461   0.00000  Uiso   1.00
C450   C     0.75163   0.26655   0.51538   0.00000  Uiso   1.00
C451   C     0.51276   0.07258   0.45445   0.00000  Uiso   1.00
C452   C     0.98738   0.26033   0.54410   0.00000  Uiso   1.00
C453   C     0.74243   0.01087   0.47715   0.00000  Uiso   1.00
C454   C     0.75800   0.32246   0.52265   0.00000  Uiso   1.00
C455   C     0.66480   0.16719   0.50007   0.00000  Uiso   1.00
C456   C     0.83523   0.16595   0.49991   0.00000  Uiso   1.00
C457   C     0.91243   0.21191   0.53069   0.00000  Uiso   1.00
C458   C     0.58780   0.12106   0.46873   0.00000  Uiso   1.00
C459   C     0.88363   0.16625   0.50029   0.00000  Uiso   1.00
C460   C     0.61644   0.16668   0.49958   0.00000  Uiso   1.00
C461   C     0.90079   0.12020   0.47178   0.00000  Uiso   1.00
C462   C     0.59918   0.21256   0.52811   0.00000  Uiso   1.00
C463   C     0.94775   0.11817   0.47790   0.00000  Uiso   1.00
C464   C     0.55230   0.21462   0.52132   0.00000  Uiso   1.00
C465   C     0.97663   0.16593   0.50079   0.00000  Uiso   1.00
C466   C     0.52344   0.16690   0.49815   0.00000  Uiso   1.00
C467   C     0.95887   0.21277   0.52674   0.00000  Uiso   1.00
C468   C     0.54127   0.12011   0.47218   0.00000  Uiso   1.00
C469   C     0.96711   0.07061   0.46069   0.00000  Uiso   1.00
C470   C     0.53303   0.26222   0.53820   0.00000  Uiso   1.00
Cu471  Cu    0.75501   0.17246   0.56146   0.00000  Uiso   1.00
Cu472  Cu    0.74500   0.16087   0.43854   0.00000  Uiso   1.00
H473   H     0.52659   0.03578   0.44060   0.00000  Uiso   1.00
H474   H     0.97363   0.29719   0.55761   0.00000  Uiso   1.00
N475   N     0.73745   0.15214   0.34617   0.00000  Uiso   1.00
N476   N     0.76256   0.18119   0.65383   0.00000  Uiso   1.00
O477   O     0.75326   0.09538   0.53992   0.00000  Uiso   1.00
O478   O     0.74675   0.23796   0.46008   0.00000  Uiso   1.00
O479   O     0.74480   0.08559   0.43612   0.00000  Uiso   1.00
O480   O     0.75520   0.24774   0.56388   0.00000  Uiso   1.00
O481   O     0.68936   0.17155   0.55191   0.00000  Uiso   1.00
O482   O     0.81065   0.16179   0.44809   0.00000  Uiso   1.00
O483   O     0.68090   0.16176   0.44810   0.00000  Uiso   1.00
O484   O     0.81910   0.17157   0.55190   0.00000  Uiso   1.00
C485   C     0.89386   0.25909   0.56463   0.00000  Uiso   1.00
O486   O     0.86137   0.27515   0.54140   0.00000  Uiso   1.00
O487   O     0.91372   0.28505   0.62328   0.00000  Uiso   1.00
H488   H     0.89842   0.31675   0.64141   0.00000  Uiso   1.00
C489   C     0.60682   0.07405   0.43521   0.00000  Uiso   1.00
O490   O     0.63886   0.05785   0.45936   0.00000  Uiso   1.00
O491   O     0.58807   0.04864   0.37589   0.00000  Uiso   1.00
H492   H     0.60386   0.01731   0.35794   0.00000  Uiso   1.00
Br493  Br    0.85942   0.06408   0.41771   0.00000  Uiso   1.00
Br494  Br    0.64015   0.26826   0.58335   0.00000  Uiso   1.00
C495   C     0.94354   0.01838   0.45968   0.00000  Uiso   1.00
O496   O     0.91750   0.01434   0.49684   0.00000  Uiso   1.00
O497   O     0.95310   0.30673   0.41887   0.00000  Uiso   1.00
H498   H     0.93530   0.27347   0.42329   0.00000  Uiso   1.00
C499   C     0.55683   0.31439   0.53940   0.00000  Uiso   1.00
O500   O     0.58324   0.31829   0.50266   0.00000  Uiso   1.00
O501   O     0.54715   0.02612   0.57998   0.00000  Uiso   1.00
H502   H     0.56516   0.05930   0.57574   0.00000  Uiso   1.00
Br503  Br    0.70482   0.30645   0.40294   0.00000  Uiso   1.00
Br504  Br    0.79645   0.02684   0.59614   0.00000  Uiso   1.00
C505   C     0.69710   0.12391   0.64600   0.00000  Uiso   1.00
O506   O     0.66204   0.14384   0.64986   0.00000  Uiso   1.00
O507   O     0.69638   0.07153   0.61475   0.00000  Uiso   1.00
H508   H     0.66531   0.05538   0.59388   0.00000  Uiso   1.00
C509   C     0.79948   0.22102   0.34890   0.00000  Uiso   1.00
O510   O     0.82004   0.24264   0.64940   0.00000  Uiso   1.00
O511   O     0.81246   0.23878   0.41080   0.00000  Uiso   1.00
H512   H     0.83866   0.26777   0.42154   0.00000  Uiso   1.00
C513   C     0.24843   0.40013   0.48461   0.00000  Uiso   1.00
C514   C     0.25163   0.59988   0.51538   0.00000  Uiso   1.00
C515   C     0.01276   0.40592   0.45445   0.00000  Uiso   1.00
C516   C     0.48738   0.59366   0.54410   0.00000  Uiso   1.00
C517   C     0.24243   0.34420   0.47715   0.00000  Uiso   1.00
C518   C     0.25800   0.65580   0.52265   0.00000  Uiso   1.00
C519   C     0.16480   0.50053   0.50007   0.00000  Uiso   1.00
C520   C     0.33523   0.49928   0.49991   0.00000  Uiso   1.00
C521   C     0.41243   0.54524   0.53069   0.00000  Uiso   1.00
C522   C     0.08780   0.45439   0.46873   0.00000  Uiso   1.00
C523   C     0.38363   0.49958   0.50029   0.00000  Uiso   1.00
C524   C     0.11644   0.50001   0.49958   0.00000  Uiso   1.00
C525   C     0.40079   0.45354   0.47178   0.00000  Uiso   1.00
C526   C     0.09918   0.54589   0.52811   0.00000  Uiso   1.00
C527   C     0.44775   0.45150   0.47790   0.00000  Uiso   1.00
C528   C     0.05230   0.54796   0.52132   0.00000  Uiso   1.00
C529   C     0.47663   0.49926   0.50079   0.00000  Uiso   1.00
C530   C     0.02344   0.50023   0.49815   0.00000  Uiso   1.00
C531   C     0.45887   0.54610   0.52674   0.00000  Uiso   1.00
C532   C     0.04127   0.45345   0.47218   0.00000  Uiso   1.00
C533   C     0.46711   0.40395   0.46069   0.00000  Uiso   1.00
C534   C     0.03303   0.59555   0.53820   0.00000  Uiso   1.00
Cu535  Cu    0.25501   0.50579   0.56146   0.00000  Uiso   1.00
Cu536  Cu    0.24500   0.49421   0.43854   0.00000  Uiso   1.00
H537   H     0.02659   0.36912   0.44060   0.00000  Uiso   1.00
H538   H     0.47363   0.63053   0.55761   0.00000  Uiso   1.00
N539   N     0.23745   0.48547   0.34617   0.00000  Uiso   1.00
N540   N     0.26256   0.51453   0.65383   0.00000  Uiso   1.00
O541   O     0.25326   0.42871   0.53992   0.00000  Uiso   1.00
O542   O     0.24675   0.57129   0.46008   0.00000  Uiso   1.00
O543   O     0.24480   0.41892   0.43612   0.00000  Uiso   1.00
O544   O     0.25520   0.58108   0.56388   0.00000  Uiso   1.00
O545   O     0.18936   0.50488   0.55191   0.00000  Uiso   1.00
O546   O     0.31065   0.49512   0.44809   0.00000  Uiso   1.00
O547   O     0.18090   0.49510   0.44810   0.00000  Uiso   1.00
O548   O     0.31910   0.50490   0.55190   0.00000  Uiso   1.00
C549   C     0.39386   0.59243   0.56463   0.00000  Uiso   1.00
O550   O     0.36137   0.60848   0.54140   0.00000  Uiso   1.00
O551   O     0.41372   0.61838   0.62328   0.00000  Uiso   1.00
H552   H     0.39842   0.65009   0.64141   0.00000  Uiso   1.00
C553   C     0.10682   0.40738   0.43521   0.00000  Uiso   1.00
O554   O     0.13886   0.39119   0.45936   0.00000  Uiso   1.00
O555   O     0.08807   0.38197   0.37589   0.00000  Uiso   1.00
H556   H     0.10386   0.35064   0.35794   0.00000  Uiso   1.00
Br557  Br    0.35942   0.39741   0.41771   0.00000  Uiso   1.00
Br558  Br    0.14015   0.60159   0.58335   0.00000  Uiso   1.00
C559   C     0.44354   0.35171   0.45968   0.00000  Uiso   1.00
O560   O     0.41750   0.34768   0.49684   0.00000  Uiso   1.00
O561   O     0.45310   0.64006   0.41887   0.00000  Uiso   1.00
H562   H     0.43530   0.60681   0.42329   0.00000  Uiso   1.00
C563   C     0.05683   0.64773   0.53940   0.00000  Uiso   1.00
O564   O     0.08324   0.65163   0.50266   0.00000  Uiso   1.00
O565   O     0.04715   0.35945   0.57998   0.00000  Uiso   1.00
H566   H     0.06516   0.39264   0.57574   0.00000  Uiso   1.00
Br567  Br    0.20482   0.63978   0.40294   0.00000  Uiso   1.00
Br568  Br    0.29645   0.36017   0.59614   0.00000  Uiso   1.00
C569   C     0.19710   0.45724   0.64600   0.00000  Uiso   1.00
O570   O     0.16204   0.47717   0.64986   0.00000  Uiso   1.00
O571   O     0.19638   0.40486   0.61475   0.00000  Uiso   1.00
H572   H     0.16531   0.38872   0.59388   0.00000  Uiso   1.00
C573   C     0.29948   0.55436   0.34890   0.00000  Uiso   1.00
O574   O     0.32004   0.57597   0.64940   0.00000  Uiso   1.00
O575   O     0.31246   0.57211   0.41080   0.00000  Uiso   1.00
H576   H     0.33866   0.60110   0.42154   0.00000  Uiso   1.00
C577   C     0.74843   0.40013   0.48461   0.00000  Uiso   1.00
C578   C     0.75163   0.59988   0.51538   0.00000  Uiso   1.00
C579   C     0.51276   0.40592   0.45445   0.00000  Uiso   1.00
C580   C     0.98738   0.59366   0.54410   0.00000  Uiso   1.00
C581   C     0.74243   0.34420   0.47715   0.00000  Uiso   1.00
C582   C     0.75800   0.65580   0.52265   0.00000  Uiso   1.00
C583   C     0.66480   0.50053   0.50007   0.00000  Uiso   1.00
C584   C     0.83523   0.49928   0.49991   0.00000  Uiso   1.00
C585   C     0.91243   0.54524   0.53069   0.00000  Uiso   1.00
C586   C     0.58780   0.45439   0.46873   0.00000  Uiso   1.00
C587   C     0.88363   0.49958   0.50029   0.00000  Uiso   1.00
C588   C     0.61644   0.50001   0.49958   0.00000  Uiso   1.00
C589   C     0.90079   0.45354   0.47178   0.00000  Uiso   1.00
C590   C     0.59918   0.54589   0.52811   0.00000  Uiso   1.00
C591   C     0.94775   0.45150   0.47790   0.00000  Uiso   1.00
C592   C     0.55230   0.54796   0.52132   0.00000  Uiso   1.00
C593   C     0.97663   0.49926   0.50079   0.00000  Uiso   1.00
C594   C     0.52344   0.50023   0.49815   0.00000  Uiso   1.00
C595   C     0.95887   0.54610   0.52674   0.00000  Uiso   1.00
C596   C     0.54127   0.45345   0.47218   0.00000  Uiso   1.00
C597   C     0.96711   0.40395   0.46069   0.00000  Uiso   1.00
C598   C     0.53303   0.59555   0.53820   0.00000  Uiso   1.00
Cu599  Cu    0.75501   0.50579   0.56146   0.00000  Uiso   1.00
Cu600  Cu    0.74500   0.49421   0.43854   0.00000  Uiso   1.00
H601   H     0.52659   0.36912   0.44060   0.00000  Uiso   1.00
H602   H     0.97363   0.63053   0.55761   0.00000  Uiso   1.00
N603   N     0.73745   0.48547   0.34617   0.00000  Uiso   1.00
N604   N     0.76256   0.51453   0.65383   0.00000  Uiso   1.00
O605   O     0.75326   0.42871   0.53992   0.00000  Uiso   1.00
O606   O     0.74675   0.57129   0.46008   0.00000  Uiso   1.00
O607   O     0.74480   0.41892   0.43612   0.00000  Uiso   1.00
O608   O     0.75520   0.58108   0.56388   0.00000  Uiso   1.00
O609   O     0.68936   0.50488   0.55191   0.00000  Uiso   1.00
O610   O     0.81065   0.49512   0.44809   0.00000  Uiso   1.00
O611   O     0.68090   0.49510   0.44810   0.00000  Uiso   1.00
O612   O     0.81910   0.50490   0.55190   0.00000  Uiso   1.00
C613   C     0.89386   0.59243   0.56463   0.00000  Uiso   1.00
O614   O     0.86137   0.60848   0.54140   0.00000  Uiso   1.00
O615   O     0.91372   0.61838   0.62328   0.00000  Uiso   1.00
H616   H     0.89842   0.65009   0.64141   0.00000  Uiso   1.00
C617   C     0.60682   0.40738   0.43521   0.00000  Uiso   1.00
O618   O     0.63886   0.39119   0.45936   0.00000  Uiso   1.00
O619   O     0.58807   0.38197   0.37589   0.00000  Uiso   1.00
H620   H     0.60386   0.35064   0.35794   0.00000  Uiso   1.00
Br621  Br    0.85942   0.39741   0.41771   0.00000  Uiso   1.00
Br622  Br    0.64015   0.60159   0.58335   0.00000  Uiso   1.00
C623   C     0.94354   0.35171   0.45968   0.00000  Uiso   1.00
O624   O     0.91750   0.34768   0.49684   0.00000  Uiso   1.00
O625   O     0.95310   0.64006   0.41887   0.00000  Uiso   1.00
H626   H     0.93530   0.60681   0.42329   0.00000  Uiso   1.00
C627   C     0.55683   0.64773   0.53940   0.00000  Uiso   1.00
O628   O     0.58324   0.65163   0.50266   0.00000  Uiso   1.00
O629   O     0.54715   0.35945   0.57998   0.00000  Uiso   1.00
H630   H     0.56516   0.39264   0.57574   0.00000  Uiso   1.00
Br631  Br    0.70482   0.63978   0.40294   0.00000  Uiso   1.00
Br632  Br    0.79645   0.36017   0.59614   0.00000  Uiso   1.00
C633   C     0.69710   0.45724   0.64600   0.00000  Uiso   1.00
O634   O     0.66204   0.47717   0.64986   0.00000  Uiso   1.00
O635   O     0.69638   0.40486   0.61475   0.00000  Uiso   1.00
H636   H     0.66531   0.38872   0.59388   0.00000  Uiso   1.00
C637   C     0.79948   0.55436   0.34890   0.00000  Uiso   1.00
O638   O     0.82004   0.57597   0.64940   0.00000  Uiso   1.00
O639   O     0.81246   0.57211   0.41080   0.00000  Uiso   1.00
H640   H     0.83866   0.60110   0.42154   0.00000  Uiso   1.00
C641   C     0.24843   0.73346   0.48461   0.00000  Uiso   1.00
C642   C     0.25163   0.93322   0.51538   0.00000  Uiso   1.00
C643   C     0.01276   0.73925   0.45445   0.00000  Uiso   1.00
C644   C     0.48738   0.92699   0.54410   0.00000  Uiso   1.00
C645   C     0.24243   0.67753   0.47715   0.00000  Uiso   1.00
C646   C     0.25800   0.98913   0.52265   0.00000  Uiso   1.00
C647   C     0.16480   0.83386   0.50007   0.00000  Uiso   1.00
C648   C     0.33523   0.83262   0.49991   0.00000  Uiso   1.00
C649   C     0.41243   0.87857   0.53069   0.00000  Uiso   1.00
C650   C     0.08780   0.78773   0.46873   0.00000  Uiso   1.00
C651   C     0.38363   0.83291   0.50029   0.00000  Uiso   1.00
C652   C     0.11644   0.83334   0.49958   0.00000  Uiso   1.00
C653   C     0.40079   0.78687   0.47178   0.00000  Uiso   1.00
C654   C     0.09918   0.87922   0.52811   0.00000  Uiso   1.00
C655   C     0.44775   0.78484   0.47790   0.00000  Uiso   1.00
C656   C     0.05230   0.88129   0.52132   0.00000  Uiso   1.00
C657   C     0.47663   0.83260   0.50079   0.00000  Uiso   1.00
C658   C     0.02344   0.83356   0.49815   0.00000  Uiso   1.00
C659   C     0.45887   0.87943   0.52674   0.00000  Uiso   1.00
C660   C     0.04127   0.78678   0.47218   0.00000  Uiso   1.00
C661   C     0.46711   0.73728   0.46069   0.00000  Uiso   1.00
C662   C     0.03303   0.92888   0.53820   0.00000  Uiso   1.00
Cu663  Cu    0.25501   0.83913   0.56146   0.00000  Uiso   1.00
Cu664  Cu    0.24500   0.82754   0.43854   0.00000  Uiso   1.00
H665   H     0.02659   0.70245   0.44060   0.00000  Uiso   1.00
H666   H     0.47363   0.96386   0.55761   0.00000  Uiso   1.00
N667   N     0.23745   0.81881   0.34617   0.00000  Uiso   1.00
N668   N     0.26256   0.84786   0.65383   0.00000  Uiso   1.00
O669   O     0.25326   0.76204   0.53992   0.00000  Uiso   1.00
O670   O     0.24675   0.90462   0.46008   0.00000  Uiso   1.00
O671   O     0.24480   0.75226   0.43612   0.00000  Uiso   1.00
O672   O     0.25520   0.91441   0.56388   0.00000  Uiso   1.00
O673   O     0.18936   0.83821   0.55191   0.00000  Uiso   1.00
O674   O     0.31065   0.82845   0.44809   0.00000  Uiso   1.00
O675   O     0.18090   0.82843   0.44810   0.00000  Uiso   1.00
O676   O     0.31910   0.83824   0.55190   0.00000  Uiso   1.00
C677   C     0.39386   0.92576   0.56463   0.00000  Uiso   1.00
O678   O     0.36137   0.94182   0.54140   0.00000  Uiso   1.00
O679   O     0.41372   0.95171   0.62328   0.00000  Uiso   1.00
H680   H     0.39842   0.98342   0.64141   0.00000  Uiso   1.00
C681   C     0.10682   0.74072   0.43521   0.00000  Uiso   1.00
O682   O     0.13886   0.72452   0.45936   0.00000  Uiso   1.00
O683   O     0.08807   0.71531   0.37589   0.00000  Uiso   1.00
H684   H     0.10386   0.68397   0.35794   0.00000  Uiso   1.00
Br685  Br    0.35942   0.73075   0.41771   0.00000  Uiso   1.00
Br686  Br    0.14015   0.93493   0.58335   0.00000  Uiso   1.00
C687   C     0.44354   0.68504   0.45968   0.00000  Uiso   1.00
O688   O     0.41750   0.68101   0.49684   0.00000  Uiso   1.00
O689   O     0.45310   0.97339   0.41887   0.00000  Uiso   1.00
H690   H     0.43530   0.94014   0.42329   0.00000  Uiso   1.00
C691   C     0.05683   0.98106   0.53940   0.00000  Uiso   1.00
O692   O     0.08324   0.98496   0.50266   0.00000  Uiso   1.00
O693   O     0.04715   0.69278   0.57998   0.00000  Uiso   1.00
H694   H     0.06516   0.72597   0.57574   0.00000  Uiso   1.00
Br695  Br    0.20482   0.97312   0.40294   0.00000  Uiso   1.00
Br696  Br    0.29645   0.69351   0.59614   0.00000  Uiso   1.00
C697   C     0.19710   0.79058   0.64600   0.00000  Uiso   1.00
O698   O     0.16204   0.81050   0.64986   0.00000  Uiso   1.00
O699   O     0.19638   0.73820   0.61475   0.00000  Uiso   1.00
H700   H     0.16531   0.72205   0.59388   0.00000  Uiso   1.00
C701   C     0.29948   0.88769   0.34890   0.00000  Uiso   1.00
O702   O     0.32004   0.90931   0.64940   0.00000  Uiso   1.00
O703   O     0.31246   0.90544   0.41080   0.00000  Uiso   1.00
H704   H     0.33866   0.93444   0.42154   0.00000  Uiso   1.00
C705   C     0.74843   0.73346   0.48461   0.00000  Uiso   1.00
C706   C     0.75163   0.93322   0.51538   0.00000  Uiso   1.00
C707   C     0.51276   0.73925   0.45445   0.00000  Uiso   1.00
C708   C     0.98738   0.92699   0.54410   0.00000  Uiso   1.00
C709   C     0.74243   0.67753   0.47715   0.00000  Uiso   1.00
C710   C     0.75800   0.98913   0.52265   0.00000  Uiso   1.00
C711   C     0.66480   0.83386   0.50007   0.00000  Uiso   1.00
C712   C     0.83523   0.83262   0.49991   0.00000  Uiso   1.00
C713   C     0.91243   0.87857   0.53069   0.00000  Uiso   1.00
C714   C     0.58780   0.78773   0.46873   0.00000  Uiso   1.00
C715   C     0.88363   0.83291   0.50029   0.00000  Uiso   1.00
C716   C     0.61644   0.83334   0.49958   0.00000  Uiso   1.00
C717   C     0.90079   0.78687   0.47178   0.00000  Uiso   1.00
C718   C     0.59918   0.87922   0.52811   0.00000  Uiso   1.00
C719   C     0.94775   0.78484   0.47790   0.00000  Uiso   1.00
C720   C     0.55230   0.88129   0.52132   0.00000  Uiso   1.00
C721   C     0.97663   0.83260   0.50079   0.00000  Uiso   1.00
C722   C     0.52344   0.83356   0.49815   0.00000  Uiso   1.00
C723   C     0.95887   0.87943   0.52674   0.00000  Uiso   1.00
C724   C     0.54127   0.78678   0.47218   0.00000  Uiso   1.00
C725   C     0.96711   0.73728   0.46069   0.00000  Uiso   1.00
C726   C     0.53303   0.92888   0.53820   0.00000  Uiso   1.00
Cu727  Cu    0.75501   0.83913   0.56146   0.00000  Uiso   1.00
Cu728  Cu    0.74500   0.82754   0.43854   0.00000  Uiso   1.00
H729   H     0.52659   0.70245   0.44060   0.00000  Uiso   1.00
H730   H     0.97363   0.96386   0.55761   0.00000  Uiso   1.00
N731   N     0.73745   0.81881   0.34617   0.00000  Uiso   1.00
N732   N     0.76256   0.84786   0.65383   0.00000  Uiso   1.00
O733   O     0.75326   0.76204   0.53992   0.00000  Uiso   1.00
O734   O     0.74675   0.90462   0.46008   0.00000  Uiso   1.00
O735   O     0.74480   0.75226   0.43612   0.00000  Uiso   1.00
O736   O     0.75520   0.91441   0.56388   0.00000  Uiso   1.00
O737   O     0.68936   0.83821   0.55191   0.00000  Uiso   1.00
O738   O     0.81065   0.82845   0.44809   0.00000  Uiso   1.00
O739   O     0.68090   0.82843   0.44810   0.00000  Uiso   1.00
O740   O     0.81910   0.83824   0.55190   0.00000  Uiso   1.00
C741   C     0.89386   0.92576   0.56463   0.00000  Uiso   1.00
O742   O     0.86137   0.94182   0.54140   0.00000  Uiso   1.00
O743   O     0.91372   0.95171   0.62328   0.00000  Uiso   1.00
H744   H     0.89842   0.98342   0.64141   0.00000  Uiso   1.00
C745   C     0.60682   0.74072   0.43521   0.00000  Uiso   1.00
O746   O     0.63886   0.72452   0.45936   0.00000  Uiso   1.00
O747   O     0.58807   0.71531   0.37589   0.00000  Uiso   1.00
H748   H     0.60386   0.68397   0.35794   0.00000  Uiso   1.00
Br749  Br    0.85942   0.73075   0.41771   0.00000  Uiso   1.00
Br750  Br    0.64015   0.93493   0.58335   0.00000  Uiso   1.00
C751   C     0.94354   0.68504   0.45968   0.00000  Uiso   1.00
O752   O     0.91750   0.68101   0.49684   0.00000  Uiso   1.00
O753   O     0.95310   0.97339   0.41887   0.00000  Uiso   1.00
H754   H     0.93530   0.94014   0.42329   0.00000  Uiso   1.00
C755   C     0.55683   0.98106   0.53940   0.00000  Uiso   1.00
O756   O     0.58324   0.98496   0.50266   0.00000  Uiso   1.00
O757   O     0.54715   0.69278   0.57998   0.00000  Uiso   1.00
H758   H     0.56516   0.72597   0.57574   0.00000  Uiso   1.00
Br759  Br    0.70482   0.97312   0.40294   0.00000  Uiso   1.00
Br760  Br    0.79645   0.69351   0.59614   0.00000  Uiso   1.00
C761   C     0.69710   0.79058   0.64600   0.00000  Uiso   1.00
O762   O     0.66204   0.81050   0.64986   0.00000  Uiso   1.00
O763   O     0.69638   0.73820   0.61475   0.00000  Uiso   1.00
H764   H     0.66531   0.72205   0.59388   0.00000  Uiso   1.00
C765   C     0.79948   0.88769   0.34890   0.00000  Uiso   1.00
O766   O     0.82004   0.90931   0.64940   0.00000  Uiso   1.00
O767   O     0.81246   0.90544   0.41080   0.00000  Uiso   1.00
H768   H     0.83866   0.93444   0.42154   0.00000  Uiso   1.00
C769   C     0.24843   0.06680   0.81795   0.00000  Uiso   1.00
C770   C     0.25163   0.26655   0.84871   0.00000  Uiso   1.00
C771   C     0.01276   0.07258   0.78778   0.00000  Uiso   1.00
C772   C     0.48738   0.26033   0.87744   0.00000  Uiso   1.00
C773   C     0.24243   0.01087   0.81049   0.00000  Uiso   1.00
C774   C     0.25800   0.32246   0.85598   0.00000  Uiso   1.00
C775   C     0.16480   0.16719   0.83340   0.00000  Uiso   1.00
C776   C     0.33523   0.16595   0.83324   0.00000  Uiso   1.00
C777   C     0.41243   0.21191   0.86402   0.00000  Uiso   1.00
C778   C     0.08780   0.12106   0.80207   0.00000  Uiso   1.00
C779   C     0.38363   0.16625   0.83362   0.00000  Uiso   1.00
C780   C     0.11644   0.16668   0.83292   0.00000  Uiso   1.00
C781   C     0.40079   0.12020   0.80511   0.00000  Uiso   1.00
C782   C     0.09918   0.21256   0.86144   0.00000  Uiso   1.00
C783   C     0.44775   0.11817   0.81123   0.00000  Uiso   1.00
C784   C     0.05230   0.21462   0.85466   0.00000  Uiso   1.00
C785   C     0.47663   0.16593   0.83413   0.00000  Uiso   1.00
C786   C     0.02344   0.16690   0.83148   0.00000  Uiso   1.00
C787   C     0.45887   0.21277   0.86007   0.00000  Uiso   1.00
C788   C     0.04127   0.12011   0.80551   0.00000  Uiso   1.00
C789   C     0.46711   0.07061   0.79402   0.00000  Uiso   1.00
C790   C     0.03303   0.26222   0.87154   0.00000  Uiso   1.00
Cu791  Cu    0.25501   0.17246   0.89479   0.00000  Uiso   1.00
Cu792  Cu    0.24500   0.16087   0.77187   0.00000  Uiso   1.00
H793   H     0.02659   0.03578   0.77393   0.00000  Uiso   1.00
H794   H     0.47363   0.29719   0.89094   0.00000  Uiso   1.00
N795   N     0.23745   0.15214   0.67951   0.00000  Uiso   1.00
N796   N     0.26256   0.18119   0.98716   0.00000  Uiso   1.00
O797   O     0.25326   0.09538   0.87326   0.00000  Uiso   1.00
O798   O     0.24675   0.23796   0.79341   0.00000  Uiso   1.00
O799   O     0.24480   0.08559   0.76945   0.00000  Uiso   1.00
O800   O     0.25520   0.24774   0.89721   0.00000  Uiso   1.00
O801   O     0.18936   0.17155   0.88524   0.00000  Uiso   1.00
O802   O     0.31065   0.16179   0.78143   0.00000  Uiso   1.00
O803   O     0.18090   0.16176   0.78143   0.00000  Uiso   1.00
O804   O     0.31910   0.17157   0.88523   0.00000  Uiso   1.00
C805   C     0.39386   0.25909   0.89796   0.00000  Uiso   1.00
O806   O     0.36137   0.27515   0.87473   0.00000  Uiso   1.00
O807   O     0.41372   0.28505   0.95662   0.00000  Uiso   1.00
H808   H     0.39842   0.31675   0.97474   0.00000  Uiso   1.00
C809   C     0.10682   0.07405   0.76854   0.00000  Uiso   1.00
O810   O     0.13886   0.05785   0.79270   0.00000  Uiso   1.00
O811   O     0.08807   0.04864   0.70922   0.00000  Uiso   1.00
H812   H     0.10386   0.01731   0.69127   0.00000  Uiso   1.00
Br813  Br    0.35942   0.06408   0.75104   0.00000  Uiso   1.00
Br814  Br    0.14015   0.26826   0.91668   0.00000  Uiso   1.00
C815   C     0.44354   0.01838   0.79301   0.00000  Uiso   1.00
O816   O     0.41750   0.01434   0.83017   0.00000  Uiso   1.00
O817   O     0.45310   0.30673   0.75220   0.00000  Uiso   1.00
H818   H     0.43530   0.27347   0.75663   0.00000  Uiso   1.00
C819   C     0.05683   0.31439   0.87274   0.00000  Uiso   1.00
O820   O     0.08324   0.31829   0.83600   0.00000  Uiso   1.00
O821   O     0.04715   0.02612   0.91332   0.00000  Uiso   1.00
H822   H     0.06516   0.05930   0.90907   0.00000  Uiso   1.00
Br823  Br    0.20482   0.30645   0.73628   0.00000  Uiso   1.00
Br824  Br    0.29645   0.02684   0.92947   0.00000  Uiso   1.00
C825   C     0.19710   0.12391   0.97933   0.00000  Uiso   1.00
O826   O     0.16204   0.14384   0.98319   0.00000  Uiso   1.00
O827   O     0.19638   0.07153   0.94809   0.00000  Uiso   1.00
H828   H     0.16531   0.05538   0.92721   0.00000  Uiso   1.00
C829   C     0.29948   0.22102   0.68223   0.00000  Uiso   1.00
O830   O     0.32004   0.24264   0.98273   0.00000  Uiso   1.00
O831   O     0.31246   0.23878   0.74414   0.00000  Uiso   1.00
H832   H     0.33866   0.26777   0.75487   0.00000  Uiso   1.00
C833   C     0.74843   0.06680   0.81795   0.00000  Uiso   1.00
C834   C     0.75163   0.26655   0.84871   0.00000  Uiso   1.00
C835   C     0.51276   0.07258   0.78778   0.00000  Uiso   1.00
C836   C     0.98738   0.26033   0.87744   0.00000  Uiso   1.00
C837   C     0.74243   0.01087   0.81049   0.00000  Uiso   1.00
C838   C     0.75800   0.32246   0.85598   0.00000  Uiso   1.00
C839   C     0.66480   0.16719   0.83340   0.00000  Uiso   1.00
C840   C     0.83523   0.16595   0.83324   0.00000  Uiso   1.00
C841   C     0.91243   0.21191   0.86402   0.00000  Uiso   1.00
C842   C     0.58780   0.12106   0.80207   0.00000  Uiso   1.00
C843   C     0.88363   0.16625   0.83362   0.00000  Uiso   1.00
C844   C     0.61644   0.16668   0.83292   0.00000  Uiso   1.00
C845   C     0.90079   0.12020   0.80511   0.00000  Uiso   1.00
C846   C     0.59918   0.21256   0.86144   0.00000  Uiso   1.00
C847   C     0.94775   0.11817   0.81123   0.00000  Uiso   1.00
C848   C     0.55230   0.21462   0.85466   0.00000  Uiso   1.00
C849   C     0.97663   0.16593   0.83413   0.00000  Uiso   1.00
C850   C     0.52344   0.16690   0.83148   0.00000  Uiso   1.00
C851   C     0.95887   0.21277   0.86007   0.00000  Uiso   1.00
C852   C     0.54127   0.12011   0.80551   0.00000  Uiso   1.00
C853   C     0.96711   0.07061   0.79402   0.00000  Uiso   1.00
C854   C     0.53303   0.26222   0.87154   0.00000  Uiso   1.00
Cu855  Cu    0.75501   0.17246   0.89479   0.00000  Uiso   1.00
Cu856  Cu    0.74500   0.16087   0.77187   0.00000  Uiso   1.00
H857   H     0.52659   0.03578   0.77393   0.00000  Uiso   1.00
H858   H     0.97363   0.29719   0.89094   0.00000  Uiso   1.00
N859   N     0.73745   0.15214   0.67951   0.00000  Uiso   1.00
N860   N     0.76256   0.18119   0.98716   0.00000  Uiso   1.00
O861   O     0.75326   0.09538   0.87326   0.00000  Uiso   1.00
O862   O     0.74675   0.23796   0.79341   0.00000  Uiso   1.00
O863   O     0.74480   0.08559   0.76945   0.00000  Uiso   1.00
O864   O     0.75520   0.24774   0.89721   0.00000  Uiso   1.00
O865   O     0.68936   0.17155   0.88524   0.00000  Uiso   1.00
O866   O     0.81065   0.16179   0.78143   0.00000  Uiso   1.00
O867   O     0.68090   0.16176   0.78143   0.00000  Uiso   1.00
O868   O     0.81910   0.17157   0.88523   0.00000  Uiso   1.00
C869   C     0.89386   0.25909   0.89796   0.00000  Uiso   1.00
O870   O     0.86137   0.27515   0.87473   0.00000  Uiso   1.00
O871   O     0.91372   0.28505   0.95662   0.00000  Uiso   1.00
H872   H     0.89842   0.31675   0.97474   0.00000  Uiso   1.00
C873   C     0.60682   0.07405   0.76854   0.00000  Uiso   1.00
O874   O     0.63886   0.05785   0.79270   0.00000  Uiso   1.00
O875   O     0.58807   0.04864   0.70922   0.00000  Uiso   1.00
H876   H     0.60386   0.01731   0.69127   0.00000  Uiso   1.00
Br877  Br    0.85942   0.06408   0.75104   0.00000  Uiso   1.00
Br878  Br    0.64015   0.26826   0.91668   0.00000  Uiso   1.00
C879   C     0.94354   0.01838   0.79301   0.00000  Uiso   1.00
O880   O     0.91750   0.01434   0.83017   0.00000  Uiso   1.00
O881   O     0.95310   0.30673   0.75220   0.00000  Uiso   1.00
H882   H     0.93530   0.27347   0.75663   0.00000  Uiso   1.00
C883   C     0.55683   0.31439   0.87274   0.00000  Uiso   1.00
O884   O     0.58324   0.31829   0.83600   0.00000  Uiso   1.00
O885   O     0.54715   0.02612   0.91332   0.00000  Uiso   1.00
H886   H     0.56516   0.05930   0.90907   0.00000  Uiso   1.00
Br887  Br    0.70482   0.30645   0.73628   0.00000  Uiso   1.00
Br888  Br    0.79645   0.02684   0.92947   0.00000  Uiso   1.00
C889   C     0.69710   0.12391   0.97933   0.00000  Uiso   1.00
O890   O     0.66204   0.14384   0.98319   0.00000  Uiso   1.00
O891   O     0.69638   0.07153   0.94809   0.00000  Uiso   1.00
H892   H     0.66531   0.05538   0.92721   0.00000  Uiso   1.00
C893   C     0.79948   0.22102   0.68223   0.00000  Uiso   1.00
O894   O     0.82004   0.24264   0.98273   0.00000  Uiso   1.00
O895   O     0.81246   0.23878   0.74414   0.00000  Uiso   1.00
H896   H     0.83866   0.26777   0.75487   0.00000  Uiso   1.00
C897   C     0.24843   0.40013   0.81795   0.00000  Uiso   1.00
C898   C     0.25163   0.59988   0.84871   0.00000  Uiso   1.00
C899   C     0.01276   0.40592   0.78778   0.00000  Uiso   1.00
C900   C     0.48738   0.59366   0.87744   0.00000  Uiso   1.00
C901   C     0.24243   0.34420   0.81049   0.00000  Uiso   1.00
C902   C     0.25800   0.65580   0.85598   0.00000  Uiso   1.00
C903   C     0.16480   0.50053   0.83340   0.00000  Uiso   1.00
C904   C     0.33523   0.49928   0.83324   0.00000  Uiso   1.00
C905   C     0.41243   0.54524   0.86402   0.00000  Uiso   1.00
C906   C     0.08780   0.45439   0.80207   0.00000  Uiso   1.00
C907   C     0.38363   0.49958   0.83362   0.00000  Uiso   1.00
C908   C     0.11644   0.50001   0.83292   0.00000  Uiso   1.00
C909   C     0.40079   0.45354   0.80511   0.00000  Uiso   1.00
C910   C     0.09918   0.54589   0.86144   0.00000  Uiso   1.00
C911   C     0.44775   0.45150   0.81123   0.00000  Uiso   1.00
C912   C     0.05230   0.54796   0.85466   0.00000  Uiso   1.00
C913   C     0.47663   0.49926   0.83413   0.00000  Uiso   1.00
C914   C     0.02344   0.50023   0.83148   0.00000  Uiso   1.00
C915   C     0.45887   0.54610   0.86007   0.00000  Uiso   1.00
C916   C     0.04127   0.45345   0.80551   0.00000  Uiso   1.00
C917   C     0.46711   0.40395   0.79402   0.00000  Uiso   1.00
C918   C     0.03303   0.59555   0.87154   0.00000  Uiso   1.00
Cu919  Cu    0.25501   0.50579   0.89479   0.00000  Uiso   1.00
Cu920  Cu    0.24500   0.49421   0.77187   0.00000  Uiso   1.00
H921   H     0.02659   0.36912   0.77393   0.00000  Uiso   1.00
H922   H     0.47363   0.63053   0.89094   0.00000  Uiso   1.00
N923   N     0.23745   0.48547   0.67951   0.00000  Uiso   1.00
N924   N     0.26256   0.51453   0.98716   0.00000  Uiso   1.00
O925   O     0.25326   0.42871   0.87326   0.00000  Uiso   1.00
O926   O     0.24675   0.57129   0.79341   0.00000  Uiso   1.00
O927   O     0.24480   0.41892   0.76945   0.00000  Uiso   1.00
O928   O     0.25520   0.58108   0.89721   0.00000  Uiso   1.00
O929   O     0.18936   0.50488   0.88524   0.00000  Uiso   1.00
O930   O     0.31065   0.49512   0.78143   0.00000  Uiso   1.00
O931   O     0.18090   0.49510   0.78143   0.00000  Uiso   1.00
O932   O     0.31910   0.50490   0.88523   0.00000  Uiso   1.00
C933   C     0.39386   0.59243   0.89796   0.00000  Uiso   1.00
O934   O     0.36137   0.60848   0.87473   0.00000  Uiso   1.00
O935   O     0.41372   0.61838   0.95662   0.00000  Uiso   1.00
H936   H     0.39842   0.65009   0.97474   0.00000  Uiso   1.00
C937   C     0.10682   0.40738   0.76854   0.00000  Uiso   1.00
O938   O     0.13886   0.39119   0.79270   0.00000  Uiso   1.00
O939   O     0.08807   0.38197   0.70922   0.00000  Uiso   1.00
H940   H     0.10386   0.35064   0.69127   0.00000  Uiso   1.00
Br941  Br    0.35942   0.39741   0.75104   0.00000  Uiso   1.00
Br942  Br    0.14015   0.60159   0.91668   0.00000  Uiso   1.00
C943   C     0.44354   0.35171   0.79301   0.00000  Uiso   1.00
O944   O     0.41750   0.34768   0.83017   0.00000  Uiso   1.00
O945   O     0.45310   0.64006   0.75220   0.00000  Uiso   1.00
H946   H     0.43530   0.60681   0.75663   0.00000  Uiso   1.00
C947   C     0.05683   0.64773   0.87274   0.00000  Uiso   1.00
O948   O     0.08324   0.65163   0.83600   0.00000  Uiso   1.00
O949   O     0.04715   0.35945   0.91332   0.00000  Uiso   1.00
H950   H     0.06516   0.39264   0.90907   0.00000  Uiso   1.00
Br951  Br    0.20482   0.63978   0.73628   0.00000  Uiso   1.00
Br952  Br    0.29645   0.36017   0.92947   0.00000  Uiso   1.00
C953   C     0.19710   0.45724   0.97933   0.00000  Uiso   1.00
O954   O     0.16204   0.47717   0.98319   0.00000  Uiso   1.00
O955   O     0.19638   0.40486   0.94809   0.00000  Uiso   1.00
H956   H     0.16531   0.38872   0.92721   0.00000  Uiso   1.00
C957   C     0.29948   0.55436   0.68223   0.00000  Uiso   1.00
O958   O     0.32004   0.57597   0.98273   0.00000  Uiso   1.00
O959   O     0.31246   0.57211   0.74414   0.00000  Uiso   1.00
H960   H     0.33866   0.60110   0.75487   0.00000  Uiso   1.00
C961   C     0.74843   0.40013   0.81795   0.00000  Uiso   1.00
C962   C     0.75163   0.59988   0.84871   0.00000  Uiso   1.00
C963   C     0.51276   0.40592   0.78778   0.00000  Uiso   1.00
C964   C     0.98738   0.59366   0.87744   0.00000  Uiso   1.00
C965   C     0.74243   0.34420   0.81049   0.00000  Uiso   1.00
C966   C     0.75800   0.65580   0.85598   0.00000  Uiso   1.00
C967   C     0.66480   0.50053   0.83340   0.00000  Uiso   1.00
C968   C     0.83523   0.49928   0.83324   0.00000  Uiso   1.00
C969   C     0.91243   0.54524   0.86402   0.00000  Uiso   1.00
C970   C     0.58780   0.45439   0.80207   0.00000  Uiso   1.00
C971   C     0.88363   0.49958   0.83362   0.00000  Uiso   1.00
C972   C     0.61644   0.50001   0.83292   0.00000  Uiso   1.00
C973   C     0.90079   0.45354   0.80511   0.00000  Uiso   1.00
C974   C     0.59918   0.54589   0.86144   0.00000  Uiso   1.00
C975   C     0.94775   0.45150   0.81123   0.00000  Uiso   1.00
C976   C     0.55230   0.54796   0.85466   0.00000  Uiso   1.00
C977   C     0.97663   0.49926   0.83413   0.00000  Uiso   1.00
C978   C     0.52344   0.50023   0.83148   0.00000  Uiso   1.00
C979   C     0.95887   0.54610   0.86007   0.00000  Uiso   1.00
C980   C     0.54127   0.45345   0.80551   0.00000  Uiso   1.00
C981   C     0.96711   0.40395   0.79402   0.00000  Uiso   1.00
C982   C     0.53303   0.59555   0.87154   0.00000  Uiso   1.00
Cu983  Cu    0.75501   0.50579   0.89479   0.00000  Uiso   1.00
Cu984  Cu    0.74500   0.49421   0.77187   0.00000  Uiso   1.00
H985   H     0.52659   0.36912   0.77393   0.00000  Uiso   1.00
H986   H     0.97363   0.63053   0.89094   0.00000  Uiso   1.00
N987   N     0.73745   0.48547   0.67951   0.00000  Uiso   1.00
N988   N     0.76256   0.51453   0.98716   0.00000  Uiso   1.00
O989   O     0.75326   0.42871   0.87326   0.00000  Uiso   1.00
O990   O     0.74675   0.57129   0.79341   0.00000  Uiso   1.00
O991   O     0.74480   0.41892   0.76945   0.00000  Uiso   1.00
O992   O     0.75520   0.58108   0.89721   0.00000  Uiso   1.00
O993   O     0.68936   0.50488   0.88524   0.00000  Uiso   1.00
O994   O     0.81065   0.49512   0.78143   0.00000  Uiso   1.00
O995   O     0.68090   0.49510   0.78143   0.00000  Uiso   1.00
O996   O     0.81910   0.50490   0.88523   0.00000  Uiso   1.00
C997   C     0.89386   0.59243   0.89796   0.00000  Uiso   1.00
O998   O     0.86137   0.60848   0.87473   0.00000  Uiso   1.00
O999   O     0.91372   0.61838   0.95662   0.00000  Uiso   1.00
H1000  H     0.89842   0.65009   0.97474   0.00000  Uiso   1.00
C1001  C     0.60682   0.40738   0.76854   0.00000  Uiso   1.00
O1002  O     0.63886   0.39119   0.79270   0.00000  Uiso   1.00
O1003  O     0.58807   0.38197   0.70922   0.00000  Uiso   1.00
H1004  H     0.60386   0.35064   0.69127   0.00000  Uiso   1.00
Br1005 Br    0.85942   0.39741   0.75104   0.00000  Uiso   1.00
Br1006 Br    0.64015   0.60159   0.91668   0.00000  Uiso   1.00
C1007  C     0.94354   0.35171   0.79301   0.00000  Uiso   1.00
O1008  O     0.91750   0.34768   0.83017   0.00000  Uiso   1.00
O1009  O     0.95310   0.64006   0.75220   0.00000  Uiso   1.00
H1010  H     0.93530   0.60681   0.75663   0.00000  Uiso   1.00
C1011  C     0.55683   0.64773   0.87274   0.00000  Uiso   1.00
O1012  O     0.58324   0.65163   0.83600   0.00000  Uiso   1.00
O1013  O     0.54715   0.35945   0.91332   0.00000  Uiso   1.00
H1014  H     0.56516   0.39264   0.90907   0.00000  Uiso   1.00
Br1015 Br    0.70482   0.63978   0.73628   0.00000  Uiso   1.00
Br1016 Br    0.79645   0.36017   0.92947   0.00000  Uiso   1.00
C1017  C     0.69710   0.45724   0.97933   0.00000  Uiso   1.00
O1018  O     0.66204   0.47717   0.98319   0.00000  Uiso   1.00
O1019  O     0.69638   0.40486   0.94809   0.00000  Uiso   1.00
H1020  H     0.66531   0.38872   0.92721   0.00000  Uiso   1.00
C1021  C     0.79948   0.55436   0.68223   0.00000  Uiso   1.00
O1022  O     0.82004   0.57597   0.98273   0.00000  Uiso   1.00
O1023  O     0.81246   0.57211   0.74414   0.00000  Uiso   1.00
H1024  H     0.83866   0.60110   0.75487   0.00000  Uiso   1.00
C1025  C     0.24843   0.73346   0.81795   0.00000  Uiso   1.00
C1026  C     0.25163   0.93322   0.84871   0.00000  Uiso   1.00
C1027  C     0.01276   0.73925   0.78778   0.00000  Uiso   1.00
C1028  C     0.48738   0.92699   0.87744   0.00000  Uiso   1.00
C1029  C     0.24243   0.67753   0.81049   0.00000  Uiso   1.00
C1030  C     0.25800   0.98913   0.85598   0.00000  Uiso   1.00
C1031  C     0.16480   0.83386   0.83340   0.00000  Uiso   1.00
C1032  C     0.33523   0.83262   0.83324   0.00000  Uiso   1.00
C1033  C     0.41243   0.87857   0.86402   0.00000  Uiso   1.00
C1034  C     0.08780   0.78773   0.80207   0.00000  Uiso   1.00
C1035  C     0.38363   0.83291   0.83362   0.00000  Uiso   1.00
C1036  C     0.11644   0.83334   0.83292   0.00000  Uiso   1.00
C1037  C     0.40079   0.78687   0.80511   0.00000  Uiso   1.00
C1038  C     0.09918   0.87922   0.86144   0.00000  Uiso   1.00
C1039  C     0.44775   0.78484   0.81123   0.00000  Uiso   1.00
C1040  C     0.05230   0.88129   0.85466   0.00000  Uiso   1.00
C1041  C     0.47663   0.83260   0.83413   0.00000  Uiso   1.00
C1042  C     0.02344   0.83356   0.83148   0.00000  Uiso   1.00
C1043  C     0.45887   0.87943   0.86007   0.00000  Uiso   1.00
C1044  C     0.04127   0.78678   0.80551   0.00000  Uiso   1.00
C1045  C     0.46711   0.73728   0.79402   0.00000  Uiso   1.00
C1046  C     0.03303   0.92888   0.87154   0.00000  Uiso   1.00
Cu1047 Cu    0.25501   0.83913   0.89479   0.00000  Uiso   1.00
Cu1048 Cu    0.24500   0.82754   0.77187   0.00000  Uiso   1.00
H1049  H     0.02659   0.70245   0.77393   0.00000  Uiso   1.00
H1050  H     0.47363   0.96386   0.89094   0.00000  Uiso   1.00
N1051  N     0.23745   0.81881   0.67951   0.00000  Uiso   1.00
N1052  N     0.26256   0.84786   0.98716   0.00000  Uiso   1.00
O1053  O     0.25326   0.76204   0.87326   0.00000  Uiso   1.00
O1054  O     0.24675   0.90462   0.79341   0.00000  Uiso   1.00
O1055  O     0.24480   0.75226   0.76945   0.00000  Uiso   1.00
O1056  O     0.25520   0.91441   0.89721   0.00000  Uiso   1.00
O1057  O     0.18936   0.83821   0.88524   0.00000  Uiso   1.00
O1058  O     0.31065   0.82845   0.78143   0.00000  Uiso   1.00
O1059  O     0.18090   0.82843   0.78143   0.00000  Uiso   1.00
O1060  O     0.31910   0.83824   0.88523   0.00000  Uiso   1.00
C1061  C     0.39386   0.92576   0.89796   0.00000  Uiso   1.00
O1062  O     0.36137   0.94182   0.87473   0.00000  Uiso   1.00
O1063  O     0.41372   0.95171   0.95662   0.00000  Uiso   1.00
H1064  H     0.39842   0.98342   0.97474   0.00000  Uiso   1.00
C1065  C     0.10682   0.74072   0.76854   0.00000  Uiso   1.00
O1066  O     0.13886   0.72452   0.79270   0.00000  Uiso   1.00
O1067  O     0.08807   0.71531   0.70922   0.00000  Uiso   1.00
H1068  H     0.10386   0.68397   0.69127   0.00000  Uiso   1.00
Br1069 Br    0.35942   0.73075   0.75104   0.00000  Uiso   1.00
Br1070 Br    0.14015   0.93493   0.91668   0.00000  Uiso   1.00
C1071  C     0.44354   0.68504   0.79301   0.00000  Uiso   1.00
O1072  O     0.41750   0.68101   0.83017   0.00000  Uiso   1.00
O1073  O     0.45310   0.97339   0.75220   0.00000  Uiso   1.00
H1074  H     0.43530   0.94014   0.75663   0.00000  Uiso   1.00
C1075  C     0.05683   0.98106   0.87274   0.00000  Uiso   1.00
O1076  O     0.08324   0.98496   0.83600   0.00000  Uiso   1.00
O1077  O     0.04715   0.69278   0.91332   0.00000  Uiso   1.00
H1078  H     0.06516   0.72597   0.90907   0.00000  Uiso   1.00
Br1079 Br    0.20482   0.97312   0.73628   0.00000  Uiso   1.00
Br1080 Br    0.29645   0.69351   0.92947   0.00000  Uiso   1.00
C1081  C     0.19710   0.79058   0.97933   0.00000  Uiso   1.00
O1082  O     0.16204   0.81050   0.98319   0.00000  Uiso   1.00
O1083  O     0.19638   0.73820   0.94809   0.00000  Uiso   1.00
H1084  H     0.16531   0.72205   0.92721   0.00000  Uiso   1.00
C1085  C     0.29948   0.88769   0.68223   0.00000  Uiso   1.00
O1086  O     0.32004   0.90931   0.98273   0.00000  Uiso   1.00
O1087  O     0.31246   0.90544   0.74414   0.00000  Uiso   1.00
H1088  H     0.33866   0.93444   0.75487   0.00000  Uiso   1.00
C1089  C     0.74843   0.73346   0.81795   0.00000  Uiso   1.00
C1090  C     0.75163   0.93322   0.84871   0.00000  Uiso   1.00
C1091  C     0.51276   0.73925   0.78778   0.00000  Uiso   1.00
C1092  C     0.98738   0.92699   0.87744   0.00000  Uiso   1.00
C1093  C     0.74243   0.67753   0.81049   0.00000  Uiso   1.00
C1094  C     0.75800   0.98913   0.85598   0.00000  Uiso   1.00
C1095  C     0.66480   0.83386   0.83340   0.00000  Uiso   1.00
C1096  C     0.83523   0.83262   0.83324   0.00000  Uiso   1.00
C1097  C     0.91243   0.87857   0.86402   0.00000  Uiso   1.00
C1098  C     0.58780   0.78773   0.80207   0.00000  Uiso   1.00
C1099  C     0.88363   0.83291   0.83362   0.00000  Uiso   1.00
C1100  C     0.61644   0.83334   0.83292   0.00000  Uiso   1.00
C1101  C     0.90079   0.78687   0.80511   0.00000  Uiso   1.00
C1102  C     0.59918   0.87922   0.86144   0.00000  Uiso   1.00
C1103  C     0.94775   0.78484   0.81123   0.00000  Uiso   1.00
C1104  C     0.55230   0.88129   0.85466   0.00000  Uiso   1.00
C1105  C     0.97663   0.83260   0.83413   0.00000  Uiso   1.00
C1106  C     0.52344   0.83356   0.83148   0.00000  Uiso   1.00
C1107  C     0.95887   0.87943   0.86007   0.00000  Uiso   1.00
C1108  C     0.54127   0.78678   0.80551   0.00000  Uiso   1.00
C1109  C     0.96711   0.73728   0.79402   0.00000  Uiso   1.00
C1110  C     0.53303   0.92888   0.87154   0.00000  Uiso   1.00
Cu1111 Cu    0.75501   0.83913   0.89479   0.00000  Uiso   1.00
Cu1112 Cu    0.74500   0.82754   0.77187   0.00000  Uiso   1.00
H1113  H     0.52659   0.70245   0.77393   0.00000  Uiso   1.00
H1114  H     0.97363   0.96386   0.89094   0.00000  Uiso   1.00
N1115  N     0.73745   0.81881   0.67951   0.00000  Uiso   1.00
N1116  N     0.76256   0.84786   0.98716   0.00000  Uiso   1.00
O1117  O     0.75326   0.76204   0.87326   0.00000  Uiso   1.00
O1118  O     0.74675   0.90462   0.79341   0.00000  Uiso   1.00
O1119  O     0.74480   0.75226   0.76945   0.00000  Uiso   1.00
O1120  O     0.75520   0.91441   0.89721   0.00000  Uiso   1.00
O1121  O     0.68936   0.83821   0.88524   0.00000  Uiso   1.00
O1122  O     0.81065   0.82845   0.78143   0.00000  Uiso   1.00
O1123  O     0.68090   0.82843   0.78143   0.00000  Uiso   1.00
O1124  O     0.81910   0.83824   0.88523   0.00000  Uiso   1.00
C1125  C     0.89386   0.92576   0.89796   0.00000  Uiso   1.00
O1126  O     0.86137   0.94182   0.87473   0.00000  Uiso   1.00
O1127  O     0.91372   0.95171   0.95662   0.00000  Uiso   1.00
H1128  H     0.89842   0.98342   0.97474   0.00000  Uiso   1.00
C1129  C     0.60682   0.74072   0.76854   0.00000  Uiso   1.00
O1130  O     0.63886   0.72452   0.79270   0.00000  Uiso   1.00
O1131  O     0.58807   0.71531   0.70922   0.00000  Uiso   1.00
H1132  H     0.60386   0.68397   0.69127   0.00000  Uiso   1.00
Br1133 Br    0.85942   0.73075   0.75104   0.00000  Uiso   1.00
Br1134 Br    0.64015   0.93493   0.91668   0.00000  Uiso   1.00
C1135  C     0.94354   0.68504   0.79301   0.00000  Uiso   1.00
O1136  O     0.91750   0.68101   0.83017   0.00000  Uiso   1.00
O1137  O     0.95310   0.97339   0.75220   0.00000  Uiso   1.00
H1138  H     0.93530   0.94014   0.75663   0.00000  Uiso   1.00
C1139  C     0.55683   0.98106   0.87274   0.00000  Uiso   1.00
O1140  O     0.58324   0.98496   0.83600   0.00000  Uiso   1.00
O1141  O     0.54715   0.69278   0.91332   0.00000  Uiso   1.00
H1142  H     0.56516   0.72597   0.90907   0.00000  Uiso   1.00
Br1143 Br    0.70482   0.97312   0.73628   0.00000  Uiso   1.00
Br1144 Br    0.79645   0.69351   0.92947   0.00000  Uiso   1.00
C1145  C     0.69710   0.79058   0.97933   0.00000  Uiso   1.00
O1146  O     0.66204   0.81050   0.98319   0.00000  Uiso   1.00
O1147  O     0.69638   0.73820   0.94809   0.00000  Uiso   1.00
H1148  H     0.66531   0.72205   0.92721   0.00000  Uiso   1.00
C1149  C     0.79948   0.88769   0.68223   0.00000  Uiso   1.00
O1150  O     0.82004   0.90931   0.98273   0.00000  Uiso   1.00
O1151  O     0.81246   0.90544   0.74414   0.00000  Uiso   1.00
H1152  H     0.83866   0.93444   0.75487   0.00000  Uiso   1.00
loop_
_geom_bond_atom_site_label_1
_geom_bond_atom_site_label_2
_geom_bond_distance
_geom_bond_site_symmetry_2
_ccdc_geom_bond_type
C1     O31     1.308   .     A
C1     C5      1.435   .     S
C1     O29     1.295   .     A
C2     O30     1.295   .     A
C2     C6      1.436   .     S
C2     O32     1.308   .     A
C3     C20     1.403   .     A
C3     H25     1.082   .     S
C3     C85     1.392   1_455 S
C4     H26     1.081   .     S
C4     C19     1.403   .     A
C4     C86     1.391   .     S
C5     C262    1.358   1_545 S
C5     Br311   1.941   1_545 S
C6     C133    1.358   .     S
C6     Br184   1.941   .     S
C7     C12     1.453   .     S
C7     O33     1.305   .     A
C7     O35     1.303   .     A
C8     O34     1.305   .     A
C8     C11     1.455   .     S
C8     O36     1.304   .     A
C9     C37     1.490   .     S
C9     C11     1.409   .     A
C9     C19     1.407   .     A
C10    C41     1.490   .     S
C10    C12     1.408   .     A
C10    C20     1.408   .     A
C11    C13     1.405   .     A
C12    C14     1.403   .     A
C13    Br45    1.943   .     S
C13    C15     1.413   .     A
C14    Br46    1.941   .     S
C14    C16     1.411   .     A
C15    C21     1.419   .     A
C15    C17     1.420   .     A
C16    C18     1.420   .     A
C16    C22     1.417   .     A
C17    C19     1.415   .     A
C17    C82     1.414   .     S
C18    C20     1.415   .     A
C18    C81     1.414   1_455 S
C21    C47     1.483   .     S
C21    C67     1.392   .     S
C22    C51     1.483   .     S
C22    C68     1.391   1_455 S
Cu23   Cu24    2.725   .     S
Cu23   O32     1.969   .     S
Cu23   O29     1.969   .     S
Cu23   O36     1.963   .     S
Cu23   O33     1.964   .     S
Cu23   N28     2.047   .     S
Cu24   N27     2.047   .     S
Cu24   O31     1.969   .     S
Cu24   O35     1.963   .     S
Cu24   O30     1.969   .     S
Cu24   O34     1.964   .     S
N27    N796    1.297   1_554 S
N27    C825    1.414   1_554 S
N28    N411    1.297   .     S
N28    C445    1.444   .     S
C37    O38     1.221   .     D
C37    O39     1.398   .     S
O39    H40     1.014   .     S
C41    O42     1.222   .     D
C41    O43     1.398   .     S
O43    H44     1.014   .     S
C47    O48     1.222   .     D
C47    O305    1.398   1_545 S
O49    H50     1.014   .     S
O49    C175    1.398   .     S
C51    O52     1.222   .     D
C51    O181    1.398   .     S
O53    H54     1.014   .     S
O53    C307    1.398   1_545 S
Br55   C133    1.941   .     S
Br56   C262    1.941   1_545 S
C57    O58     1.223   .     D
C57    O59     1.396   .     S
C57    N411    1.414   .     S
O59    H60     1.014   .     S
C61    O63     1.382   .     S
C61    N796    1.444   1_554 S
C61    O830    1.218   1_554 S
O62    C445    1.218   .     S
O63    H64     1.015   .     S
C65    O95     1.308   .     A
C65    C69     1.435   .     S
C65    O93     1.295   .     A
C66    O94     1.295   .     A
C66    C70     1.436   .     S
C66    O96     1.308   .     A
C67    C84     1.403   .     A
C67    H89     1.082   .     S
C68    H90     1.081   .     S
C68    C83     1.403   .     A
C68    C22     1.391   1_655 S
C69    C326    1.358   1_545 S
C69    Br375   1.941   1_545 S
C70    C197    1.358   .     S
C70    Br248   1.941   .     S
C71    C76     1.453   .     S
C71    O97     1.305   .     A
C71    O99     1.303   .     A
C72    O98     1.305   .     A
C72    C75     1.455   .     S
C72    O100    1.304   .     A
C73    C101    1.490   .     S
C73    C75     1.409   .     A
C73    C83     1.407   .     A
C74    C105    1.490   .     S
C74    C76     1.408   .     A
C74    C84     1.408   .     A
C75    C77     1.405   .     A
C76    C78     1.403   .     A
C77    Br109   1.943   .     S
C77    C79     1.413   .     A
C78    Br110   1.941   .     S
C78    C80     1.411   .     A
C79    C85     1.419   .     A
C79    C81     1.420   .     A
C80    C82     1.420   .     A
C80    C86     1.417   .     A
C81    C83     1.415   .     A
C81    C18     1.414   1_655 S
C82    C84     1.415   .     A
C85    C111    1.483   .     S
C85    C3      1.392   1_655 S
C86    C115    1.483   .     S
Cu87   Cu88    2.725   .     S
Cu87   O96     1.969   .     S
Cu87   O93     1.969   .     S
Cu87   O100    1.963   .     S
Cu87   O97     1.964   .     S
Cu87   N92     2.047   .     S
Cu88   N91     2.047   .     S
Cu88   O95     1.969   .     S
Cu88   O99     1.963   .     S
Cu88   O94     1.969   .     S
Cu88   O98     1.964   .     S
N91    N860    1.297   1_554 S
N91    C889    1.414   1_554 S
N92    N475    1.297   .     S
N92    C509    1.444   .     S
C101   O102    1.221   .     D
C101   O103    1.398   .     S
O103   H104    1.014   .     S
C105   O106    1.222   .     D
C105   O107    1.398   .     S
O107   H108    1.014   .     S
C111   O112    1.222   .     D
C111   O369    1.398   1_545 S
O113   H114    1.014   .     S
O113   C239    1.398   .     S
C115   O116    1.222   .     D
C115   O245    1.398   .     S
O117   H118    1.014   .     S
O117   C371    1.398   1_545 S
Br119  C197    1.941   .     S
Br120  C326    1.941   1_545 S
C121   O122    1.223   .     D
C121   O123    1.396   .     S
C121   N475    1.414   .     S
O123   H124    1.014   .     S
C125   O127    1.382   .     S
C125   N860    1.444   1_554 S
C125   O894    1.218   1_554 S
O126   C509    1.218   .     S
O127   H128    1.015   .     S
C129   O159    1.308   .     A
C129   C133    1.435   .     S
C129   O157    1.295   .     A
C130   O158    1.295   .     A
C130   C134    1.436   .     S
C130   O160    1.308   .     A
C131   C148    1.403   .     A
C131   H153    1.082   .     S
C131   C213    1.392   1_455 S
C132   H154    1.081   .     S
C132   C147    1.403   .     A
C132   C214    1.391   .     S
C134   C261    1.358   .     S
C134   Br312   1.941   .     S
C135   C140    1.453   .     S
C135   O161    1.305   .     A
C135   O163    1.303   .     A
C136   O162    1.305   .     A
C136   C139    1.455   .     S
C136   O164    1.304   .     A
C137   C165    1.490   .     S
C137   C139    1.409   .     A
C137   C147    1.407   .     A
C138   C169    1.490   .     S
C138   C140    1.408   .     A
C138   C148    1.408   .     A
C139   C141    1.405   .     A
C140   C142    1.403   .     A
C141   Br173   1.943   .     S
C141   C143    1.413   .     A
C142   Br174   1.941   .     S
C142   C144    1.411   .     A
C143   C149    1.419   .     A
C143   C145    1.420   .     A
C144   C146    1.420   .     A
C144   C150    1.417   .     A
C145   C147    1.415   .     A
C145   C210    1.414   .     S
C146   C148    1.415   .     A
C146   C209    1.414   1_455 S
C149   C175    1.483   .     S
C149   C195    1.392   .     S
C150   C179    1.483   .     S
C150   C196    1.391   1_455 S
Cu151  Cu152   2.725   .     S
Cu151  O160    1.969   .     S
Cu151  O157    1.969   .     S
Cu151  O164    1.963   .     S
Cu151  O161    1.964   .     S
Cu151  N156    2.047   .     S
Cu152  N155    2.047   .     S
Cu152  O159    1.969   .     S
Cu152  O163    1.963   .     S
Cu152  O158    1.969   .     S
Cu152  O162    1.964   .     S
N155   N924    1.297   1_554 S
N155   C953    1.414   1_554 S
N156   N539    1.297   .     S
N156   C573    1.444   .     S
C165   O166    1.221   .     D
C165   O167    1.398   .     S
O167   H168    1.014   .     S
C169   O170    1.222   .     D
C169   O171    1.398   .     S
O171   H172    1.014   .     S
C175   O176    1.222   .     D
O177   H178    1.014   .     S
O177   C303    1.398   .     S
C179   O180    1.222   .     D
C179   O309    1.398   .     S
O181   H182    1.014   .     S
Br183  C261    1.941   .     S
C185   O186    1.223   .     D
C185   O187    1.396   .     S
C185   N539    1.414   .     S
O187   H188    1.014   .     S
C189   O191    1.382   .     S
C189   N924    1.444   1_554 S
C189   O958    1.218   1_554 S
O190   C573    1.218   .     S
O191   H192    1.015   .     S
C193   O223    1.308   .     A
C193   C197    1.435   .     S
C193   O221    1.295   .     A
C194   O222    1.295   .     A
C194   C198    1.436   .     S
C194   O224    1.308   .     A
C195   C212    1.403   .     A
C195   H217    1.082   .     S
C196   H218    1.081   .     S
C196   C211    1.403   .     A
C196   C150    1.391   1_655 S
C198   C325    1.358   .     S
C198   Br376   1.941   .     S
C199   C204    1.453   .     S
C199   O225    1.305   .     A
C199   O227    1.303   .     A
C200   O226    1.305   .     A
C200   C203    1.455   .     S
C200   O228    1.304   .     A
C201   C229    1.490   .     S
C201   C203    1.409   .     A
C201   C211    1.407   .     A
C202   C233    1.490   .     S
C202   C204    1.408   .     A
C202   C212    1.408   .     A
C203   C205    1.405   .     A
C204   C206    1.403   .     A
C205   Br237   1.943   .     S
C205   C207    1.413   .     A
C206   Br238   1.941   .     S
C206   C208    1.411   .     A
C207   C213    1.419   .     A
C207   C209    1.420   .     A
C208   C210    1.420   .     A
C208   C214    1.417   .     A
C209   C211    1.415   .     A
C209   C146    1.414   1_655 S
C210   C212    1.415   .     A
C213   C239    1.483   .     S
C213   C131    1.392   1_655 S
C214   C243    1.483   .     S
Cu215  Cu216   2.725   .     S
Cu215  O224    1.969   .     S
Cu215  O221    1.969   .     S
Cu215  O228    1.963   .     S
Cu215  O225    1.964   .     S
Cu215  N220    2.047   .     S
Cu216  N219    2.047   .     S
Cu216  O223    1.969   .     S
Cu216  O227    1.963   .     S
Cu216  O222    1.969   .     S
Cu216  O226    1.964   .     S
N219   N988    1.297   1_554 S
N219   C1017   1.414   1_554 S
N220   N603    1.297   .     S
N220   C637    1.444   .     S
C229   O230    1.221   .     D
C229   O231    1.398   .     S
O231   H232    1.014   .     S
C233   O234    1.222   .     D
C233   O235    1.398   .     S
O235   H236    1.014   .     S
C239   O240    1.222   .     D
O241   H242    1.014   .     S
O241   C367    1.398   .     S
C243   O244    1.222   .     D
C243   O373    1.398   .     S
O245   H246    1.014   .     S
Br247  C325    1.941   .     S
C249   O250    1.223   .     D
C249   O251    1.396   .     S
C249   N603    1.414   .     S
O251   H252    1.014   .     S
C253   O255    1.382   .     S
C253   N988    1.444   1_554 S
C253   O1022   1.218   1_554 S
O254   C637    1.218   .     S
O255   H256    1.015   .     S
C257   O287    1.308   .     A
C257   C261    1.435   .     S
C257   O285    1.295   .     A
C258   O286    1.295   .     A
C258   C262    1.436   .     S
C258   O288    1.308   .     A
C259   C276    1.403   .     A
C259   H281    1.082   .     S
C259   C341    1.392   1_455 S
C260   H282    1.081   .     S
C260   C275    1.403   .     A
C260   C342    1.391   .     S
C262   C5      1.358   1_565 S
C262   Br56    1.941   1_565 S
C263   C268    1.453   .     S
C263   O289    1.305   .     A
C263   O291    1.303   .     A
C264   O290    1.305   .     A
C264   C267    1.455   .     S
C264   O292    1.304   .     A
C265   C293    1.490   .     S
C265   C267    1.409   .     A
C265   C275    1.407   .     A
C266   C297    1.490   .     S
C266   C268    1.408   .     A
C266   C276    1.408   .     A
C267   C269    1.405   .     A
C268   C270    1.403   .     A
C269   Br301   1.943   .     S
C269   C271    1.413   .     A
C270   Br302   1.941   .     S
C270   C272    1.411   .     A
C271   C277    1.419   .     A
C271   C273    1.420   .     A
C272   C274    1.420   .     A
C272   C278    1.417   .     A
C273   C275    1.415   .     A
C273   C338    1.414   .     S
C274   C276    1.415   .     A
C274   C337    1.414   1_455 S
C277   C303    1.483   .     S
C277   C323    1.392   .     S
C278   C307    1.483   .     S
C278   C324    1.391   1_455 S
Cu279  Cu280   2.725   .     S
Cu279  O288    1.969   .     S
Cu279  O285    1.969   .     S
Cu279  O292    1.963   .     S
Cu279  O289    1.964   .     S
Cu279  N284    2.047   .     S
Cu280  N283    2.047   .     S
Cu280  O287    1.969   .     S
Cu280  O291    1.963   .     S
Cu280  O286    1.969   .     S
Cu280  O290    1.964   .     S
N283   N1052   1.297   1_554 S
N283   C1081   1.414   1_554 S
N284   N667    1.297   .     S
N284   C701    1.444   .     S
C293   O294    1.221   .     D
C293   O295    1.398   .     S
O295   H296    1.014   .     S
C297   O298    1.222   .     D
C297   O299    1.398   .     S
O299   H300    1.014   .     S
C303   O304    1.222   .     D
O305   H306    1.014   .     S
O305   C47     1.398   1_565 S
C307   O308    1.222   .     D
C307   O53     1.398   1_565 S
O309   H310    1.014   .     S
Br311  C5      1.941   1_565 S
C313   O314    1.223   .     D
C313   O315    1.396   .     S
C313   N667    1.414   .     S
O315   H316    1.014   .     S
C317   O319    1.382   .     S
C317   N1052   1.444   1_554 S
C317   O1086   1.218   1_554 S
O318   C701    1.218   .     S
O319   H320    1.015   .     S
C321   O351    1.308   .     A
C321   C325    1.435   .     S
C321   O349    1.295   .     A
C322   O350    1.295   .     A
C322   C326    1.436   .     S
C322   O352    1.308   .     A
C323   C340    1.403   .     A
C323   H345    1.082   .     S
C324   H346    1.081   .     S
C324   C339    1.403   .     A
C324   C278    1.391   1_655 S
C326   C69     1.358   1_565 S
C326   Br120   1.941   1_565 S
C327   C332    1.453   .     S
C327   O353    1.305   .     A
C327   O355    1.303   .     A
C328   O354    1.305   .     A
C328   C331    1.455   .     S
C328   O356    1.304   .     A
C329   C357    1.490   .     S
C329   C331    1.409   .     A
C329   C339    1.407   .     A
C330   C361    1.490   .     S
C330   C332    1.408   .     A
C330   C340    1.408   .     A
C331   C333    1.405   .     A
C332   C334    1.403   .     A
C333   Br365   1.943   .     S
C333   C335    1.413   .     A
C334   Br366   1.941   .     S
C334   C336    1.411   .     A
C335   C341    1.419   .     A
C335   C337    1.420   .     A
C336   C338    1.420   .     A
C336   C342    1.417   .     A
C337   C339    1.415   .     A
C337   C274    1.414   1_655 S
C338   C340    1.415   .     A
C341   C367    1.483   .     S
C341   C259    1.392   1_655 S
C342   C371    1.483   .     S
Cu343  Cu344   2.725   .     S
Cu343  O352    1.969   .     S
Cu343  O349    1.969   .     S
Cu343  O356    1.963   .     S
Cu343  O353    1.964   .     S
Cu343  N348    2.047   .     S
Cu344  N347    2.047   .     S
Cu344  O351    1.969   .     S
Cu344  O355    1.963   .     S
Cu344  O350    1.969   .     S
Cu344  O354    1.964   .     S
N347   N1116   1.297   1_554 S
N347   C1145   1.414   1_554 S
N348   N731    1.297   .     S
N348   C765    1.444   .     S
C357   O358    1.221   .     D
C357   O359    1.398   .     S
O359   H360    1.014   .     S
C361   O362    1.222   .     D
C361   O363    1.398   .     S
O363   H364    1.014   .     S
C367   O368    1.222   .     D
O369   H370    1.014   .     S
O369   C111    1.398   1_565 S
C371   O372    1.222   .     D
C371   O117    1.398   1_565 S
O373   H374    1.014   .     S
Br375  C69     1.941   1_565 S
C377   O378    1.223   .     D
C377   O379    1.396   .     S
C377   N731    1.414   .     S
O379   H380    1.014   .     S
C381   O383    1.382   .     S
C381   N1116   1.444   1_554 S
C381   O1150   1.218   1_554 S
O382   C765    1.218   .     S
O383   H384    1.015   .     S
C385   O415    1.308   .     A
C385   C389    1.435   .     S
C385   O413    1.295   .     A
C386   O414    1.295   .     A
C386   C390    1.436   .     S
C386   O416    1.308   .     A
C387   C404    1.403   .     A
C387   H409    1.082   .     S
C387   C469    1.392   1_455 S
C388   H410    1.081   .     S
C388   C403    1.403   .     A
C388   C470    1.391   .     S
C389   C646    1.358   1_545 S
C389   Br695   1.941   1_545 S
C390   C517    1.358   .     S
C390   Br568   1.941   .     S
C391   C396    1.453   .     S
C391   O417    1.305   .     A
C391   O419    1.303   .     A
C392   O418    1.305   .     A
C392   C395    1.455   .     S
C392   O420    1.304   .     A
C393   C421    1.490   .     S
C393   C395    1.409   .     A
C393   C403    1.407   .     A
C394   C425    1.490   .     S
C394   C396    1.408   .     A
C394   C404    1.408   .     A
C395   C397    1.405   .     A
C396   C398    1.403   .     A
C397   Br429   1.943   .     S
C397   C399    1.413   .     A
C398   Br430   1.941   .     S
C398   C400    1.411   .     A
C399   C405    1.419   .     A
C399   C401    1.420   .     A
C400   C402    1.420   .     A
C400   C406    1.417   .     A
C401   C403    1.415   .     A
C401   C466    1.414   .     S
C402   C404    1.415   .     A
C402   C465    1.414   1_455 S
C405   C431    1.483   .     S
C405   C451    1.392   .     S
C406   C435    1.483   .     S
C406   C452    1.391   1_455 S
Cu407  Cu408   2.725   .     S
Cu407  O416    1.969   .     S
Cu407  O413    1.969   .     S
Cu407  O420    1.963   .     S
Cu407  O417    1.964   .     S
Cu407  N412    2.047   .     S
Cu408  N411    2.047   .     S
Cu408  O415    1.969   .     S
Cu408  O419    1.963   .     S
Cu408  O414    1.969   .     S
Cu408  O418    1.964   .     S
N412   N795    1.297   .     S
N412   C829    1.444   .     S
C421   O422    1.221   .     D
C421   O423    1.398   .     S
O423   H424    1.014   .     S
C425   O426    1.222   .     D
C425   O427    1.398   .     S
O427   H428    1.014   .     S
C431   O432    1.222   .     D
C431   O689    1.398   1_545 S
O433   H434    1.014   .     S
O433   C559    1.398   .     S
C435   O436    1.222   .     D
C435   O565    1.398   .     S
O437   H438    1.014   .     S
O437   C691    1.398   1_545 S
Br439  C517    1.941   .     S
Br440  C646    1.941   1_545 S
C441   O442    1.223   .     D
C441   O443    1.396   .     S
C441   N795    1.414   .     S
O443   H444    1.014   .     S
C445   O447    1.382   .     S
O446   C829    1.218   .     S
O447   H448    1.015   .     S
C449   O479    1.308   .     A
C449   C453    1.435   .     S
C449   O477    1.295   .     A
C450   O478    1.295   .     A
C450   C454    1.436   .     S
C450   O480    1.308   .     A
C451   C468    1.403   .     A
C451   H473    1.082   .     S
C452   H474    1.081   .     S
C452   C467    1.403   .     A
C452   C406    1.391   1_655 S
C453   C710    1.358   1_545 S
C453   Br759   1.941   1_545 S
C454   C581    1.358   .     S
C454   Br632   1.941   .     S
C455   C460    1.453   .     S
C455   O481    1.305   .     A
C455   O483    1.303   .     A
C456   O482    1.305   .     A
C456   C459    1.455   .     S
C456   O484    1.304   .     A
C457   C485    1.490   .     S
C457   C459    1.409   .     A
C457   C467    1.407   .     A
C458   C489    1.490   .     S
C458   C460    1.408   .     A
C458   C468    1.408   .     A
C459   C461    1.405   .     A
C460   C462    1.403   .     A
C461   Br493   1.943   .     S
C461   C463    1.413   .     A
C462   Br494   1.941   .     S
C462   C464    1.411   .     A
C463   C469    1.419   .     A
C463   C465    1.420   .     A
C464   C466    1.420   .     A
C464   C470    1.417   .     A
C465   C467    1.415   .     A
C465   C402    1.414   1_655 S
C466   C468    1.415   .     A
C469   C495    1.483   .     S
C469   C387    1.392   1_655 S
C470   C499    1.483   .     S
Cu471  Cu472   2.725   .     S
Cu471  O480    1.969   .     S
Cu471  O477    1.969   .     S
Cu471  O484    1.963   .     S
Cu471  O481    1.964   .     S
Cu471  N476    2.047   .     S
Cu472  N475    2.047   .     S
Cu472  O479    1.969   .     S
Cu472  O483    1.963   .     S
Cu472  O478    1.969   .     S
Cu472  O482    1.964   .     S
N476   N859    1.297   .     S
N476   C893    1.444   .     S
C485   O486    1.221   .     D
C485   O487    1.398   .     S
O487   H488    1.014   .     S
C489   O490    1.222   .     D
C489   O491    1.398   .     S
O491   H492    1.014   .     S
C495   O496    1.222   .     D
C495   O753    1.398   1_545 S
O497   H498    1.014   .     S
O497   C623    1.398   .     S
C499   O500    1.222   .     D
C499   O629    1.398   .     S
O501   H502    1.014   .     S
O501   C755    1.398   1_545 S
Br503  C581    1.941   .     S
Br504  C710    1.941   1_545 S
C505   O506    1.223   .     D
C505   O507    1.396   .     S
C505   N859    1.414   .     S
O507   H508    1.014   .     S
C509   O511    1.382   .     S
O510   C893    1.218   .     S
O511   H512    1.015   .     S
C513   O543    1.308   .     A
C513   C517    1.435   .     S
C513   O541    1.295   .     A
C514   O542    1.295   .     A
C514   C518    1.436   .     S
C514   O544    1.308   .     A
C515   C532    1.403   .     A
C515   H537    1.082   .     S
C515   C597    1.392   1_455 S
C516   H538    1.081   .     S
C516   C531    1.403   .     A
C516   C598    1.391   .     S
C518   C645    1.358   .     S
C518   Br696   1.941   .     S
C519   C524    1.453   .     S
C519   O545    1.305   .     A
C519   O547    1.303   .     A
C520   O546    1.305   .     A
C520   C523    1.455   .     S
C520   O548    1.304   .     A
C521   C549    1.490   .     S
C521   C523    1.409   .     A
C521   C531    1.407   .     A
C522   C553    1.490   .     S
C522   C524    1.408   .     A
C522   C532    1.408   .     A
C523   C525    1.405   .     A
C524   C526    1.403   .     A
C525   Br557   1.943   .     S
C525   C527    1.413   .     A
C526   Br558   1.941   .     S
C526   C528    1.411   .     A
C527   C533    1.419   .     A
C527   C529    1.420   .     A
C528   C530    1.420   .     A
C528   C534    1.417   .     A
C529   C531    1.415   .     A
C529   C594    1.414   .     S
C530   C532    1.415   .     A
C530   C593    1.414   1_455 S
C533   C559    1.483   .     S
C533   C579    1.392   .     S
C534   C563    1.483   .     S
C534   C580    1.391   1_455 S
Cu535  Cu536   2.725   .     S
Cu535  O544    1.969   .     S
Cu535  O541    1.969   .     S
Cu535  O548    1.963   .     S
Cu535  O545    1.964   .     S
Cu535  N540    2.047   .     S
Cu536  N539    2.047   .     S
Cu536  O543    1.969   .     S
Cu536  O547    1.963   .     S
Cu536  O542    1.969   .     S
Cu536  O546    1.964   .     S
N540   N923    1.297   .     S
N540   C957    1.444   .     S
C549   O550    1.221   .     D
C549   O551    1.398   .     S
O551   H552    1.014   .     S
C553   O554    1.222   .     D
C553   O555    1.398   .     S
O555   H556    1.014   .     S
C559   O560    1.222   .     D
O561   H562    1.014   .     S
O561   C687    1.398   .     S
C563   O564    1.222   .     D
C563   O693    1.398   .     S
O565   H566    1.014   .     S
Br567  C645    1.941   .     S
C569   O570    1.223   .     D
C569   O571    1.396   .     S
C569   N923    1.414   .     S
O571   H572    1.014   .     S
C573   O575    1.382   .     S
O574   C957    1.218   .     S
O575   H576    1.015   .     S
C577   O607    1.308   .     A
C577   C581    1.435   .     S
C577   O605    1.295   .     A
C578   O606    1.295   .     A
C578   C582    1.436   .     S
C578   O608    1.308   .     A
C579   C596    1.403   .     A
C579   H601    1.082   .     S
C580   H602    1.081   .     S
C580   C595    1.403   .     A
C580   C534    1.391   1_655 S
C582   C709    1.358   .     S
C582   Br760   1.941   .     S
C583   C588    1.453   .     S
C583   O609    1.305   .     A
C583   O611    1.303   .     A
C584   O610    1.305   .     A
C584   C587    1.455   .     S
C584   O612    1.304   .     A
C585   C613    1.490   .     S
C585   C587    1.409   .     A
C585   C595    1.407   .     A
C586   C617    1.490   .     S
C586   C588    1.408   .     A
C586   C596    1.408   .     A
C587   C589    1.405   .     A
C588   C590    1.403   .     A
C589   Br621   1.943   .     S
C589   C591    1.413   .     A
C590   Br622   1.941   .     S
C590   C592    1.411   .     A
C591   C597    1.419   .     A
C591   C593    1.420   .     A
C592   C594    1.420   .     A
C592   C598    1.417   .     A
C593   C595    1.415   .     A
C593   C530    1.414   1_655 S
C594   C596    1.415   .     A
C597   C623    1.483   .     S
C597   C515    1.392   1_655 S
C598   C627    1.483   .     S
Cu599  Cu600   2.725   .     S
Cu599  O608    1.969   .     S
Cu599  O605    1.969   .     S
Cu599  O612    1.963   .     S
Cu599  O609    1.964   .     S
Cu599  N604    2.047   .     S
Cu600  N603    2.047   .     S
Cu600  O607    1.969   .     S
Cu600  O611    1.963   .     S
Cu600  O606    1.969   .     S
Cu600  O610    1.964   .     S
N604   N987    1.297   .     S
N604   C1021   1.444   .     S
C613   O614    1.221   .     D
C613   O615    1.398   .     S
O615   H616    1.014   .     S
C617   O618    1.222   .     D
C617   O619    1.398   .     S
O619   H620    1.014   .     S
C623   O624    1.222   .     D
O625   H626    1.014   .     S
O625   C751    1.398   .     S
C627   O628    1.222   .     D
C627   O757    1.398   .     S
O629   H630    1.014   .     S
Br631  C709    1.941   .     S
C633   O634    1.223   .     D
C633   O635    1.396   .     S
C633   N987    1.414   .     S
O635   H636    1.014   .     S
C637   O639    1.382   .     S
O638   C1021   1.218   .     S
O639   H640    1.015   .     S
C641   O671    1.308   .     A
C641   C645    1.435   .     S
C641   O669    1.295   .     A
C642   O670    1.295   .     A
C642   C646    1.436   .     S
C642   O672    1.308   .     A
C643   C660    1.403   .     A
C643   H665    1.082   .     S
C643   C725    1.392   1_455 S
C644   H666    1.081   .     S
C644   C659    1.403   .     A
C644   C726    1.391   .     S
C646   C389    1.358   1_565 S
C646   Br440   1.941   1_565 S
C647   C652    1.453   .     S
C647   O673    1.305   .     A
C647   O675    1.303   .     A
C648   O674    1.305   .     A
C648   C651    1.455   .     S
C648   O676    1.304   .     A
C649   C677    1.490   .     S
C649   C651    1.409   .     A
C649   C659    1.407   .     A
C650   C681    1.490   .     S
C650   C652    1.408   .     A
C650   C660    1.408   .     A
C651   C653    1.405   .     A
C652   C654    1.403   .     A
C653   Br685   1.943   .     S
C653   C655    1.413   .     A
C654   Br686   1.941   .     S
C654   C656    1.411   .     A
C655   C661    1.419   .     A
C655   C657    1.420   .     A
C656   C658    1.420   .     A
C656   C662    1.417   .     A
C657   C659    1.415   .     A
C657   C722    1.414   .     S
C658   C660    1.415   .     A
C658   C721    1.414   1_455 S
C661   C687    1.483   .     S
C661   C707    1.392   .     S
C662   C691    1.483   .     S
C662   C708    1.391   1_455 S
Cu663  Cu664   2.725   .     S
Cu663  O672    1.969   .     S
Cu663  O669    1.969   .     S
Cu663  O676    1.963   .     S
Cu663  O673    1.964   .     S
Cu663  N668    2.047   .     S
Cu664  N667    2.047   .     S
Cu664  O671    1.969   .     S
Cu664  O675    1.963   .     S
Cu664  O670    1.969   .     S
Cu664  O674    1.964   .     S
N668   N1051   1.297   .     S
N668   C1085   1.444   .     S
C677   O678    1.221   .     D
C677   O679    1.398   .     S
O679   H680    1.014   .     S
C681   O682    1.222   .     D
C681   O683    1.398   .     S
O683   H684    1.014   .     S
C687   O688    1.222   .     D
O689   H690    1.014   .     S
O689   C431    1.398   1_565 S
C691   O692    1.222   .     D
C691   O437    1.398   1_565 S
O693   H694    1.014   .     S
Br695  C389    1.941   1_565 S
C697   O698    1.223   .     D
C697   O699    1.396   .     S
C697   N1051   1.414   .     S
O699   H700    1.014   .     S
C701   O703    1.382   .     S
O702   C1085   1.218   .     S
O703   H704    1.015   .     S
C705   O735    1.308   .     A
C705   C709    1.435   .     S
C705   O733    1.295   .     A
C706   O734    1.295   .     A
C706   C710    1.436   .     S
C706   O736    1.308   .     A
C707   C724    1.403   .     A
C707   H729    1.082   .     S
C708   H730    1.081   .     S
C708   C723    1.403   .     A
C708   C662    1.391   1_655 S
C710   C453    1.358   1_565 S
C710   Br504   1.941   1_565 S
C711   C716    1.453   .     S
C711   O737    1.305   .     A
C711   O739    1.303   .     A
C712   O738    1.305   .     A
C712   C715    1.455   .     S
C712   O740    1.304   .     A
C713   C741    1.490   .     S
C713   C715    1.409   .     A
C713   C723    1.407   .     A
C714   C745    1.490   .     S
C714   C716    1.408   .     A
C714   C724    1.408   .     A
C715   C717    1.405   .     A
C716   C718    1.403   .     A
C717   Br749   1.943   .     S
C717   C719    1.413   .     A
C718   Br750   1.941   .     S
C718   C720    1.411   .     A
C719   C725    1.419   .     A
C719   C721    1.420   .     A
C720   C722    1.420   .     A
C720   C726    1.417   .     A
C721   C723    1.415   .     A
C721   C658    1.414   1_655 S
C722   C724    1.415   .     A
C725   C751    1.483   .     S
C725   C643    1.392   1_655 S
C726   C755    1.483   .     S
Cu727  Cu728   2.725   .     S
Cu727  O736    1.969   .     S
Cu727  O733    1.969   .     S
Cu727  O740    1.963   .     S
Cu727  O737    1.964   .     S
Cu727  N732    2.047   .     S
Cu728  N731    2.047   .     S
Cu728  O735    1.969   .     S
Cu728  O739    1.963   .     S
Cu728  O734    1.969   .     S
Cu728  O738    1.964   .     S
N732   N1115   1.297   .     S
N732   C1149   1.444   .     S
C741   O742    1.221   .     D
C741   O743    1.398   .     S
O743   H744    1.014   .     S
C745   O746    1.222   .     D
C745   O747    1.398   .     S
O747   H748    1.014   .     S
C751   O752    1.222   .     D
O753   H754    1.014   .     S
O753   C495    1.398   1_565 S
C755   O756    1.222   .     D
C755   O501    1.398   1_565 S
O757   H758    1.014   .     S
Br759  C453    1.941   1_565 S
C761   O762    1.223   .     D
C761   O763    1.396   .     S
C761   N1115   1.414   .     S
O763   H764    1.014   .     S
C765   O767    1.382   .     S
O766   C1149   1.218   .     S
O767   H768    1.015   .     S
C769   O799    1.308   .     A
C769   C773    1.435   .     S
C769   O797    1.295   .     A
C770   O798    1.295   .     A
C770   C774    1.436   .     S
C770   O800    1.308   .     A
C771   C788    1.403   .     A
C771   H793    1.082   .     S
C771   C853    1.392   1_455 S
C772   H794    1.081   .     S
C772   C787    1.403   .     A
C772   C854    1.391   .     S
C773   C1030   1.358   1_545 S
C773   Br1079  1.941   1_545 S
C774   C901    1.358   .     S
C774   Br952   1.941   .     S
C775   C780    1.453   .     S
C775   O801    1.305   .     A
C775   O803    1.303   .     A
C776   O802    1.305   .     A
C776   C779    1.455   .     S
C776   O804    1.304   .     A
C777   C805    1.490   .     S
C777   C779    1.409   .     A
C777   C787    1.407   .     A
C778   C809    1.490   .     S
C778   C780    1.408   .     A
C778   C788    1.408   .     A
C779   C781    1.405   .     A
C780   C782    1.403   .     A
C781   Br813   1.943   .     S
C781   C783    1.413   .     A
C782   Br814   1.941   .     S
C782   C784    1.411   .     A
C783   C789    1.419   .     A
C783   C785    1.420   .     A
C784   C786    1.420   .     A
C784   C790    1.417   .     A
C785   C787    1.415   .     A
C785   C850    1.414   .     S
C786   C788    1.415   .     A
C786   C849    1.414   1_455 S
C789   C815    1.483   .     S
C789   C835    1.392   .     S
C790   C819    1.483   .     S
C790   C836    1.391   1_455 S
Cu791  Cu792   2.725   .     S
Cu791  O800    1.969   .     S
Cu791  O797    1.969   .     S
Cu791  O804    1.963   .     S
Cu791  O801    1.964   .     S
Cu791  N796    2.047   .     S
Cu792  N795    2.047   .     S
Cu792  O799    1.969   .     S
Cu792  O803    1.963   .     S
Cu792  O798    1.969   .     S
Cu792  O802    1.964   .     S
N796   N27     1.297   1_556 S
N796   C61     1.444   1_556 S
C805   O806    1.221   .     D
C805   O807    1.398   .     S
O807   H808    1.014   .     S
C809   O810    1.222   .     D
C809   O811    1.398   .     S
O811   H812    1.014   .     S
C815   O816    1.222   .     D
C815   O1073   1.398   1_545 S
O817   H818    1.014   .     S
O817   C943    1.398   .     S
C819   O820    1.222   .     D
C819   O949    1.398   .     S
O821   H822    1.014   .     S
O821   C1075   1.398   1_545 S
Br823  C901    1.941   .     S
Br824  C1030   1.941   1_545 S
C825   O826    1.223   .     D
C825   O827    1.396   .     S
C825   N27     1.414   1_556 S
O827   H828    1.014   .     S
C829   O831    1.382   .     S
O830   C61     1.218   1_556 S
O831   H832    1.015   .     S
C833   O863    1.308   .     A
C833   C837    1.435   .     S
C833   O861    1.295   .     A
C834   O862    1.295   .     A
C834   C838    1.436   .     S
C834   O864    1.308   .     A
C835   C852    1.403   .     A
C835   H857    1.082   .     S
C836   H858    1.081   .     S
C836   C851    1.403   .     A
C836   C790    1.391   1_655 S
C837   C1094   1.358   1_545 S
C837   Br1143  1.941   1_545 S
C838   C965    1.358   .     S
C838   Br1016  1.941   .     S
C839   C844    1.453   .     S
C839   O865    1.305   .     A
C839   O867    1.303   .     A
C840   O866    1.305   .     A
C840   C843    1.455   .     S
C840   O868    1.304   .     A
C841   C869    1.490   .     S
C841   C843    1.409   .     A
C841   C851    1.407   .     A
C842   C873    1.490   .     S
C842   C844    1.408   .     A
C842   C852    1.408   .     A
C843   C845    1.405   .     A
C844   C846    1.403   .     A
C845   Br877   1.943   .     S
C845   C847    1.413   .     A
C846   Br878   1.941   .     S
C846   C848    1.411   .     A
C847   C853    1.419   .     A
C847   C849    1.420   .     A
C848   C850    1.420   .     A
C848   C854    1.417   .     A
C849   C851    1.415   .     A
C849   C786    1.414   1_655 S
C850   C852    1.415   .     A
C853   C879    1.483   .     S
C853   C771    1.392   1_655 S
C854   C883    1.483   .     S
Cu855  Cu856   2.725   .     S
Cu855  O864    1.969   .     S
Cu855  O861    1.969   .     S
Cu855  O868    1.963   .     S
Cu855  O865    1.964   .     S
Cu855  N860    2.047   .     S
Cu856  N859    2.047   .     S
Cu856  O863    1.969   .     S
Cu856  O867    1.963   .     S
Cu856  O862    1.969   .     S
Cu856  O866    1.964   .     S
N860   N91     1.297   1_556 S
N860   C125    1.444   1_556 S
C869   O870    1.221   .     D
C869   O871    1.398   .     S
O871   H872    1.014   .     S
C873   O874    1.222   .     D
C873   O875    1.398   .     S
O875   H876    1.014   .     S
C879   O880    1.222   .     D
C879   O1137   1.398   1_545 S
O881   H882    1.014   .     S
O881   C1007   1.398   .     S
C883   O884    1.222   .     D
C883   O1013   1.398   .     S
O885   H886    1.014   .     S
O885   C1139   1.398   1_545 S
Br887  C965    1.941   .     S
Br888  C1094   1.941   1_545 S
C889   O890    1.223   .     D
C889   O891    1.396   .     S
C889   N91     1.414   1_556 S
O891   H892    1.014   .     S
C893   O895    1.382   .     S
O894   C125    1.218   1_556 S
O895   H896    1.015   .     S
C897   O927    1.308   .     A
C897   C901    1.435   .     S
C897   O925    1.295   .     A
C898   O926    1.295   .     A
C898   C902    1.436   .     S
C898   O928    1.308   .     A
C899   C916    1.403   .     A
C899   H921    1.082   .     S
C899   C981    1.392   1_455 S
C900   H922    1.081   .     S
C900   C915    1.403   .     A
C900   C982    1.391   .     S
C902   C1029   1.358   .     S
C902   Br1080  1.941   .     S
C903   C908    1.453   .     S
C903   O929    1.305   .     A
C903   O931    1.303   .     A
C904   O930    1.305   .     A
C904   C907    1.455   .     S
C904   O932    1.304   .     A
C905   C933    1.490   .     S
C905   C907    1.409   .     A
C905   C915    1.407   .     A
C906   C937    1.490   .     S
C906   C908    1.408   .     A
C906   C916    1.408   .     A
C907   C909    1.405   .     A
C908   C910    1.403   .     A
C909   Br941   1.943   .     S
C909   C911    1.413   .     A
C910   Br942   1.941   .     S
C910   C912    1.411   .     A
C911   C917    1.419   .     A
C911   C913    1.420   .     A
C912   C914    1.420   .     A
C912   C918    1.417   .     A
C913   C915    1.415   .     A
C913   C978    1.414   .     S
C914   C916    1.415   .     A
C914   C977    1.414   1_455 S
C917   C943    1.483   .     S
C917   C963    1.392   .     S
C918   C947    1.483   .     S
C918   C964    1.391   1_455 S
Cu919  Cu920   2.725   .     S
Cu919  O928    1.969   .     S
Cu919  O925    1.969   .     S
Cu919  O932    1.963   .     S
Cu919  O929    1.964   .     S
Cu919  N924    2.047   .     S
Cu920  N923    2.047   .     S
Cu920  O927    1.969   .     S
Cu920  O931    1.963   .     S
Cu920  O926    1.969   .     S
Cu920  O930    1.964   .     S
N924   N155    1.297   1_556 S
N924   C189    1.444   1_556 S
C933   O934    1.221   .     D
C933   O935    1.398   .     S
O935   H936    1.014   .     S
C937   O938    1.222   .     D
C937   O939    1.398   .     S
O939   H940    1.014   .     S
C943   O944    1.222   .     D
O945   H946    1.014   .     S
O945   C1071   1.398   .     S
C947   O948    1.222   .     D
C947   O1077   1.398   .     S
O949   H950    1.014   .     S
Br951  C1029   1.941   .     S
C953   O954    1.223   .     D
C953   O955    1.396   .     S
C953   N155    1.414   1_556 S
O955   H956    1.014   .     S
C957   O959    1.382   .     S
O958   C189    1.218   1_556 S
O959   H960    1.015   .     S
C961   O991    1.308   .     A
C961   C965    1.435   .     S
C961   O989    1.295   .     A
C962   O990    1.295   .     A
C962   C966    1.436   .     S
C962   O992    1.308   .     A
C963   C980    1.403   .     A
C963   H985    1.082   .     S
C964   H986    1.081   .     S
C964   C979    1.403   .     A
C964   C918    1.391   1_655 S
C966   C1093   1.358   .     S
C966   Br1144  1.941   .     S
C967   C972    1.453   .     S
C967   O993    1.305   .     A
C967   O995    1.303   .     A
C968   O994    1.305   .     A
C968   C971    1.455   .     S
C968   O996    1.304   .     A
C969   C997    1.490   .     S
C969   C971    1.409   .     A
C969   C979    1.407   .     A
C970   C1001   1.490   .     S
C970   C972    1.408   .     A
C970   C980    1.408   .     A
C971   C973    1.405   .     A
C972   C974    1.403   .     A
C973   Br1005  1.943   .     S
C973   C975    1.413   .     A
C974   Br1006  1.941   .     S
C974   C976    1.411   .     A
C975   C981    1.419   .     A
C975   C977    1.420   .     A
C976   C978    1.420   .     A
C976   C982    1.417   .     A
C977   C979    1.415   .     A
C977   C914    1.414   1_655 S
C978   C980    1.415   .     A
C981   C1007   1.483   .     S
C981   C899    1.392   1_655 S
C982   C1011   1.483   .     S
Cu983  Cu984   2.725   .     S
Cu983  O992    1.969   .     S
Cu983  O989    1.969   .     S
Cu983  O996    1.963   .     S
Cu983  O993    1.964   .     S
Cu983  N988    2.047   .     S
Cu984  N987    2.047   .     S
Cu984  O991    1.969   .     S
Cu984  O995    1.963   .     S
Cu984  O990    1.969   .     S
Cu984  O994    1.964   .     S
N988   N219    1.297   1_556 S
N988   C253    1.444   1_556 S
C997   O998    1.221   .     D
C997   O999    1.398   .     S
O999   H1000   1.014   .     S
C1001  O1002   1.222   .     D
C1001  O1003   1.398   .     S
O1003  H1004   1.014   .     S
C1007  O1008   1.222   .     D
O1009  H1010   1.014   .     S
O1009  C1135   1.398   .     S
C1011  O1012   1.222   .     D
C1011  O1141   1.398   .     S
O1013  H1014   1.014   .     S
Br1015 C1093   1.941   .     S
C1017  O1018   1.223   .     D
C1017  O1019   1.396   .     S
C1017  N219    1.414   1_556 S
O1019  H1020   1.014   .     S
C1021  O1023   1.382   .     S
O1022  C253    1.218   1_556 S
O1023  H1024   1.015   .     S
C1025  O1055   1.308   .     A
C1025  C1029   1.435   .     S
C1025  O1053   1.295   .     A
C1026  O1054   1.295   .     A
C1026  C1030   1.436   .     S
C1026  O1056   1.308   .     A
C1027  C1044   1.403   .     A
C1027  H1049   1.082   .     S
C1027  C1109   1.392   1_455 S
C1028  H1050   1.081   .     S
C1028  C1043   1.403   .     A
C1028  C1110   1.391   .     S
C1030  C773    1.358   1_565 S
C1030  Br824   1.941   1_565 S
C1031  C1036   1.453   .     S
C1031  O1057   1.305   .     A
C1031  O1059   1.303   .     A
C1032  O1058   1.305   .     A
C1032  C1035   1.455   .     S
C1032  O1060   1.304   .     A
C1033  C1061   1.490   .     S
C1033  C1035   1.409   .     A
C1033  C1043   1.407   .     A
C1034  C1065   1.490   .     S
C1034  C1036   1.408   .     A
C1034  C1044   1.408   .     A
C1035  C1037   1.405   .     A
C1036  C1038   1.403   .     A
C1037  Br1069  1.943   .     S
C1037  C1039   1.413   .     A
C1038  Br1070  1.941   .     S
C1038  C1040   1.411   .     A
C1039  C1045   1.419   .     A
C1039  C1041   1.420   .     A
C1040  C1042   1.420   .     A
C1040  C1046   1.417   .     A
C1041  C1043   1.415   .     A
C1041  C1106   1.414   .     S
C1042  C1044   1.415   .     A
C1042  C1105   1.414   1_455 S
C1045  C1071   1.483   .     S
C1045  C1091   1.392   .     S
C1046  C1075   1.483   .     S
C1046  C1092   1.391   1_455 S
Cu1047 Cu1048  2.725   .     S
Cu1047 O1056   1.969   .     S
Cu1047 O1053   1.969   .     S
Cu1047 O1060   1.963   .     S
Cu1047 O1057   1.964   .     S
Cu1047 N1052   2.047   .     S
Cu1048 N1051   2.047   .     S
Cu1048 O1055   1.969   .     S
Cu1048 O1059   1.963   .     S
Cu1048 O1054   1.969   .     S
Cu1048 O1058   1.964   .     S
N1052  N283    1.297   1_556 S
N1052  C317    1.444   1_556 S
C1061  O1062   1.221   .     D
C1061  O1063   1.398   .     S
O1063  H1064   1.014   .     S
C1065  O1066   1.222   .     D
C1065  O1067   1.398   .     S
O1067  H1068   1.014   .     S
C1071  O1072   1.222   .     D
O1073  H1074   1.014   .     S
O1073  C815    1.398   1_565 S
C1075  O1076   1.222   .     D
C1075  O821    1.398   1_565 S
O1077  H1078   1.014   .     S
Br1079 C773    1.941   1_565 S
C1081  O1082   1.223   .     D
C1081  O1083   1.396   .     S
C1081  N283    1.414   1_556 S
O1083  H1084   1.014   .     S
C1085  O1087   1.382   .     S
O1086  C317    1.218   1_556 S
O1087  H1088   1.015   .     S
C1089  O1119   1.308   .     A
C1089  C1093   1.435   .     S
C1089  O1117   1.295   .     A
C1090  O1118   1.295   .     A
C1090  C1094   1.436   .     S
C1090  O1120   1.308   .     A
C1091  C1108   1.403   .     A
C1091  H1113   1.082   .     S
C1092  H1114   1.081   .     S
C1092  C1107   1.403   .     A
C1092  C1046   1.391   1_655 S
C1094  C837    1.358   1_565 S
C1094  Br888   1.941   1_565 S
C1095  C1100   1.453   .     S
C1095  O1121   1.305   .     A
C1095  O1123   1.303   .     A
C1096  O1122   1.305   .     A
C1096  C1099   1.455   .     S
C1096  O1124   1.304   .     A
C1097  C1125   1.490   .     S
C1097  C1099   1.409   .     A
C1097  C1107   1.407   .     A
C1098  C1129   1.490   .     S
C1098  C1100   1.408   .     A
C1098  C1108   1.408   .     A
C1099  C1101   1.405   .     A
C1100  C1102   1.403   .     A
C1101  Br1133  1.943   .     S
C1101  C1103   1.413   .     A
C1102  Br1134  1.941   .     S
C1102  C1104   1.411   .     A
C1103  C1109   1.419   .     A
C1103  C1105   1.420   .     A
C1104  C1106   1.420   .     A
C1104  C1110   1.417   .     A
C1105  C1107   1.415   .     A
C1105  C1042   1.414   1_655 S
C1106  C1108   1.415   .     A
C1109  C1135   1.483   .     S
C1109  C1027   1.392   1_655 S
C1110  C1139   1.483   .     S
Cu1111 Cu1112  2.725   .     S
Cu1111 O1120   1.969   .     S
Cu1111 O1117   1.969   .     S
Cu1111 O1124   1.963   .     S
Cu1111 O1121   1.964   .     S
Cu1111 N1116   2.047   .     S
Cu1112 N1115   2.047   .     S
Cu1112 O1119   1.969   .     S
Cu1112 O1123   1.963   .     S
Cu1112 O1118   1.969   .     S
Cu1112 O1122   1.964   .     S
N1116  N347    1.297   1_556 S
N1116  C381    1.444   1_556 S
C1125  O1126   1.221   .     D
C1125  O1127   1.398   .     S
O1127  H1128   1.014   .     S
C1129  O1130   1.222   .     D
C1129  O1131   1.398   .     S
O1131  H1132   1.014   .     S
C1135  O1136   1.222   .     D
O1137  H1138   1.014   .     S
O1137  C879    1.398   1_565 S
C1139  O1140   1.222   .     D
C1139  O885    1.398   1_565 S
O1141  H1142   1.014   .     S
Br1143 C837    1.941   1_565 S
C1145  O1146   1.223   .     D
C1145  O1147   1.396   .     S
C1145  N347    1.414   1_556 S
O1147  H1148   1.014   .     S
C1149  O1151   1.382   .     S
O1150  C381    1.218   1_556 S
O1151  H1152   1.015   .     S
