data_str_m2_o2_o5_pcu_sym.12
_audit_creation_date              2020-01-03
_audit_creation_method            'Materials Studio'
_symmetry_space_group_name_H-M    'P1'
_symmetry_Int_Tables_number       1
_symmetry_cell_setting            triclinic
loop_
_symmetry_equiv_pos_as_xyz
  x,y,z
_cell_length_a                    30.4834
_cell_length_b                    27.7404
_cell_length_c                    27.2455
_cell_angle_alpha                 90.0000
_cell_angle_beta                  90.2757
_cell_angle_gamma                 90.0001
loop_
_atom_site_label
_atom_site_type_symbol
_atom_site_fract_x
_atom_site_fract_y
_atom_site_fract_z
_atom_site_U_iso_or_equiv
_atom_site_adp_type
_atom_site_occupancy
C1     C     0.16485   0.24997   0.16729   0.00000  Uiso   1.00
C2     C     0.27136   0.44584   0.20389   0.00000  Uiso   1.00
C3     C     0.24998   0.25000   0.07351   0.00000  Uiso   1.00
C4     C     0.25002   0.25000   0.25982   0.00000  Uiso   1.00
C5     C     0.25000   0.02722   0.16667   0.00000  Uiso   1.00
C6     C     0.25000   0.47252   0.16667   0.00000  Uiso   1.00
C7     C     0.24999   0.24999   0.02184   0.00000  Uiso   1.00
C8     C     0.25001   0.24999   0.31150   0.00000  Uiso   1.00
C9     C     0.04675   0.28948   0.15267   0.00000  Uiso   1.00
C10    C     0.45238   0.20704   0.15251   0.00000  Uiso   1.00
C11    C     0.45325   0.28948   0.18067   0.00000  Uiso   1.00
C12    C     0.33515   0.24997   0.16604   0.00000  Uiso   1.00
C13    C     0.04762   0.20703   0.18082   0.00000  Uiso   1.00
C14    C     0.09248   0.29207   0.15661   0.00000  Uiso   1.00
C15    C     0.40657   0.20668   0.15380   0.00000  Uiso   1.00
C16    C     0.40752   0.29207   0.17672   0.00000  Uiso   1.00
C17    C     0.09342   0.20668   0.17953   0.00000  Uiso   1.00
C18    C     0.11639   0.24963   0.16780   0.00000  Uiso   1.00
C19    C     0.38361   0.24963   0.16554   0.00000  Uiso   1.00
C20    C     0.02413   0.24788   0.16641   0.00000  Uiso   1.00
C21    C     0.47587   0.24788   0.16692   0.00000  Uiso   1.00
C22    C     0.09706   0.37237   0.17764   0.00000  Uiso   1.00
C23    C     0.25854   0.10454   0.20892   0.00000  Uiso   1.00
C24    C     0.13003   0.41323   0.18158   0.00000  Uiso   1.00
C25    C     0.38734   0.12967   0.17380   0.00000  Uiso   1.00
C26    C     0.36842   0.08308   0.15324   0.00000  Uiso   1.00
C27    C     0.40294   0.37237   0.15570   0.00000  Uiso   1.00
C28    C     0.36997   0.41323   0.15177   0.00000  Uiso   1.00
C29    C     0.11266   0.12967   0.15953   0.00000  Uiso   1.00
C30    C     0.13158   0.08308   0.18008   0.00000  Uiso   1.00
C31    C     0.22926   0.39519   0.13000   0.00000  Uiso   1.00
C32    C     0.24146   0.10454   0.12441   0.00000  Uiso   1.00
C33    C     0.27074   0.39519   0.20334   0.00000  Uiso   1.00
C34    C     0.25807   0.05391   0.20986   0.00000  Uiso   1.00
C35    C     0.22864   0.44584   0.12944   0.00000  Uiso   1.00
C36    C     0.24193   0.05391   0.12347   0.00000  Uiso   1.00
Cu37   Cu    0.25000   0.29821   0.16667   0.00000  Uiso   1.00
Cu38   Cu    0.25000   0.20178   0.16667   0.00000  Uiso   1.00
H39    H     0.26555   0.12365   0.24255   0.00000  Uiso   1.00
H40    H     0.21044   0.46344   0.10044   0.00000  Uiso   1.00
H41    H     0.23649   0.03630   0.08861   0.00000  Uiso   1.00
H42    H     0.28955   0.46344   0.23290   0.00000  Uiso   1.00
H43    H     0.09013   0.35946   0.21564   0.00000  Uiso   1.00
H44    H     0.06655   0.38734   0.16115   0.00000  Uiso   1.00
H45    H     0.13736   0.42756   0.14448   0.00000  Uiso   1.00
H46    H     0.11627   0.44281   0.20425   0.00000  Uiso   1.00
H47    H     0.16063   0.40008   0.19931   0.00000  Uiso   1.00
H48    H     0.36807   0.14021   0.20672   0.00000  Uiso   1.00
H49    H     0.42187   0.12231   0.18512   0.00000  Uiso   1.00
H50    H     0.21227   0.37553   0.10139   0.00000  Uiso   1.00
H51    H     0.38894   0.07005   0.12240   0.00000  Uiso   1.00
H52    H     0.36767   0.05503   0.18232   0.00000  Uiso   1.00
H53    H     0.33458   0.08926   0.13959   0.00000  Uiso   1.00
H54    H     0.40988   0.35947   0.11771   0.00000  Uiso   1.00
H55    H     0.43345   0.38734   0.17220   0.00000  Uiso   1.00
H56    H     0.36264   0.42756   0.18887   0.00000  Uiso   1.00
H57    H     0.38374   0.44281   0.12910   0.00000  Uiso   1.00
H58    H     0.33938   0.40008   0.13403   0.00000  Uiso   1.00
H59    H     0.13193   0.14021   0.12661   0.00000  Uiso   1.00
H60    H     0.07813   0.12231   0.14820   0.00000  Uiso   1.00
H61    H     0.23445   0.12365   0.09078   0.00000  Uiso   1.00
H62    H     0.11106   0.07005   0.21093   0.00000  Uiso   1.00
H63    H     0.13232   0.05503   0.15100   0.00000  Uiso   1.00
H64    H     0.16542   0.08926   0.19374   0.00000  Uiso   1.00
H65    H     0.28773   0.37553   0.23194   0.00000  Uiso   1.00
H66    H     0.02873   0.32049   0.13939   0.00000  Uiso   1.00
H67    H     0.46950   0.17523   0.13975   0.00000  Uiso   1.00
H68    H     0.47127   0.32048   0.19394   0.00000  Uiso   1.00
H69    H     0.03050   0.17523   0.19358   0.00000  Uiso   1.00
H70    H     0.26351   0.03630   0.24472   0.00000  Uiso   1.00
N71    N     0.25000   0.12934   0.16667   0.00000  Uiso   1.00
N72    N     0.25000   0.37065   0.16667   0.00000  Uiso   1.00
O73    O     0.18573   0.29071   0.16667   0.00000  Uiso   1.00
O74    O     0.38451   0.16603   0.13756   0.00000  Uiso   1.00
O75    O     0.38585   0.33524   0.18587   0.00000  Uiso   1.00
O76    O     0.11549   0.16603   0.19577   0.00000  Uiso   1.00
O77    O     0.31427   0.20928   0.16666   0.00000  Uiso   1.00
O78    O     0.31427   0.29071   0.16666   0.00000  Uiso   1.00
O79    O     0.18573   0.20928   0.16667   0.00000  Uiso   1.00
O80    O     0.25000   0.29071   0.09613   0.00000  Uiso   1.00
O81    O     0.25000   0.20929   0.23720   0.00000  Uiso   1.00
O82    O     0.25000   0.29071   0.23720   0.00000  Uiso   1.00
O83    O     0.25000   0.20929   0.09613   0.00000  Uiso   1.00
O84    O     0.11415   0.33524   0.14747   0.00000  Uiso   1.00
C85    C     0.66485   0.24997   0.16729   0.00000  Uiso   1.00
C86    C     0.77136   0.44584   0.20389   0.00000  Uiso   1.00
C87    C     0.74998   0.25000   0.07351   0.00000  Uiso   1.00
C88    C     0.75002   0.25000   0.25982   0.00000  Uiso   1.00
C89    C     0.75000   0.02722   0.16667   0.00000  Uiso   1.00
C90    C     0.75000   0.47252   0.16667   0.00000  Uiso   1.00
C91    C     0.74999   0.24999   0.02184   0.00000  Uiso   1.00
C92    C     0.75001   0.24999   0.31150   0.00000  Uiso   1.00
C93    C     0.54675   0.28948   0.15267   0.00000  Uiso   1.00
C94    C     0.95238   0.20704   0.15251   0.00000  Uiso   1.00
C95    C     0.95325   0.28948   0.18067   0.00000  Uiso   1.00
C96    C     0.83515   0.24997   0.16604   0.00000  Uiso   1.00
C97    C     0.54762   0.20703   0.18082   0.00000  Uiso   1.00
C98    C     0.59248   0.29207   0.15661   0.00000  Uiso   1.00
C99    C     0.90657   0.20668   0.15380   0.00000  Uiso   1.00
C100   C     0.90752   0.29207   0.17672   0.00000  Uiso   1.00
C101   C     0.59342   0.20668   0.17953   0.00000  Uiso   1.00
C102   C     0.61639   0.24963   0.16780   0.00000  Uiso   1.00
C103   C     0.88361   0.24963   0.16554   0.00000  Uiso   1.00
C104   C     0.52413   0.24788   0.16641   0.00000  Uiso   1.00
C105   C     0.97587   0.24788   0.16692   0.00000  Uiso   1.00
C106   C     0.59706   0.37237   0.17764   0.00000  Uiso   1.00
C107   C     0.75854   0.10454   0.20892   0.00000  Uiso   1.00
C108   C     0.63003   0.41323   0.18158   0.00000  Uiso   1.00
C109   C     0.88734   0.12967   0.17380   0.00000  Uiso   1.00
C110   C     0.86842   0.08308   0.15324   0.00000  Uiso   1.00
C111   C     0.90294   0.37237   0.15570   0.00000  Uiso   1.00
C112   C     0.86997   0.41323   0.15177   0.00000  Uiso   1.00
C113   C     0.61266   0.12967   0.15953   0.00000  Uiso   1.00
C114   C     0.63158   0.08308   0.18008   0.00000  Uiso   1.00
C115   C     0.72926   0.39519   0.13000   0.00000  Uiso   1.00
C116   C     0.74146   0.10454   0.12441   0.00000  Uiso   1.00
C117   C     0.77074   0.39519   0.20334   0.00000  Uiso   1.00
C118   C     0.75807   0.05391   0.20986   0.00000  Uiso   1.00
C119   C     0.72864   0.44584   0.12944   0.00000  Uiso   1.00
C120   C     0.74193   0.05391   0.12347   0.00000  Uiso   1.00
Cu121  Cu    0.75000   0.29821   0.16667   0.00000  Uiso   1.00
Cu122  Cu    0.75000   0.20178   0.16667   0.00000  Uiso   1.00
H123   H     0.76555   0.12365   0.24255   0.00000  Uiso   1.00
H124   H     0.71044   0.46344   0.10044   0.00000  Uiso   1.00
H125   H     0.73649   0.03630   0.08861   0.00000  Uiso   1.00
H126   H     0.78955   0.46344   0.23290   0.00000  Uiso   1.00
H127   H     0.59013   0.35946   0.21564   0.00000  Uiso   1.00
H128   H     0.56655   0.38734   0.16115   0.00000  Uiso   1.00
H129   H     0.63736   0.42756   0.14448   0.00000  Uiso   1.00
H130   H     0.61627   0.44281   0.20425   0.00000  Uiso   1.00
H131   H     0.66063   0.40008   0.19931   0.00000  Uiso   1.00
H132   H     0.86807   0.14021   0.20672   0.00000  Uiso   1.00
H133   H     0.92187   0.12231   0.18512   0.00000  Uiso   1.00
H134   H     0.71227   0.37553   0.10139   0.00000  Uiso   1.00
H135   H     0.88894   0.07005   0.12240   0.00000  Uiso   1.00
H136   H     0.86767   0.05503   0.18232   0.00000  Uiso   1.00
H137   H     0.83458   0.08926   0.13959   0.00000  Uiso   1.00
H138   H     0.90988   0.35947   0.11771   0.00000  Uiso   1.00
H139   H     0.93345   0.38734   0.17220   0.00000  Uiso   1.00
H140   H     0.86264   0.42756   0.18887   0.00000  Uiso   1.00
H141   H     0.88374   0.44281   0.12910   0.00000  Uiso   1.00
H142   H     0.83938   0.40008   0.13403   0.00000  Uiso   1.00
H143   H     0.63193   0.14021   0.12661   0.00000  Uiso   1.00
H144   H     0.57813   0.12231   0.14820   0.00000  Uiso   1.00
H145   H     0.73445   0.12365   0.09078   0.00000  Uiso   1.00
H146   H     0.61106   0.07005   0.21093   0.00000  Uiso   1.00
H147   H     0.63232   0.05503   0.15100   0.00000  Uiso   1.00
H148   H     0.66542   0.08926   0.19374   0.00000  Uiso   1.00
H149   H     0.78773   0.37553   0.23194   0.00000  Uiso   1.00
H150   H     0.52873   0.32049   0.13939   0.00000  Uiso   1.00
H151   H     0.96950   0.17523   0.13975   0.00000  Uiso   1.00
H152   H     0.97127   0.32048   0.19394   0.00000  Uiso   1.00
H153   H     0.53050   0.17523   0.19358   0.00000  Uiso   1.00
H154   H     0.76351   0.03630   0.24472   0.00000  Uiso   1.00
N155   N     0.75000   0.12934   0.16667   0.00000  Uiso   1.00
N156   N     0.75000   0.37065   0.16667   0.00000  Uiso   1.00
O157   O     0.68573   0.29071   0.16667   0.00000  Uiso   1.00
O158   O     0.88451   0.16603   0.13756   0.00000  Uiso   1.00
O159   O     0.88585   0.33524   0.18587   0.00000  Uiso   1.00
O160   O     0.61549   0.16603   0.19577   0.00000  Uiso   1.00
O161   O     0.81427   0.20928   0.16666   0.00000  Uiso   1.00
O162   O     0.81427   0.29071   0.16666   0.00000  Uiso   1.00
O163   O     0.68573   0.20928   0.16667   0.00000  Uiso   1.00
O164   O     0.75000   0.29071   0.09613   0.00000  Uiso   1.00
O165   O     0.75000   0.20929   0.23720   0.00000  Uiso   1.00
O166   O     0.75000   0.29071   0.23720   0.00000  Uiso   1.00
O167   O     0.75000   0.20929   0.09613   0.00000  Uiso   1.00
O168   O     0.61415   0.33524   0.14747   0.00000  Uiso   1.00
C169   C     0.16485   0.74997   0.16729   0.00000  Uiso   1.00
C170   C     0.27136   0.94584   0.20389   0.00000  Uiso   1.00
C171   C     0.24998   0.75000   0.07351   0.00000  Uiso   1.00
C172   C     0.25002   0.75000   0.25982   0.00000  Uiso   1.00
C173   C     0.25000   0.52722   0.16667   0.00000  Uiso   1.00
C174   C     0.25000   0.97252   0.16667   0.00000  Uiso   1.00
C175   C     0.24999   0.74999   0.02184   0.00000  Uiso   1.00
C176   C     0.25001   0.74999   0.31150   0.00000  Uiso   1.00
C177   C     0.04675   0.78948   0.15267   0.00000  Uiso   1.00
C178   C     0.45238   0.70704   0.15251   0.00000  Uiso   1.00
C179   C     0.45325   0.78948   0.18067   0.00000  Uiso   1.00
C180   C     0.33515   0.74997   0.16604   0.00000  Uiso   1.00
C181   C     0.04762   0.70703   0.18082   0.00000  Uiso   1.00
C182   C     0.09248   0.79207   0.15661   0.00000  Uiso   1.00
C183   C     0.40657   0.70668   0.15380   0.00000  Uiso   1.00
C184   C     0.40752   0.79207   0.17672   0.00000  Uiso   1.00
C185   C     0.09342   0.70668   0.17953   0.00000  Uiso   1.00
C186   C     0.11639   0.74963   0.16780   0.00000  Uiso   1.00
C187   C     0.38361   0.74963   0.16554   0.00000  Uiso   1.00
C188   C     0.02413   0.74788   0.16641   0.00000  Uiso   1.00
C189   C     0.47587   0.74788   0.16692   0.00000  Uiso   1.00
C190   C     0.09706   0.87237   0.17764   0.00000  Uiso   1.00
C191   C     0.25854   0.60454   0.20892   0.00000  Uiso   1.00
C192   C     0.13003   0.91323   0.18158   0.00000  Uiso   1.00
C193   C     0.38734   0.62967   0.17380   0.00000  Uiso   1.00
C194   C     0.36842   0.58308   0.15324   0.00000  Uiso   1.00
C195   C     0.40294   0.87237   0.15570   0.00000  Uiso   1.00
C196   C     0.36997   0.91323   0.15177   0.00000  Uiso   1.00
C197   C     0.11266   0.62967   0.15953   0.00000  Uiso   1.00
C198   C     0.13158   0.58308   0.18008   0.00000  Uiso   1.00
C199   C     0.22926   0.89519   0.13000   0.00000  Uiso   1.00
C200   C     0.24146   0.60454   0.12441   0.00000  Uiso   1.00
C201   C     0.27074   0.89519   0.20334   0.00000  Uiso   1.00
C202   C     0.25807   0.55391   0.20986   0.00000  Uiso   1.00
C203   C     0.22864   0.94584   0.12944   0.00000  Uiso   1.00
C204   C     0.24193   0.55391   0.12347   0.00000  Uiso   1.00
Cu205  Cu    0.25000   0.79821   0.16667   0.00000  Uiso   1.00
Cu206  Cu    0.25000   0.70178   0.16667   0.00000  Uiso   1.00
H207   H     0.26555   0.62365   0.24255   0.00000  Uiso   1.00
H208   H     0.21044   0.96344   0.10044   0.00000  Uiso   1.00
H209   H     0.23649   0.53630   0.08861   0.00000  Uiso   1.00
H210   H     0.28955   0.96344   0.23290   0.00000  Uiso   1.00
H211   H     0.09013   0.85946   0.21564   0.00000  Uiso   1.00
H212   H     0.06655   0.88734   0.16115   0.00000  Uiso   1.00
H213   H     0.13736   0.92756   0.14448   0.00000  Uiso   1.00
H214   H     0.11627   0.94281   0.20425   0.00000  Uiso   1.00
H215   H     0.16063   0.90008   0.19931   0.00000  Uiso   1.00
H216   H     0.36807   0.64021   0.20672   0.00000  Uiso   1.00
H217   H     0.42187   0.62231   0.18512   0.00000  Uiso   1.00
H218   H     0.21227   0.87553   0.10139   0.00000  Uiso   1.00
H219   H     0.38894   0.57005   0.12240   0.00000  Uiso   1.00
H220   H     0.36767   0.55503   0.18232   0.00000  Uiso   1.00
H221   H     0.33458   0.58926   0.13959   0.00000  Uiso   1.00
H222   H     0.40988   0.85947   0.11771   0.00000  Uiso   1.00
H223   H     0.43345   0.88734   0.17220   0.00000  Uiso   1.00
H224   H     0.36264   0.92756   0.18887   0.00000  Uiso   1.00
H225   H     0.38374   0.94281   0.12910   0.00000  Uiso   1.00
H226   H     0.33938   0.90008   0.13403   0.00000  Uiso   1.00
H227   H     0.13193   0.64021   0.12661   0.00000  Uiso   1.00
H228   H     0.07813   0.62231   0.14820   0.00000  Uiso   1.00
H229   H     0.23445   0.62365   0.09078   0.00000  Uiso   1.00
H230   H     0.11106   0.57005   0.21093   0.00000  Uiso   1.00
H231   H     0.13232   0.55503   0.15100   0.00000  Uiso   1.00
H232   H     0.16542   0.58926   0.19374   0.00000  Uiso   1.00
H233   H     0.28773   0.87553   0.23194   0.00000  Uiso   1.00
H234   H     0.02873   0.82049   0.13939   0.00000  Uiso   1.00
H235   H     0.46950   0.67523   0.13975   0.00000  Uiso   1.00
H236   H     0.47127   0.82048   0.19394   0.00000  Uiso   1.00
H237   H     0.03050   0.67523   0.19358   0.00000  Uiso   1.00
H238   H     0.26351   0.53630   0.24472   0.00000  Uiso   1.00
N239   N     0.25000   0.62934   0.16667   0.00000  Uiso   1.00
N240   N     0.25000   0.87065   0.16667   0.00000  Uiso   1.00
O241   O     0.18573   0.79071   0.16667   0.00000  Uiso   1.00
O242   O     0.38451   0.66603   0.13756   0.00000  Uiso   1.00
O243   O     0.38585   0.83524   0.18587   0.00000  Uiso   1.00
O244   O     0.11549   0.66603   0.19577   0.00000  Uiso   1.00
O245   O     0.31427   0.70928   0.16666   0.00000  Uiso   1.00
O246   O     0.31427   0.79071   0.16666   0.00000  Uiso   1.00
O247   O     0.18573   0.70928   0.16667   0.00000  Uiso   1.00
O248   O     0.25000   0.79071   0.09613   0.00000  Uiso   1.00
O249   O     0.25000   0.70929   0.23720   0.00000  Uiso   1.00
O250   O     0.25000   0.79071   0.23720   0.00000  Uiso   1.00
O251   O     0.25000   0.70929   0.09613   0.00000  Uiso   1.00
O252   O     0.11415   0.83524   0.14747   0.00000  Uiso   1.00
C253   C     0.66485   0.74997   0.16729   0.00000  Uiso   1.00
C254   C     0.77136   0.94584   0.20389   0.00000  Uiso   1.00
C255   C     0.74998   0.75000   0.07351   0.00000  Uiso   1.00
C256   C     0.75002   0.75000   0.25982   0.00000  Uiso   1.00
C257   C     0.75000   0.52722   0.16667   0.00000  Uiso   1.00
C258   C     0.75000   0.97252   0.16667   0.00000  Uiso   1.00
C259   C     0.74999   0.74999   0.02184   0.00000  Uiso   1.00
C260   C     0.75001   0.74999   0.31150   0.00000  Uiso   1.00
C261   C     0.54675   0.78948   0.15267   0.00000  Uiso   1.00
C262   C     0.95238   0.70704   0.15251   0.00000  Uiso   1.00
C263   C     0.95325   0.78948   0.18067   0.00000  Uiso   1.00
C264   C     0.83515   0.74997   0.16604   0.00000  Uiso   1.00
C265   C     0.54762   0.70703   0.18082   0.00000  Uiso   1.00
C266   C     0.59248   0.79207   0.15661   0.00000  Uiso   1.00
C267   C     0.90657   0.70668   0.15380   0.00000  Uiso   1.00
C268   C     0.90752   0.79207   0.17672   0.00000  Uiso   1.00
C269   C     0.59342   0.70668   0.17953   0.00000  Uiso   1.00
C270   C     0.61639   0.74963   0.16780   0.00000  Uiso   1.00
C271   C     0.88361   0.74963   0.16554   0.00000  Uiso   1.00
C272   C     0.52413   0.74788   0.16641   0.00000  Uiso   1.00
C273   C     0.97587   0.74788   0.16692   0.00000  Uiso   1.00
C274   C     0.59706   0.87237   0.17764   0.00000  Uiso   1.00
C275   C     0.75854   0.60454   0.20892   0.00000  Uiso   1.00
C276   C     0.63003   0.91323   0.18158   0.00000  Uiso   1.00
C277   C     0.88734   0.62967   0.17380   0.00000  Uiso   1.00
C278   C     0.86842   0.58308   0.15324   0.00000  Uiso   1.00
C279   C     0.90294   0.87237   0.15570   0.00000  Uiso   1.00
C280   C     0.86997   0.91323   0.15177   0.00000  Uiso   1.00
C281   C     0.61266   0.62967   0.15953   0.00000  Uiso   1.00
C282   C     0.63158   0.58308   0.18008   0.00000  Uiso   1.00
C283   C     0.72926   0.89519   0.13000   0.00000  Uiso   1.00
C284   C     0.74146   0.60454   0.12441   0.00000  Uiso   1.00
C285   C     0.77074   0.89519   0.20334   0.00000  Uiso   1.00
C286   C     0.75807   0.55391   0.20986   0.00000  Uiso   1.00
C287   C     0.72864   0.94584   0.12944   0.00000  Uiso   1.00
C288   C     0.74193   0.55391   0.12347   0.00000  Uiso   1.00
Cu289  Cu    0.75000   0.79821   0.16667   0.00000  Uiso   1.00
Cu290  Cu    0.75000   0.70178   0.16667   0.00000  Uiso   1.00
H291   H     0.76555   0.62365   0.24255   0.00000  Uiso   1.00
H292   H     0.71044   0.96344   0.10044   0.00000  Uiso   1.00
H293   H     0.73649   0.53630   0.08861   0.00000  Uiso   1.00
H294   H     0.78955   0.96344   0.23290   0.00000  Uiso   1.00
H295   H     0.59013   0.85946   0.21564   0.00000  Uiso   1.00
H296   H     0.56655   0.88734   0.16115   0.00000  Uiso   1.00
H297   H     0.63736   0.92756   0.14448   0.00000  Uiso   1.00
H298   H     0.61627   0.94281   0.20425   0.00000  Uiso   1.00
H299   H     0.66063   0.90008   0.19931   0.00000  Uiso   1.00
H300   H     0.86807   0.64021   0.20672   0.00000  Uiso   1.00
H301   H     0.92187   0.62231   0.18512   0.00000  Uiso   1.00
H302   H     0.71227   0.87553   0.10139   0.00000  Uiso   1.00
H303   H     0.88894   0.57005   0.12240   0.00000  Uiso   1.00
H304   H     0.86767   0.55503   0.18232   0.00000  Uiso   1.00
H305   H     0.83458   0.58926   0.13959   0.00000  Uiso   1.00
H306   H     0.90988   0.85947   0.11771   0.00000  Uiso   1.00
H307   H     0.93345   0.88734   0.17220   0.00000  Uiso   1.00
H308   H     0.86264   0.92756   0.18887   0.00000  Uiso   1.00
H309   H     0.88374   0.94281   0.12910   0.00000  Uiso   1.00
H310   H     0.83938   0.90008   0.13403   0.00000  Uiso   1.00
H311   H     0.63193   0.64021   0.12661   0.00000  Uiso   1.00
H312   H     0.57813   0.62231   0.14820   0.00000  Uiso   1.00
H313   H     0.73445   0.62365   0.09078   0.00000  Uiso   1.00
H314   H     0.61106   0.57005   0.21093   0.00000  Uiso   1.00
H315   H     0.63232   0.55503   0.15100   0.00000  Uiso   1.00
H316   H     0.66542   0.58926   0.19374   0.00000  Uiso   1.00
H317   H     0.78773   0.87553   0.23194   0.00000  Uiso   1.00
H318   H     0.52873   0.82049   0.13939   0.00000  Uiso   1.00
H319   H     0.96950   0.67523   0.13975   0.00000  Uiso   1.00
H320   H     0.97127   0.82048   0.19394   0.00000  Uiso   1.00
H321   H     0.53050   0.67523   0.19358   0.00000  Uiso   1.00
H322   H     0.76351   0.53630   0.24472   0.00000  Uiso   1.00
N323   N     0.75000   0.62934   0.16667   0.00000  Uiso   1.00
N324   N     0.75000   0.87065   0.16667   0.00000  Uiso   1.00
O325   O     0.68573   0.79071   0.16667   0.00000  Uiso   1.00
O326   O     0.88451   0.66603   0.13756   0.00000  Uiso   1.00
O327   O     0.88585   0.83524   0.18587   0.00000  Uiso   1.00
O328   O     0.61549   0.66603   0.19577   0.00000  Uiso   1.00
O329   O     0.81427   0.70928   0.16666   0.00000  Uiso   1.00
O330   O     0.81427   0.79071   0.16666   0.00000  Uiso   1.00
O331   O     0.68573   0.70928   0.16667   0.00000  Uiso   1.00
O332   O     0.75000   0.79071   0.09613   0.00000  Uiso   1.00
O333   O     0.75000   0.70929   0.23720   0.00000  Uiso   1.00
O334   O     0.75000   0.79071   0.23720   0.00000  Uiso   1.00
O335   O     0.75000   0.70929   0.09613   0.00000  Uiso   1.00
O336   O     0.61415   0.83524   0.14747   0.00000  Uiso   1.00
C337   C     0.16485   0.24997   0.50063   0.00000  Uiso   1.00
C338   C     0.27136   0.44584   0.53722   0.00000  Uiso   1.00
C339   C     0.24998   0.25000   0.40685   0.00000  Uiso   1.00
C340   C     0.25002   0.25000   0.59315   0.00000  Uiso   1.00
C341   C     0.25000   0.02722   0.50000   0.00000  Uiso   1.00
C342   C     0.25000   0.47252   0.50000   0.00000  Uiso   1.00
C343   C     0.24999   0.24999   0.35517   0.00000  Uiso   1.00
C344   C     0.25001   0.24999   0.64483   0.00000  Uiso   1.00
C345   C     0.04675   0.28948   0.48600   0.00000  Uiso   1.00
C346   C     0.45238   0.20704   0.48584   0.00000  Uiso   1.00
C347   C     0.45325   0.28948   0.51400   0.00000  Uiso   1.00
C348   C     0.33515   0.24997   0.49937   0.00000  Uiso   1.00
C349   C     0.04762   0.20703   0.51415   0.00000  Uiso   1.00
C350   C     0.09248   0.29207   0.48995   0.00000  Uiso   1.00
C351   C     0.40657   0.20668   0.48713   0.00000  Uiso   1.00
C352   C     0.40752   0.29207   0.51006   0.00000  Uiso   1.00
C353   C     0.09342   0.20668   0.51287   0.00000  Uiso   1.00
C354   C     0.11639   0.24963   0.50113   0.00000  Uiso   1.00
C355   C     0.38361   0.24963   0.49887   0.00000  Uiso   1.00
C356   C     0.02413   0.24788   0.49974   0.00000  Uiso   1.00
C357   C     0.47587   0.24788   0.50026   0.00000  Uiso   1.00
C358   C     0.09706   0.37237   0.51098   0.00000  Uiso   1.00
C359   C     0.25854   0.10454   0.54225   0.00000  Uiso   1.00
C360   C     0.13003   0.41323   0.51491   0.00000  Uiso   1.00
C361   C     0.38734   0.12967   0.50714   0.00000  Uiso   1.00
C362   C     0.36842   0.08308   0.48658   0.00000  Uiso   1.00
C363   C     0.40294   0.37237   0.48904   0.00000  Uiso   1.00
C364   C     0.36997   0.41323   0.48510   0.00000  Uiso   1.00
C365   C     0.11266   0.12967   0.49286   0.00000  Uiso   1.00
C366   C     0.13158   0.08308   0.51342   0.00000  Uiso   1.00
C367   C     0.22926   0.39519   0.46333   0.00000  Uiso   1.00
C368   C     0.24146   0.10454   0.45775   0.00000  Uiso   1.00
C369   C     0.27074   0.39519   0.53667   0.00000  Uiso   1.00
C370   C     0.25807   0.05391   0.54320   0.00000  Uiso   1.00
C371   C     0.22864   0.44584   0.46278   0.00000  Uiso   1.00
C372   C     0.24193   0.05391   0.45680   0.00000  Uiso   1.00
Cu373  Cu    0.25000   0.29821   0.50000   0.00000  Uiso   1.00
Cu374  Cu    0.25000   0.20178   0.50000   0.00000  Uiso   1.00
H375   H     0.26555   0.12365   0.57588   0.00000  Uiso   1.00
H376   H     0.21044   0.46344   0.43377   0.00000  Uiso   1.00
H377   H     0.23649   0.03630   0.42195   0.00000  Uiso   1.00
H378   H     0.28955   0.46344   0.56623   0.00000  Uiso   1.00
H379   H     0.09013   0.35946   0.54897   0.00000  Uiso   1.00
H380   H     0.06655   0.38734   0.49448   0.00000  Uiso   1.00
H381   H     0.13736   0.42756   0.47781   0.00000  Uiso   1.00
H382   H     0.11627   0.44281   0.53758   0.00000  Uiso   1.00
H383   H     0.16063   0.40008   0.53264   0.00000  Uiso   1.00
H384   H     0.36807   0.14021   0.54005   0.00000  Uiso   1.00
H385   H     0.42187   0.12231   0.51846   0.00000  Uiso   1.00
H386   H     0.21227   0.37553   0.43473   0.00000  Uiso   1.00
H387   H     0.38894   0.07005   0.45573   0.00000  Uiso   1.00
H388   H     0.36767   0.05503   0.51566   0.00000  Uiso   1.00
H389   H     0.33458   0.08926   0.47292   0.00000  Uiso   1.00
H390   H     0.40988   0.35947   0.45104   0.00000  Uiso   1.00
H391   H     0.43345   0.38734   0.50554   0.00000  Uiso   1.00
H392   H     0.36264   0.42756   0.52220   0.00000  Uiso   1.00
H393   H     0.38374   0.44281   0.46243   0.00000  Uiso   1.00
H394   H     0.33938   0.40008   0.46736   0.00000  Uiso   1.00
H395   H     0.13193   0.14021   0.45995   0.00000  Uiso   1.00
H396   H     0.07813   0.12231   0.48154   0.00000  Uiso   1.00
H397   H     0.23445   0.12365   0.42412   0.00000  Uiso   1.00
H398   H     0.11106   0.07005   0.54426   0.00000  Uiso   1.00
H399   H     0.13232   0.05503   0.48434   0.00000  Uiso   1.00
H400   H     0.16542   0.08926   0.52707   0.00000  Uiso   1.00
H401   H     0.28773   0.37553   0.56527   0.00000  Uiso   1.00
H402   H     0.02873   0.32049   0.47273   0.00000  Uiso   1.00
H403   H     0.46950   0.17523   0.47309   0.00000  Uiso   1.00
H404   H     0.47127   0.32048   0.52728   0.00000  Uiso   1.00
H405   H     0.03050   0.17523   0.52691   0.00000  Uiso   1.00
H406   H     0.26351   0.03630   0.57805   0.00000  Uiso   1.00
N407   N     0.25000   0.12934   0.50000   0.00000  Uiso   1.00
N408   N     0.25000   0.37065   0.50000   0.00000  Uiso   1.00
O409   O     0.18573   0.29071   0.50000   0.00000  Uiso   1.00
O410   O     0.38451   0.16603   0.47089   0.00000  Uiso   1.00
O411   O     0.38585   0.33524   0.51920   0.00000  Uiso   1.00
O412   O     0.11549   0.16603   0.52911   0.00000  Uiso   1.00
O413   O     0.31427   0.20928   0.50000   0.00000  Uiso   1.00
O414   O     0.31427   0.29071   0.50000   0.00000  Uiso   1.00
O415   O     0.18573   0.20928   0.50000   0.00000  Uiso   1.00
O416   O     0.25000   0.29071   0.42946   0.00000  Uiso   1.00
O417   O     0.25000   0.20929   0.57054   0.00000  Uiso   1.00
O418   O     0.25000   0.29071   0.57054   0.00000  Uiso   1.00
O419   O     0.25000   0.20929   0.42946   0.00000  Uiso   1.00
O420   O     0.11415   0.33524   0.48081   0.00000  Uiso   1.00
C421   C     0.66485   0.24997   0.50063   0.00000  Uiso   1.00
C422   C     0.77136   0.44584   0.53722   0.00000  Uiso   1.00
C423   C     0.74998   0.25000   0.40685   0.00000  Uiso   1.00
C424   C     0.75002   0.25000   0.59315   0.00000  Uiso   1.00
C425   C     0.75000   0.02722   0.50000   0.00000  Uiso   1.00
C426   C     0.75000   0.47252   0.50000   0.00000  Uiso   1.00
C427   C     0.74999   0.24999   0.35517   0.00000  Uiso   1.00
C428   C     0.75001   0.24999   0.64483   0.00000  Uiso   1.00
C429   C     0.54675   0.28948   0.48600   0.00000  Uiso   1.00
C430   C     0.95238   0.20704   0.48584   0.00000  Uiso   1.00
C431   C     0.95325   0.28948   0.51400   0.00000  Uiso   1.00
C432   C     0.83515   0.24997   0.49937   0.00000  Uiso   1.00
C433   C     0.54762   0.20703   0.51415   0.00000  Uiso   1.00
C434   C     0.59248   0.29207   0.48995   0.00000  Uiso   1.00
C435   C     0.90657   0.20668   0.48713   0.00000  Uiso   1.00
C436   C     0.90752   0.29207   0.51006   0.00000  Uiso   1.00
C437   C     0.59342   0.20668   0.51287   0.00000  Uiso   1.00
C438   C     0.61639   0.24963   0.50113   0.00000  Uiso   1.00
C439   C     0.88361   0.24963   0.49887   0.00000  Uiso   1.00
C440   C     0.52413   0.24788   0.49974   0.00000  Uiso   1.00
C441   C     0.97587   0.24788   0.50026   0.00000  Uiso   1.00
C442   C     0.59706   0.37237   0.51098   0.00000  Uiso   1.00
C443   C     0.75854   0.10454   0.54225   0.00000  Uiso   1.00
C444   C     0.63003   0.41323   0.51491   0.00000  Uiso   1.00
C445   C     0.88734   0.12967   0.50714   0.00000  Uiso   1.00
C446   C     0.86842   0.08308   0.48658   0.00000  Uiso   1.00
C447   C     0.90294   0.37237   0.48904   0.00000  Uiso   1.00
C448   C     0.86997   0.41323   0.48510   0.00000  Uiso   1.00
C449   C     0.61266   0.12967   0.49286   0.00000  Uiso   1.00
C450   C     0.63158   0.08308   0.51342   0.00000  Uiso   1.00
C451   C     0.72926   0.39519   0.46333   0.00000  Uiso   1.00
C452   C     0.74146   0.10454   0.45775   0.00000  Uiso   1.00
C453   C     0.77074   0.39519   0.53667   0.00000  Uiso   1.00
C454   C     0.75807   0.05391   0.54320   0.00000  Uiso   1.00
C455   C     0.72864   0.44584   0.46278   0.00000  Uiso   1.00
C456   C     0.74193   0.05391   0.45680   0.00000  Uiso   1.00
Cu457  Cu    0.75000   0.29821   0.50000   0.00000  Uiso   1.00
Cu458  Cu    0.75000   0.20178   0.50000   0.00000  Uiso   1.00
H459   H     0.76555   0.12365   0.57588   0.00000  Uiso   1.00
H460   H     0.71044   0.46344   0.43377   0.00000  Uiso   1.00
H461   H     0.73649   0.03630   0.42195   0.00000  Uiso   1.00
H462   H     0.78955   0.46344   0.56623   0.00000  Uiso   1.00
H463   H     0.59013   0.35946   0.54897   0.00000  Uiso   1.00
H464   H     0.56655   0.38734   0.49448   0.00000  Uiso   1.00
H465   H     0.63736   0.42756   0.47781   0.00000  Uiso   1.00
H466   H     0.61627   0.44281   0.53758   0.00000  Uiso   1.00
H467   H     0.66063   0.40008   0.53264   0.00000  Uiso   1.00
H468   H     0.86807   0.14021   0.54005   0.00000  Uiso   1.00
H469   H     0.92187   0.12231   0.51846   0.00000  Uiso   1.00
H470   H     0.71227   0.37553   0.43473   0.00000  Uiso   1.00
H471   H     0.88894   0.07005   0.45573   0.00000  Uiso   1.00
H472   H     0.86767   0.05503   0.51566   0.00000  Uiso   1.00
H473   H     0.83458   0.08926   0.47292   0.00000  Uiso   1.00
H474   H     0.90988   0.35947   0.45104   0.00000  Uiso   1.00
H475   H     0.93345   0.38734   0.50554   0.00000  Uiso   1.00
H476   H     0.86264   0.42756   0.52220   0.00000  Uiso   1.00
H477   H     0.88374   0.44281   0.46243   0.00000  Uiso   1.00
H478   H     0.83938   0.40008   0.46736   0.00000  Uiso   1.00
H479   H     0.63193   0.14021   0.45995   0.00000  Uiso   1.00
H480   H     0.57813   0.12231   0.48154   0.00000  Uiso   1.00
H481   H     0.73445   0.12365   0.42412   0.00000  Uiso   1.00
H482   H     0.61106   0.07005   0.54426   0.00000  Uiso   1.00
H483   H     0.63232   0.05503   0.48434   0.00000  Uiso   1.00
H484   H     0.66542   0.08926   0.52707   0.00000  Uiso   1.00
H485   H     0.78773   0.37553   0.56527   0.00000  Uiso   1.00
H486   H     0.52873   0.32049   0.47273   0.00000  Uiso   1.00
H487   H     0.96950   0.17523   0.47309   0.00000  Uiso   1.00
H488   H     0.97127   0.32048   0.52728   0.00000  Uiso   1.00
H489   H     0.53050   0.17523   0.52691   0.00000  Uiso   1.00
H490   H     0.76351   0.03630   0.57805   0.00000  Uiso   1.00
N491   N     0.75000   0.12934   0.50000   0.00000  Uiso   1.00
N492   N     0.75000   0.37065   0.50000   0.00000  Uiso   1.00
O493   O     0.68573   0.29071   0.50000   0.00000  Uiso   1.00
O494   O     0.88451   0.16603   0.47089   0.00000  Uiso   1.00
O495   O     0.88585   0.33524   0.51920   0.00000  Uiso   1.00
O496   O     0.61549   0.16603   0.52911   0.00000  Uiso   1.00
O497   O     0.81427   0.20928   0.50000   0.00000  Uiso   1.00
O498   O     0.81427   0.29071   0.50000   0.00000  Uiso   1.00
O499   O     0.68573   0.20928   0.50000   0.00000  Uiso   1.00
O500   O     0.75000   0.29071   0.42946   0.00000  Uiso   1.00
O501   O     0.75000   0.20929   0.57054   0.00000  Uiso   1.00
O502   O     0.75000   0.29071   0.57054   0.00000  Uiso   1.00
O503   O     0.75000   0.20929   0.42946   0.00000  Uiso   1.00
O504   O     0.61415   0.33524   0.48081   0.00000  Uiso   1.00
C505   C     0.16485   0.74997   0.50063   0.00000  Uiso   1.00
C506   C     0.27136   0.94584   0.53722   0.00000  Uiso   1.00
C507   C     0.24998   0.75000   0.40685   0.00000  Uiso   1.00
C508   C     0.25002   0.75000   0.59315   0.00000  Uiso   1.00
C509   C     0.25000   0.52722   0.50000   0.00000  Uiso   1.00
C510   C     0.25000   0.97252   0.50000   0.00000  Uiso   1.00
C511   C     0.24999   0.74999   0.35517   0.00000  Uiso   1.00
C512   C     0.25001   0.74999   0.64483   0.00000  Uiso   1.00
C513   C     0.04675   0.78948   0.48600   0.00000  Uiso   1.00
C514   C     0.45238   0.70704   0.48584   0.00000  Uiso   1.00
C515   C     0.45325   0.78948   0.51400   0.00000  Uiso   1.00
C516   C     0.33515   0.74997   0.49937   0.00000  Uiso   1.00
C517   C     0.04762   0.70703   0.51415   0.00000  Uiso   1.00
C518   C     0.09248   0.79207   0.48995   0.00000  Uiso   1.00
C519   C     0.40657   0.70668   0.48713   0.00000  Uiso   1.00
C520   C     0.40752   0.79207   0.51006   0.00000  Uiso   1.00
C521   C     0.09342   0.70668   0.51287   0.00000  Uiso   1.00
C522   C     0.11639   0.74963   0.50113   0.00000  Uiso   1.00
C523   C     0.38361   0.74963   0.49887   0.00000  Uiso   1.00
C524   C     0.02413   0.74788   0.49974   0.00000  Uiso   1.00
C525   C     0.47587   0.74788   0.50026   0.00000  Uiso   1.00
C526   C     0.09706   0.87237   0.51098   0.00000  Uiso   1.00
C527   C     0.25854   0.60454   0.54225   0.00000  Uiso   1.00
C528   C     0.13003   0.91323   0.51491   0.00000  Uiso   1.00
C529   C     0.38734   0.62967   0.50714   0.00000  Uiso   1.00
C530   C     0.36842   0.58308   0.48658   0.00000  Uiso   1.00
C531   C     0.40294   0.87237   0.48904   0.00000  Uiso   1.00
C532   C     0.36997   0.91323   0.48510   0.00000  Uiso   1.00
C533   C     0.11266   0.62967   0.49286   0.00000  Uiso   1.00
C534   C     0.13158   0.58308   0.51342   0.00000  Uiso   1.00
C535   C     0.22926   0.89519   0.46333   0.00000  Uiso   1.00
C536   C     0.24146   0.60454   0.45775   0.00000  Uiso   1.00
C537   C     0.27074   0.89519   0.53667   0.00000  Uiso   1.00
C538   C     0.25807   0.55391   0.54320   0.00000  Uiso   1.00
C539   C     0.22864   0.94584   0.46278   0.00000  Uiso   1.00
C540   C     0.24193   0.55391   0.45680   0.00000  Uiso   1.00
Cu541  Cu    0.25000   0.79821   0.50000   0.00000  Uiso   1.00
Cu542  Cu    0.25000   0.70178   0.50000   0.00000  Uiso   1.00
H543   H     0.26555   0.62365   0.57588   0.00000  Uiso   1.00
H544   H     0.21044   0.96344   0.43377   0.00000  Uiso   1.00
H545   H     0.23649   0.53630   0.42195   0.00000  Uiso   1.00
H546   H     0.28955   0.96344   0.56623   0.00000  Uiso   1.00
H547   H     0.09013   0.85946   0.54897   0.00000  Uiso   1.00
H548   H     0.06655   0.88734   0.49448   0.00000  Uiso   1.00
H549   H     0.13736   0.92756   0.47781   0.00000  Uiso   1.00
H550   H     0.11627   0.94281   0.53758   0.00000  Uiso   1.00
H551   H     0.16063   0.90008   0.53264   0.00000  Uiso   1.00
H552   H     0.36807   0.64021   0.54005   0.00000  Uiso   1.00
H553   H     0.42187   0.62231   0.51846   0.00000  Uiso   1.00
H554   H     0.21227   0.87553   0.43473   0.00000  Uiso   1.00
H555   H     0.38894   0.57005   0.45573   0.00000  Uiso   1.00
H556   H     0.36767   0.55503   0.51566   0.00000  Uiso   1.00
H557   H     0.33458   0.58926   0.47292   0.00000  Uiso   1.00
H558   H     0.40988   0.85947   0.45104   0.00000  Uiso   1.00
H559   H     0.43345   0.88734   0.50554   0.00000  Uiso   1.00
H560   H     0.36264   0.92756   0.52220   0.00000  Uiso   1.00
H561   H     0.38374   0.94281   0.46243   0.00000  Uiso   1.00
H562   H     0.33938   0.90008   0.46736   0.00000  Uiso   1.00
H563   H     0.13193   0.64021   0.45995   0.00000  Uiso   1.00
H564   H     0.07813   0.62231   0.48154   0.00000  Uiso   1.00
H565   H     0.23445   0.62365   0.42412   0.00000  Uiso   1.00
H566   H     0.11106   0.57005   0.54426   0.00000  Uiso   1.00
H567   H     0.13232   0.55503   0.48434   0.00000  Uiso   1.00
H568   H     0.16542   0.58926   0.52707   0.00000  Uiso   1.00
H569   H     0.28773   0.87553   0.56527   0.00000  Uiso   1.00
H570   H     0.02873   0.82049   0.47273   0.00000  Uiso   1.00
H571   H     0.46950   0.67523   0.47309   0.00000  Uiso   1.00
H572   H     0.47127   0.82048   0.52728   0.00000  Uiso   1.00
H573   H     0.03050   0.67523   0.52691   0.00000  Uiso   1.00
H574   H     0.26351   0.53630   0.57805   0.00000  Uiso   1.00
N575   N     0.25000   0.62934   0.50000   0.00000  Uiso   1.00
N576   N     0.25000   0.87065   0.50000   0.00000  Uiso   1.00
O577   O     0.18573   0.79071   0.50000   0.00000  Uiso   1.00
O578   O     0.38451   0.66603   0.47089   0.00000  Uiso   1.00
O579   O     0.38585   0.83524   0.51920   0.00000  Uiso   1.00
O580   O     0.11549   0.66603   0.52911   0.00000  Uiso   1.00
O581   O     0.31427   0.70928   0.50000   0.00000  Uiso   1.00
O582   O     0.31427   0.79071   0.50000   0.00000  Uiso   1.00
O583   O     0.18573   0.70928   0.50000   0.00000  Uiso   1.00
O584   O     0.25000   0.79071   0.42946   0.00000  Uiso   1.00
O585   O     0.25000   0.70929   0.57054   0.00000  Uiso   1.00
O586   O     0.25000   0.79071   0.57054   0.00000  Uiso   1.00
O587   O     0.25000   0.70929   0.42946   0.00000  Uiso   1.00
O588   O     0.11415   0.83524   0.48081   0.00000  Uiso   1.00
C589   C     0.66485   0.74997   0.50063   0.00000  Uiso   1.00
C590   C     0.77136   0.94584   0.53722   0.00000  Uiso   1.00
C591   C     0.74998   0.75000   0.40685   0.00000  Uiso   1.00
C592   C     0.75002   0.75000   0.59315   0.00000  Uiso   1.00
C593   C     0.75000   0.52722   0.50000   0.00000  Uiso   1.00
C594   C     0.75000   0.97252   0.50000   0.00000  Uiso   1.00
C595   C     0.74999   0.74999   0.35517   0.00000  Uiso   1.00
C596   C     0.75001   0.74999   0.64483   0.00000  Uiso   1.00
C597   C     0.54675   0.78948   0.48600   0.00000  Uiso   1.00
C598   C     0.95238   0.70704   0.48584   0.00000  Uiso   1.00
C599   C     0.95325   0.78948   0.51400   0.00000  Uiso   1.00
C600   C     0.83515   0.74997   0.49937   0.00000  Uiso   1.00
C601   C     0.54762   0.70703   0.51415   0.00000  Uiso   1.00
C602   C     0.59248   0.79207   0.48995   0.00000  Uiso   1.00
C603   C     0.90657   0.70668   0.48713   0.00000  Uiso   1.00
C604   C     0.90752   0.79207   0.51006   0.00000  Uiso   1.00
C605   C     0.59342   0.70668   0.51287   0.00000  Uiso   1.00
C606   C     0.61639   0.74963   0.50113   0.00000  Uiso   1.00
C607   C     0.88361   0.74963   0.49887   0.00000  Uiso   1.00
C608   C     0.52413   0.74788   0.49974   0.00000  Uiso   1.00
C609   C     0.97587   0.74788   0.50026   0.00000  Uiso   1.00
C610   C     0.59706   0.87237   0.51098   0.00000  Uiso   1.00
C611   C     0.75854   0.60454   0.54225   0.00000  Uiso   1.00
C612   C     0.63003   0.91323   0.51491   0.00000  Uiso   1.00
C613   C     0.88734   0.62967   0.50714   0.00000  Uiso   1.00
C614   C     0.86842   0.58308   0.48658   0.00000  Uiso   1.00
C615   C     0.90294   0.87237   0.48904   0.00000  Uiso   1.00
C616   C     0.86997   0.91323   0.48510   0.00000  Uiso   1.00
C617   C     0.61266   0.62967   0.49286   0.00000  Uiso   1.00
C618   C     0.63158   0.58308   0.51342   0.00000  Uiso   1.00
C619   C     0.72926   0.89519   0.46333   0.00000  Uiso   1.00
C620   C     0.74146   0.60454   0.45775   0.00000  Uiso   1.00
C621   C     0.77074   0.89519   0.53667   0.00000  Uiso   1.00
C622   C     0.75807   0.55391   0.54320   0.00000  Uiso   1.00
C623   C     0.72864   0.94584   0.46278   0.00000  Uiso   1.00
C624   C     0.74193   0.55391   0.45680   0.00000  Uiso   1.00
Cu625  Cu    0.75000   0.79821   0.50000   0.00000  Uiso   1.00
Cu626  Cu    0.75000   0.70178   0.50000   0.00000  Uiso   1.00
H627   H     0.76555   0.62365   0.57588   0.00000  Uiso   1.00
H628   H     0.71044   0.96344   0.43377   0.00000  Uiso   1.00
H629   H     0.73649   0.53630   0.42195   0.00000  Uiso   1.00
H630   H     0.78955   0.96344   0.56623   0.00000  Uiso   1.00
H631   H     0.59013   0.85946   0.54897   0.00000  Uiso   1.00
H632   H     0.56655   0.88734   0.49448   0.00000  Uiso   1.00
H633   H     0.63736   0.92756   0.47781   0.00000  Uiso   1.00
H634   H     0.61627   0.94281   0.53758   0.00000  Uiso   1.00
H635   H     0.66063   0.90008   0.53264   0.00000  Uiso   1.00
H636   H     0.86807   0.64021   0.54005   0.00000  Uiso   1.00
H637   H     0.92187   0.62231   0.51846   0.00000  Uiso   1.00
H638   H     0.71227   0.87553   0.43473   0.00000  Uiso   1.00
H639   H     0.88894   0.57005   0.45573   0.00000  Uiso   1.00
H640   H     0.86767   0.55503   0.51566   0.00000  Uiso   1.00
H641   H     0.83458   0.58926   0.47292   0.00000  Uiso   1.00
H642   H     0.90988   0.85947   0.45104   0.00000  Uiso   1.00
H643   H     0.93345   0.88734   0.50554   0.00000  Uiso   1.00
H644   H     0.86264   0.92756   0.52220   0.00000  Uiso   1.00
H645   H     0.88374   0.94281   0.46243   0.00000  Uiso   1.00
H646   H     0.83938   0.90008   0.46736   0.00000  Uiso   1.00
H647   H     0.63193   0.64021   0.45995   0.00000  Uiso   1.00
H648   H     0.57813   0.62231   0.48154   0.00000  Uiso   1.00
H649   H     0.73445   0.62365   0.42412   0.00000  Uiso   1.00
H650   H     0.61106   0.57005   0.54426   0.00000  Uiso   1.00
H651   H     0.63232   0.55503   0.48434   0.00000  Uiso   1.00
H652   H     0.66542   0.58926   0.52707   0.00000  Uiso   1.00
H653   H     0.78773   0.87553   0.56527   0.00000  Uiso   1.00
H654   H     0.52873   0.82049   0.47273   0.00000  Uiso   1.00
H655   H     0.96950   0.67523   0.47309   0.00000  Uiso   1.00
H656   H     0.97127   0.82048   0.52728   0.00000  Uiso   1.00
H657   H     0.53050   0.67523   0.52691   0.00000  Uiso   1.00
H658   H     0.76351   0.53630   0.57805   0.00000  Uiso   1.00
N659   N     0.75000   0.62934   0.50000   0.00000  Uiso   1.00
N660   N     0.75000   0.87065   0.50000   0.00000  Uiso   1.00
O661   O     0.68573   0.79071   0.50000   0.00000  Uiso   1.00
O662   O     0.88451   0.66603   0.47089   0.00000  Uiso   1.00
O663   O     0.88585   0.83524   0.51920   0.00000  Uiso   1.00
O664   O     0.61549   0.66603   0.52911   0.00000  Uiso   1.00
O665   O     0.81427   0.70928   0.50000   0.00000  Uiso   1.00
O666   O     0.81427   0.79071   0.50000   0.00000  Uiso   1.00
O667   O     0.68573   0.70928   0.50000   0.00000  Uiso   1.00
O668   O     0.75000   0.79071   0.42946   0.00000  Uiso   1.00
O669   O     0.75000   0.70929   0.57054   0.00000  Uiso   1.00
O670   O     0.75000   0.79071   0.57054   0.00000  Uiso   1.00
O671   O     0.75000   0.70929   0.42946   0.00000  Uiso   1.00
O672   O     0.61415   0.83524   0.48081   0.00000  Uiso   1.00
C673   C     0.16485   0.24997   0.83396   0.00000  Uiso   1.00
C674   C     0.27136   0.44584   0.87056   0.00000  Uiso   1.00
C675   C     0.24998   0.25000   0.74018   0.00000  Uiso   1.00
C676   C     0.25002   0.25000   0.92649   0.00000  Uiso   1.00
C677   C     0.25000   0.02722   0.83333   0.00000  Uiso   1.00
C678   C     0.25000   0.47252   0.83333   0.00000  Uiso   1.00
C679   C     0.24999   0.24999   0.68850   0.00000  Uiso   1.00
C680   C     0.25001   0.24999   0.97816   0.00000  Uiso   1.00
C681   C     0.04675   0.28948   0.81933   0.00000  Uiso   1.00
C682   C     0.45238   0.20704   0.81918   0.00000  Uiso   1.00
C683   C     0.45325   0.28948   0.84733   0.00000  Uiso   1.00
C684   C     0.33515   0.24997   0.83271   0.00000  Uiso   1.00
C685   C     0.04762   0.20703   0.84749   0.00000  Uiso   1.00
C686   C     0.09248   0.29207   0.82328   0.00000  Uiso   1.00
C687   C     0.40657   0.20668   0.82047   0.00000  Uiso   1.00
C688   C     0.40752   0.29207   0.84339   0.00000  Uiso   1.00
C689   C     0.09342   0.20668   0.84620   0.00000  Uiso   1.00
C690   C     0.11639   0.24963   0.83446   0.00000  Uiso   1.00
C691   C     0.38361   0.24963   0.83220   0.00000  Uiso   1.00
C692   C     0.02413   0.24788   0.83308   0.00000  Uiso   1.00
C693   C     0.47587   0.24788   0.83359   0.00000  Uiso   1.00
C694   C     0.09706   0.37237   0.84431   0.00000  Uiso   1.00
C695   C     0.25854   0.10454   0.87559   0.00000  Uiso   1.00
C696   C     0.13003   0.41323   0.84824   0.00000  Uiso   1.00
C697   C     0.38734   0.12967   0.84047   0.00000  Uiso   1.00
C698   C     0.36842   0.08308   0.81991   0.00000  Uiso   1.00
C699   C     0.40294   0.37237   0.82237   0.00000  Uiso   1.00
C700   C     0.36997   0.41323   0.81843   0.00000  Uiso   1.00
C701   C     0.11266   0.12967   0.82619   0.00000  Uiso   1.00
C702   C     0.13158   0.08308   0.84675   0.00000  Uiso   1.00
C703   C     0.22926   0.39519   0.79666   0.00000  Uiso   1.00
C704   C     0.24146   0.10454   0.79108   0.00000  Uiso   1.00
C705   C     0.27074   0.39519   0.87001   0.00000  Uiso   1.00
C706   C     0.25807   0.05391   0.87653   0.00000  Uiso   1.00
C707   C     0.22864   0.44584   0.79611   0.00000  Uiso   1.00
C708   C     0.24193   0.05391   0.79014   0.00000  Uiso   1.00
Cu709  Cu    0.25000   0.29821   0.83333   0.00000  Uiso   1.00
Cu710  Cu    0.25000   0.20178   0.83333   0.00000  Uiso   1.00
H711   H     0.26555   0.12365   0.90922   0.00000  Uiso   1.00
H712   H     0.21044   0.46344   0.76711   0.00000  Uiso   1.00
H713   H     0.23649   0.03630   0.75528   0.00000  Uiso   1.00
H714   H     0.28955   0.46344   0.89956   0.00000  Uiso   1.00
H715   H     0.09013   0.35946   0.88230   0.00000  Uiso   1.00
H716   H     0.06655   0.38734   0.82782   0.00000  Uiso   1.00
H717   H     0.13736   0.42756   0.81114   0.00000  Uiso   1.00
H718   H     0.11627   0.44281   0.87092   0.00000  Uiso   1.00
H719   H     0.16063   0.40008   0.86598   0.00000  Uiso   1.00
H720   H     0.36807   0.14021   0.87338   0.00000  Uiso   1.00
H721   H     0.42187   0.12231   0.85179   0.00000  Uiso   1.00
H722   H     0.21227   0.37553   0.76806   0.00000  Uiso   1.00
H723   H     0.38894   0.07005   0.78906   0.00000  Uiso   1.00
H724   H     0.36767   0.05503   0.84899   0.00000  Uiso   1.00
H725   H     0.33458   0.08926   0.80625   0.00000  Uiso   1.00
H726   H     0.40988   0.35947   0.78437   0.00000  Uiso   1.00
H727   H     0.43345   0.38734   0.83887   0.00000  Uiso   1.00
H728   H     0.36264   0.42756   0.85554   0.00000  Uiso   1.00
H729   H     0.38374   0.44281   0.79577   0.00000  Uiso   1.00
H730   H     0.33938   0.40008   0.80070   0.00000  Uiso   1.00
H731   H     0.13193   0.14021   0.79328   0.00000  Uiso   1.00
H732   H     0.07813   0.12231   0.81487   0.00000  Uiso   1.00
H733   H     0.23445   0.12365   0.75745   0.00000  Uiso   1.00
H734   H     0.11106   0.07005   0.87760   0.00000  Uiso   1.00
H735   H     0.13232   0.05503   0.81767   0.00000  Uiso   1.00
H736   H     0.16542   0.08926   0.86041   0.00000  Uiso   1.00
H737   H     0.28773   0.37553   0.89861   0.00000  Uiso   1.00
H738   H     0.02873   0.32049   0.80606   0.00000  Uiso   1.00
H739   H     0.46950   0.17523   0.80642   0.00000  Uiso   1.00
H740   H     0.47127   0.32048   0.86061   0.00000  Uiso   1.00
H741   H     0.03050   0.17523   0.86024   0.00000  Uiso   1.00
H742   H     0.26351   0.03630   0.91139   0.00000  Uiso   1.00
N743   N     0.25000   0.12934   0.83333   0.00000  Uiso   1.00
N744   N     0.25000   0.37065   0.83333   0.00000  Uiso   1.00
O745   O     0.18573   0.29071   0.83334   0.00000  Uiso   1.00
O746   O     0.38451   0.16603   0.80422   0.00000  Uiso   1.00
O747   O     0.38585   0.33524   0.85253   0.00000  Uiso   1.00
O748   O     0.11549   0.16603   0.86244   0.00000  Uiso   1.00
O749   O     0.31427   0.20928   0.83333   0.00000  Uiso   1.00
O750   O     0.31427   0.29071   0.83333   0.00000  Uiso   1.00
O751   O     0.18573   0.20928   0.83334   0.00000  Uiso   1.00
O752   O     0.25000   0.29071   0.76280   0.00000  Uiso   1.00
O753   O     0.25000   0.20929   0.90387   0.00000  Uiso   1.00
O754   O     0.25000   0.29071   0.90387   0.00000  Uiso   1.00
O755   O     0.25000   0.20929   0.76280   0.00000  Uiso   1.00
O756   O     0.11415   0.33524   0.81414   0.00000  Uiso   1.00
C757   C     0.66485   0.24997   0.83396   0.00000  Uiso   1.00
C758   C     0.77136   0.44584   0.87056   0.00000  Uiso   1.00
C759   C     0.74998   0.25000   0.74018   0.00000  Uiso   1.00
C760   C     0.75002   0.25000   0.92649   0.00000  Uiso   1.00
C761   C     0.75000   0.02722   0.83333   0.00000  Uiso   1.00
C762   C     0.75000   0.47252   0.83333   0.00000  Uiso   1.00
C763   C     0.74999   0.24999   0.68850   0.00000  Uiso   1.00
C764   C     0.75001   0.24999   0.97816   0.00000  Uiso   1.00
C765   C     0.54675   0.28948   0.81933   0.00000  Uiso   1.00
C766   C     0.95238   0.20704   0.81918   0.00000  Uiso   1.00
C767   C     0.95325   0.28948   0.84733   0.00000  Uiso   1.00
C768   C     0.83515   0.24997   0.83271   0.00000  Uiso   1.00
C769   C     0.54762   0.20703   0.84749   0.00000  Uiso   1.00
C770   C     0.59248   0.29207   0.82328   0.00000  Uiso   1.00
C771   C     0.90657   0.20668   0.82047   0.00000  Uiso   1.00
C772   C     0.90752   0.29207   0.84339   0.00000  Uiso   1.00
C773   C     0.59342   0.20668   0.84620   0.00000  Uiso   1.00
C774   C     0.61639   0.24963   0.83446   0.00000  Uiso   1.00
C775   C     0.88361   0.24963   0.83220   0.00000  Uiso   1.00
C776   C     0.52413   0.24788   0.83308   0.00000  Uiso   1.00
C777   C     0.97587   0.24788   0.83359   0.00000  Uiso   1.00
C778   C     0.59706   0.37237   0.84431   0.00000  Uiso   1.00
C779   C     0.75854   0.10454   0.87559   0.00000  Uiso   1.00
C780   C     0.63003   0.41323   0.84824   0.00000  Uiso   1.00
C781   C     0.88734   0.12967   0.84047   0.00000  Uiso   1.00
C782   C     0.86842   0.08308   0.81991   0.00000  Uiso   1.00
C783   C     0.90294   0.37237   0.82237   0.00000  Uiso   1.00
C784   C     0.86997   0.41323   0.81843   0.00000  Uiso   1.00
C785   C     0.61266   0.12967   0.82619   0.00000  Uiso   1.00
C786   C     0.63158   0.08308   0.84675   0.00000  Uiso   1.00
C787   C     0.72926   0.39519   0.79666   0.00000  Uiso   1.00
C788   C     0.74146   0.10454   0.79108   0.00000  Uiso   1.00
C789   C     0.77074   0.39519   0.87001   0.00000  Uiso   1.00
C790   C     0.75807   0.05391   0.87653   0.00000  Uiso   1.00
C791   C     0.72864   0.44584   0.79611   0.00000  Uiso   1.00
C792   C     0.74193   0.05391   0.79014   0.00000  Uiso   1.00
Cu793  Cu    0.75000   0.29821   0.83333   0.00000  Uiso   1.00
Cu794  Cu    0.75000   0.20178   0.83333   0.00000  Uiso   1.00
H795   H     0.76555   0.12365   0.90922   0.00000  Uiso   1.00
H796   H     0.71044   0.46344   0.76711   0.00000  Uiso   1.00
H797   H     0.73649   0.03630   0.75528   0.00000  Uiso   1.00
H798   H     0.78955   0.46344   0.89956   0.00000  Uiso   1.00
H799   H     0.59013   0.35946   0.88230   0.00000  Uiso   1.00
H800   H     0.56655   0.38734   0.82782   0.00000  Uiso   1.00
H801   H     0.63736   0.42756   0.81114   0.00000  Uiso   1.00
H802   H     0.61627   0.44281   0.87092   0.00000  Uiso   1.00
H803   H     0.66063   0.40008   0.86598   0.00000  Uiso   1.00
H804   H     0.86807   0.14021   0.87338   0.00000  Uiso   1.00
H805   H     0.92187   0.12231   0.85179   0.00000  Uiso   1.00
H806   H     0.71227   0.37553   0.76806   0.00000  Uiso   1.00
H807   H     0.88894   0.07005   0.78906   0.00000  Uiso   1.00
H808   H     0.86767   0.05503   0.84899   0.00000  Uiso   1.00
H809   H     0.83458   0.08926   0.80625   0.00000  Uiso   1.00
H810   H     0.90988   0.35947   0.78437   0.00000  Uiso   1.00
H811   H     0.93345   0.38734   0.83887   0.00000  Uiso   1.00
H812   H     0.86264   0.42756   0.85554   0.00000  Uiso   1.00
H813   H     0.88374   0.44281   0.79577   0.00000  Uiso   1.00
H814   H     0.83938   0.40008   0.80070   0.00000  Uiso   1.00
H815   H     0.63193   0.14021   0.79328   0.00000  Uiso   1.00
H816   H     0.57813   0.12231   0.81487   0.00000  Uiso   1.00
H817   H     0.73445   0.12365   0.75745   0.00000  Uiso   1.00
H818   H     0.61106   0.07005   0.87760   0.00000  Uiso   1.00
H819   H     0.63232   0.05503   0.81767   0.00000  Uiso   1.00
H820   H     0.66542   0.08926   0.86041   0.00000  Uiso   1.00
H821   H     0.78773   0.37553   0.89861   0.00000  Uiso   1.00
H822   H     0.52873   0.32049   0.80606   0.00000  Uiso   1.00
H823   H     0.96950   0.17523   0.80642   0.00000  Uiso   1.00
H824   H     0.97127   0.32048   0.86061   0.00000  Uiso   1.00
H825   H     0.53050   0.17523   0.86024   0.00000  Uiso   1.00
H826   H     0.76351   0.03630   0.91139   0.00000  Uiso   1.00
N827   N     0.75000   0.12934   0.83333   0.00000  Uiso   1.00
N828   N     0.75000   0.37065   0.83333   0.00000  Uiso   1.00
O829   O     0.68573   0.29071   0.83334   0.00000  Uiso   1.00
O830   O     0.88451   0.16603   0.80422   0.00000  Uiso   1.00
O831   O     0.88585   0.33524   0.85253   0.00000  Uiso   1.00
O832   O     0.61549   0.16603   0.86244   0.00000  Uiso   1.00
O833   O     0.81427   0.20928   0.83333   0.00000  Uiso   1.00
O834   O     0.81427   0.29071   0.83333   0.00000  Uiso   1.00
O835   O     0.68573   0.20928   0.83334   0.00000  Uiso   1.00
O836   O     0.75000   0.29071   0.76280   0.00000  Uiso   1.00
O837   O     0.75000   0.20929   0.90387   0.00000  Uiso   1.00
O838   O     0.75000   0.29071   0.90387   0.00000  Uiso   1.00
O839   O     0.75000   0.20929   0.76280   0.00000  Uiso   1.00
O840   O     0.61415   0.33524   0.81414   0.00000  Uiso   1.00
C841   C     0.16485   0.74997   0.83396   0.00000  Uiso   1.00
C842   C     0.27136   0.94584   0.87056   0.00000  Uiso   1.00
C843   C     0.24998   0.75000   0.74018   0.00000  Uiso   1.00
C844   C     0.25002   0.75000   0.92649   0.00000  Uiso   1.00
C845   C     0.25000   0.52722   0.83333   0.00000  Uiso   1.00
C846   C     0.25000   0.97252   0.83333   0.00000  Uiso   1.00
C847   C     0.24999   0.74999   0.68850   0.00000  Uiso   1.00
C848   C     0.25001   0.74999   0.97816   0.00000  Uiso   1.00
C849   C     0.04675   0.78948   0.81933   0.00000  Uiso   1.00
C850   C     0.45238   0.70704   0.81918   0.00000  Uiso   1.00
C851   C     0.45325   0.78948   0.84733   0.00000  Uiso   1.00
C852   C     0.33515   0.74997   0.83271   0.00000  Uiso   1.00
C853   C     0.04762   0.70703   0.84749   0.00000  Uiso   1.00
C854   C     0.09248   0.79207   0.82328   0.00000  Uiso   1.00
C855   C     0.40657   0.70668   0.82047   0.00000  Uiso   1.00
C856   C     0.40752   0.79207   0.84339   0.00000  Uiso   1.00
C857   C     0.09342   0.70668   0.84620   0.00000  Uiso   1.00
C858   C     0.11639   0.74963   0.83446   0.00000  Uiso   1.00
C859   C     0.38361   0.74963   0.83220   0.00000  Uiso   1.00
C860   C     0.02413   0.74788   0.83308   0.00000  Uiso   1.00
C861   C     0.47587   0.74788   0.83359   0.00000  Uiso   1.00
C862   C     0.09706   0.87237   0.84431   0.00000  Uiso   1.00
C863   C     0.25854   0.60454   0.87559   0.00000  Uiso   1.00
C864   C     0.13003   0.91323   0.84824   0.00000  Uiso   1.00
C865   C     0.38734   0.62967   0.84047   0.00000  Uiso   1.00
C866   C     0.36842   0.58308   0.81991   0.00000  Uiso   1.00
C867   C     0.40294   0.87237   0.82237   0.00000  Uiso   1.00
C868   C     0.36997   0.91323   0.81843   0.00000  Uiso   1.00
C869   C     0.11266   0.62967   0.82619   0.00000  Uiso   1.00
C870   C     0.13158   0.58308   0.84675   0.00000  Uiso   1.00
C871   C     0.22926   0.89519   0.79666   0.00000  Uiso   1.00
C872   C     0.24146   0.60454   0.79108   0.00000  Uiso   1.00
C873   C     0.27074   0.89519   0.87001   0.00000  Uiso   1.00
C874   C     0.25807   0.55391   0.87653   0.00000  Uiso   1.00
C875   C     0.22864   0.94584   0.79611   0.00000  Uiso   1.00
C876   C     0.24193   0.55391   0.79014   0.00000  Uiso   1.00
Cu877  Cu    0.25000   0.79821   0.83333   0.00000  Uiso   1.00
Cu878  Cu    0.25000   0.70178   0.83333   0.00000  Uiso   1.00
H879   H     0.26555   0.62365   0.90922   0.00000  Uiso   1.00
H880   H     0.21044   0.96344   0.76711   0.00000  Uiso   1.00
H881   H     0.23649   0.53630   0.75528   0.00000  Uiso   1.00
H882   H     0.28955   0.96344   0.89956   0.00000  Uiso   1.00
H883   H     0.09013   0.85946   0.88230   0.00000  Uiso   1.00
H884   H     0.06655   0.88734   0.82782   0.00000  Uiso   1.00
H885   H     0.13736   0.92756   0.81114   0.00000  Uiso   1.00
H886   H     0.11627   0.94281   0.87092   0.00000  Uiso   1.00
H887   H     0.16063   0.90008   0.86598   0.00000  Uiso   1.00
H888   H     0.36807   0.64021   0.87338   0.00000  Uiso   1.00
H889   H     0.42187   0.62231   0.85179   0.00000  Uiso   1.00
H890   H     0.21227   0.87553   0.76806   0.00000  Uiso   1.00
H891   H     0.38894   0.57005   0.78906   0.00000  Uiso   1.00
H892   H     0.36767   0.55503   0.84899   0.00000  Uiso   1.00
H893   H     0.33458   0.58926   0.80625   0.00000  Uiso   1.00
H894   H     0.40988   0.85947   0.78437   0.00000  Uiso   1.00
H895   H     0.43345   0.88734   0.83887   0.00000  Uiso   1.00
H896   H     0.36264   0.92756   0.85554   0.00000  Uiso   1.00
H897   H     0.38374   0.94281   0.79577   0.00000  Uiso   1.00
H898   H     0.33938   0.90008   0.80070   0.00000  Uiso   1.00
H899   H     0.13193   0.64021   0.79328   0.00000  Uiso   1.00
H900   H     0.07813   0.62231   0.81487   0.00000  Uiso   1.00
H901   H     0.23445   0.62365   0.75745   0.00000  Uiso   1.00
H902   H     0.11106   0.57005   0.87760   0.00000  Uiso   1.00
H903   H     0.13232   0.55503   0.81767   0.00000  Uiso   1.00
H904   H     0.16542   0.58926   0.86041   0.00000  Uiso   1.00
H905   H     0.28773   0.87553   0.89861   0.00000  Uiso   1.00
H906   H     0.02873   0.82049   0.80606   0.00000  Uiso   1.00
H907   H     0.46950   0.67523   0.80642   0.00000  Uiso   1.00
H908   H     0.47127   0.82048   0.86061   0.00000  Uiso   1.00
H909   H     0.03050   0.67523   0.86024   0.00000  Uiso   1.00
H910   H     0.26351   0.53630   0.91139   0.00000  Uiso   1.00
N911   N     0.25000   0.62934   0.83333   0.00000  Uiso   1.00
N912   N     0.25000   0.87065   0.83333   0.00000  Uiso   1.00
O913   O     0.18573   0.79071   0.83334   0.00000  Uiso   1.00
O914   O     0.38451   0.66603   0.80422   0.00000  Uiso   1.00
O915   O     0.38585   0.83524   0.85253   0.00000  Uiso   1.00
O916   O     0.11549   0.66603   0.86244   0.00000  Uiso   1.00
O917   O     0.31427   0.70928   0.83333   0.00000  Uiso   1.00
O918   O     0.31427   0.79071   0.83333   0.00000  Uiso   1.00
O919   O     0.18573   0.70928   0.83334   0.00000  Uiso   1.00
O920   O     0.25000   0.79071   0.76280   0.00000  Uiso   1.00
O921   O     0.25000   0.70929   0.90387   0.00000  Uiso   1.00
O922   O     0.25000   0.79071   0.90387   0.00000  Uiso   1.00
O923   O     0.25000   0.70929   0.76280   0.00000  Uiso   1.00
O924   O     0.11415   0.83524   0.81414   0.00000  Uiso   1.00
C925   C     0.66485   0.74997   0.83396   0.00000  Uiso   1.00
C926   C     0.77136   0.94584   0.87056   0.00000  Uiso   1.00
C927   C     0.74998   0.75000   0.74018   0.00000  Uiso   1.00
C928   C     0.75002   0.75000   0.92649   0.00000  Uiso   1.00
C929   C     0.75000   0.52722   0.83333   0.00000  Uiso   1.00
C930   C     0.75000   0.97252   0.83333   0.00000  Uiso   1.00
C931   C     0.74999   0.74999   0.68850   0.00000  Uiso   1.00
C932   C     0.75001   0.74999   0.97816   0.00000  Uiso   1.00
C933   C     0.54675   0.78948   0.81933   0.00000  Uiso   1.00
C934   C     0.95238   0.70704   0.81918   0.00000  Uiso   1.00
C935   C     0.95325   0.78948   0.84733   0.00000  Uiso   1.00
C936   C     0.83515   0.74997   0.83271   0.00000  Uiso   1.00
C937   C     0.54762   0.70703   0.84749   0.00000  Uiso   1.00
C938   C     0.59248   0.79207   0.82328   0.00000  Uiso   1.00
C939   C     0.90657   0.70668   0.82047   0.00000  Uiso   1.00
C940   C     0.90752   0.79207   0.84339   0.00000  Uiso   1.00
C941   C     0.59342   0.70668   0.84620   0.00000  Uiso   1.00
C942   C     0.61639   0.74963   0.83446   0.00000  Uiso   1.00
C943   C     0.88361   0.74963   0.83220   0.00000  Uiso   1.00
C944   C     0.52413   0.74788   0.83308   0.00000  Uiso   1.00
C945   C     0.97587   0.74788   0.83359   0.00000  Uiso   1.00
C946   C     0.59706   0.87237   0.84431   0.00000  Uiso   1.00
C947   C     0.75854   0.60454   0.87559   0.00000  Uiso   1.00
C948   C     0.63003   0.91323   0.84824   0.00000  Uiso   1.00
C949   C     0.88734   0.62967   0.84047   0.00000  Uiso   1.00
C950   C     0.86842   0.58308   0.81991   0.00000  Uiso   1.00
C951   C     0.90294   0.87237   0.82237   0.00000  Uiso   1.00
C952   C     0.86997   0.91323   0.81843   0.00000  Uiso   1.00
C953   C     0.61266   0.62967   0.82619   0.00000  Uiso   1.00
C954   C     0.63158   0.58308   0.84675   0.00000  Uiso   1.00
C955   C     0.72926   0.89519   0.79666   0.00000  Uiso   1.00
C956   C     0.74146   0.60454   0.79108   0.00000  Uiso   1.00
C957   C     0.77074   0.89519   0.87001   0.00000  Uiso   1.00
C958   C     0.75807   0.55391   0.87653   0.00000  Uiso   1.00
C959   C     0.72864   0.94584   0.79611   0.00000  Uiso   1.00
C960   C     0.74193   0.55391   0.79014   0.00000  Uiso   1.00
Cu961  Cu    0.75000   0.79821   0.83333   0.00000  Uiso   1.00
Cu962  Cu    0.75000   0.70178   0.83333   0.00000  Uiso   1.00
H963   H     0.76555   0.62365   0.90922   0.00000  Uiso   1.00
H964   H     0.71044   0.96344   0.76711   0.00000  Uiso   1.00
H965   H     0.73649   0.53630   0.75528   0.00000  Uiso   1.00
H966   H     0.78955   0.96344   0.89956   0.00000  Uiso   1.00
H967   H     0.59013   0.85946   0.88230   0.00000  Uiso   1.00
H968   H     0.56655   0.88734   0.82782   0.00000  Uiso   1.00
H969   H     0.63736   0.92756   0.81114   0.00000  Uiso   1.00
H970   H     0.61627   0.94281   0.87092   0.00000  Uiso   1.00
H971   H     0.66063   0.90008   0.86598   0.00000  Uiso   1.00
H972   H     0.86807   0.64021   0.87338   0.00000  Uiso   1.00
H973   H     0.92187   0.62231   0.85179   0.00000  Uiso   1.00
H974   H     0.71227   0.87553   0.76806   0.00000  Uiso   1.00
H975   H     0.88894   0.57005   0.78906   0.00000  Uiso   1.00
H976   H     0.86767   0.55503   0.84899   0.00000  Uiso   1.00
H977   H     0.83458   0.58926   0.80625   0.00000  Uiso   1.00
H978   H     0.90988   0.85947   0.78437   0.00000  Uiso   1.00
H979   H     0.93345   0.88734   0.83887   0.00000  Uiso   1.00
H980   H     0.86264   0.92756   0.85554   0.00000  Uiso   1.00
H981   H     0.88374   0.94281   0.79577   0.00000  Uiso   1.00
H982   H     0.83938   0.90008   0.80070   0.00000  Uiso   1.00
H983   H     0.63193   0.64021   0.79328   0.00000  Uiso   1.00
H984   H     0.57813   0.62231   0.81487   0.00000  Uiso   1.00
H985   H     0.73445   0.62365   0.75745   0.00000  Uiso   1.00
H986   H     0.61106   0.57005   0.87760   0.00000  Uiso   1.00
H987   H     0.63232   0.55503   0.81767   0.00000  Uiso   1.00
H988   H     0.66542   0.58926   0.86041   0.00000  Uiso   1.00
H989   H     0.78773   0.87553   0.89861   0.00000  Uiso   1.00
H990   H     0.52873   0.82049   0.80606   0.00000  Uiso   1.00
H991   H     0.96950   0.67523   0.80642   0.00000  Uiso   1.00
H992   H     0.97127   0.82048   0.86061   0.00000  Uiso   1.00
H993   H     0.53050   0.67523   0.86024   0.00000  Uiso   1.00
H994   H     0.76351   0.53630   0.91139   0.00000  Uiso   1.00
N995   N     0.75000   0.62934   0.83333   0.00000  Uiso   1.00
N996   N     0.75000   0.87065   0.83333   0.00000  Uiso   1.00
O997   O     0.68573   0.79071   0.83334   0.00000  Uiso   1.00
O998   O     0.88451   0.66603   0.80422   0.00000  Uiso   1.00
O999   O     0.88585   0.83524   0.85253   0.00000  Uiso   1.00
O1000  O     0.61549   0.66603   0.86244   0.00000  Uiso   1.00
O1001  O     0.81427   0.70928   0.83333   0.00000  Uiso   1.00
O1002  O     0.81427   0.79071   0.83333   0.00000  Uiso   1.00
O1003  O     0.68573   0.70928   0.83334   0.00000  Uiso   1.00
O1004  O     0.75000   0.79071   0.76280   0.00000  Uiso   1.00
O1005  O     0.75000   0.70929   0.90387   0.00000  Uiso   1.00
O1006  O     0.75000   0.79071   0.90387   0.00000  Uiso   1.00
O1007  O     0.75000   0.70929   0.76280   0.00000  Uiso   1.00
O1008  O     0.61415   0.83524   0.81414   0.00000  Uiso   1.00
loop_
_geom_bond_atom_site_label_1
_geom_bond_atom_site_label_2
_geom_bond_distance
_geom_bond_site_symmetry_2
_ccdc_geom_bond_type
C1     C18     1.477   .     S
C1     O79     1.296   .     A
C1     O73     1.297   .     A
C2     C6      1.412   .     A
C2     C33     1.405   .     A
C2     H42     1.080   .     S
C3     C7      1.408   .     S
C3     O80     1.286   .     A
C3     O83     1.286   .     A
C4     C8      1.408   .     S
C4     O81     1.286   .     A
C4     O82     1.286   .     A
C5     C36     1.411   .     A
C5     C34     1.411   .     A
C5     C174    1.517   1_545 S
C6     C35     1.412   .     A
C6     C173    1.517   .     S
C7     C680    1.190   1_554 S
C8     C343    1.190   .     S
C9     H66     1.082   .     S
C9     C14     1.400   .     A
C9     C20     1.397   .     A
C10    H67     1.083   .     S
C10    C15     1.397   .     A
C10    C21     1.396   .     A
C11    C21     1.397   .     A
C11    C16     1.400   .     A
C11    H68     1.082   .     S
C12    O78     1.297   .     A
C12    O77     1.296   .     A
C12    C19     1.477   .     S
C13    C20     1.396   .     A
C13    C17     1.397   .     A
C13    H69     1.083   .     S
C14    C18     1.417   .     A
C14    O84     1.391   .     S
C15    C19     1.419   .     A
C15    O74     1.385   .     S
C16    O75     1.391   .     S
C16    C19     1.417   .     A
C17    O76     1.385   .     S
C17    C18     1.419   .     A
C20    C105    1.471   1_455 S
C21    C104    1.471   .     S
C22    H44     1.111   .     S
C22    O84     1.418   .     S
C22    H43     1.117   .     S
C22    C24     1.518   .     S
C23    N71     1.365   .     A
C23    C34     1.405   .     A
C23    H39     1.079   .     S
C24    H45     1.110   .     S
C24    H47     1.110   .     S
C24    H46     1.111   .     S
C25    O74     1.414   .     S
C25    C26     1.521   .     S
C25    H48     1.114   .     S
C25    H49     1.114   .     S
C26    H52     1.111   .     S
C26    H53     1.108   .     S
C26    H51     1.111   .     S
C27    H54     1.117   .     S
C27    H55     1.111   .     S
C27    O75     1.418   .     S
C27    C28     1.518   .     S
C28    H56     1.110   .     S
C28    H57     1.111   .     S
C28    H58     1.110   .     S
C29    O76     1.414   .     S
C29    C30     1.521   .     S
C29    H59     1.114   .     S
C29    H60     1.114   .     S
C30    H64     1.108   .     S
C30    H63     1.111   .     S
C30    H62     1.111   .     S
C31    N72     1.362   .     A
C31    H50     1.081   .     S
C31    C35     1.405   .     A
C32    C36     1.405   .     A
C32    H61     1.079   .     S
C32    N71     1.365   .     A
C33    H65     1.081   .     S
C33    N72     1.362   .     A
C34    H70     1.080   .     S
C35    H40     1.080   .     S
C36    H41     1.080   .     S
Cu37   O80     1.933   .     S
Cu37   Cu38    2.675   .     S
Cu37   O82     1.933   .     S
Cu37   O73     1.970   .     S
Cu37   O78     1.970   .     S
Cu37   N72     2.010   .     S
Cu38   O83     1.933   .     S
Cu38   O79     1.970   .     S
Cu38   O81     1.933   .     S
Cu38   N71     2.010   .     S
Cu38   O77     1.970   .     S
C85    C102    1.477   .     S
C85    O163    1.296   .     A
C85    O157    1.297   .     A
C86    C90     1.412   .     A
C86    C117    1.405   .     A
C86    H126    1.080   .     S
C87    C91     1.408   .     S
C87    O164    1.286   .     A
C87    O167    1.286   .     A
C88    C92     1.408   .     S
C88    O165    1.286   .     A
C88    O166    1.286   .     A
C89    C120    1.411   .     A
C89    C118    1.411   .     A
C89    C258    1.517   1_545 S
C90    C119    1.412   .     A
C90    C257    1.517   .     S
C91    C764    1.190   1_554 S
C92    C427    1.190   .     S
C93    H150    1.082   .     S
C93    C98     1.400   .     A
C93    C104    1.397   .     A
C94    H151    1.083   .     S
C94    C99     1.397   .     A
C94    C105    1.396   .     A
C95    C105    1.397   .     A
C95    C100    1.400   .     A
C95    H152    1.082   .     S
C96    O162    1.297   .     A
C96    O161    1.296   .     A
C96    C103    1.477   .     S
C97    C104    1.396   .     A
C97    C101    1.397   .     A
C97    H153    1.083   .     S
C98    C102    1.417   .     A
C98    O168    1.391   .     S
C99    C103    1.419   .     A
C99    O158    1.385   .     S
C100   O159    1.391   .     S
C100   C103    1.417   .     A
C101   O160    1.385   .     S
C101   C102    1.419   .     A
C105   C20     1.471   1_655 S
C106   H128    1.111   .     S
C106   O168    1.418   .     S
C106   H127    1.117   .     S
C106   C108    1.518   .     S
C107   N155    1.365   .     A
C107   C118    1.405   .     A
C107   H123    1.079   .     S
C108   H129    1.110   .     S
C108   H131    1.110   .     S
C108   H130    1.111   .     S
C109   O158    1.414   .     S
C109   C110    1.521   .     S
C109   H132    1.114   .     S
C109   H133    1.114   .     S
C110   H136    1.111   .     S
C110   H137    1.108   .     S
C110   H135    1.111   .     S
C111   H138    1.117   .     S
C111   H139    1.111   .     S
C111   O159    1.418   .     S
C111   C112    1.518   .     S
C112   H140    1.110   .     S
C112   H141    1.111   .     S
C112   H142    1.110   .     S
C113   O160    1.414   .     S
C113   C114    1.521   .     S
C113   H143    1.114   .     S
C113   H144    1.114   .     S
C114   H148    1.108   .     S
C114   H147    1.111   .     S
C114   H146    1.111   .     S
C115   N156    1.362   .     A
C115   H134    1.081   .     S
C115   C119    1.405   .     A
C116   C120    1.405   .     A
C116   H145    1.079   .     S
C116   N155    1.365   .     A
C117   H149    1.081   .     S
C117   N156    1.362   .     A
C118   H154    1.080   .     S
C119   H124    1.080   .     S
C120   H125    1.080   .     S
Cu121  O164    1.933   .     S
Cu121  Cu122   2.675   .     S
Cu121  O166    1.933   .     S
Cu121  O157    1.970   .     S
Cu121  O162    1.970   .     S
Cu121  N156    2.010   .     S
Cu122  O167    1.933   .     S
Cu122  O163    1.970   .     S
Cu122  O165    1.933   .     S
Cu122  N155    2.010   .     S
Cu122  O161    1.970   .     S
C169   C186    1.477   .     S
C169   O247    1.296   .     A
C169   O241    1.297   .     A
C170   C174    1.412   .     A
C170   C201    1.405   .     A
C170   H210    1.080   .     S
C171   C175    1.408   .     S
C171   O248    1.286   .     A
C171   O251    1.286   .     A
C172   C176    1.408   .     S
C172   O249    1.286   .     A
C172   O250    1.286   .     A
C173   C204    1.411   .     A
C173   C202    1.411   .     A
C174   C203    1.412   .     A
C174   C5      1.517   1_565 S
C175   C848    1.190   1_554 S
C176   C511    1.190   .     S
C177   H234    1.082   .     S
C177   C182    1.400   .     A
C177   C188    1.397   .     A
C178   H235    1.083   .     S
C178   C183    1.397   .     A
C178   C189    1.396   .     A
C179   C189    1.397   .     A
C179   C184    1.400   .     A
C179   H236    1.082   .     S
C180   O246    1.297   .     A
C180   O245    1.296   .     A
C180   C187    1.477   .     S
C181   C188    1.396   .     A
C181   C185    1.397   .     A
C181   H237    1.083   .     S
C182   C186    1.417   .     A
C182   O252    1.391   .     S
C183   C187    1.419   .     A
C183   O242    1.385   .     S
C184   O243    1.391   .     S
C184   C187    1.417   .     A
C185   O244    1.385   .     S
C185   C186    1.419   .     A
C188   C273    1.471   1_455 S
C189   C272    1.471   .     S
C190   H212    1.111   .     S
C190   O252    1.418   .     S
C190   H211    1.117   .     S
C190   C192    1.518   .     S
C191   N239    1.365   .     A
C191   C202    1.405   .     A
C191   H207    1.079   .     S
C192   H213    1.110   .     S
C192   H215    1.110   .     S
C192   H214    1.111   .     S
C193   O242    1.414   .     S
C193   C194    1.521   .     S
C193   H216    1.114   .     S
C193   H217    1.114   .     S
C194   H220    1.111   .     S
C194   H221    1.108   .     S
C194   H219    1.111   .     S
C195   H222    1.117   .     S
C195   H223    1.111   .     S
C195   O243    1.418   .     S
C195   C196    1.518   .     S
C196   H224    1.110   .     S
C196   H225    1.111   .     S
C196   H226    1.110   .     S
C197   O244    1.414   .     S
C197   C198    1.521   .     S
C197   H227    1.114   .     S
C197   H228    1.114   .     S
C198   H232    1.108   .     S
C198   H231    1.111   .     S
C198   H230    1.111   .     S
C199   N240    1.362   .     A
C199   H218    1.081   .     S
C199   C203    1.405   .     A
C200   C204    1.405   .     A
C200   H229    1.079   .     S
C200   N239    1.365   .     A
C201   H233    1.081   .     S
C201   N240    1.362   .     A
C202   H238    1.080   .     S
C203   H208    1.080   .     S
C204   H209    1.080   .     S
Cu205  O248    1.933   .     S
Cu205  Cu206   2.675   .     S
Cu205  O250    1.933   .     S
Cu205  O241    1.970   .     S
Cu205  O246    1.970   .     S
Cu205  N240    2.010   .     S
Cu206  O251    1.933   .     S
Cu206  O247    1.970   .     S
Cu206  O249    1.933   .     S
Cu206  N239    2.010   .     S
Cu206  O245    1.970   .     S
C253   C270    1.477   .     S
C253   O331    1.296   .     A
C253   O325    1.297   .     A
C254   C258    1.412   .     A
C254   C285    1.405   .     A
C254   H294    1.080   .     S
C255   C259    1.408   .     S
C255   O332    1.286   .     A
C255   O335    1.286   .     A
C256   C260    1.408   .     S
C256   O333    1.286   .     A
C256   O334    1.286   .     A
C257   C288    1.411   .     A
C257   C286    1.411   .     A
C258   C287    1.412   .     A
C258   C89     1.517   1_565 S
C259   C932    1.190   1_554 S
C260   C595    1.190   .     S
C261   H318    1.082   .     S
C261   C266    1.400   .     A
C261   C272    1.397   .     A
C262   H319    1.083   .     S
C262   C267    1.397   .     A
C262   C273    1.396   .     A
C263   C273    1.397   .     A
C263   C268    1.400   .     A
C263   H320    1.082   .     S
C264   O330    1.297   .     A
C264   O329    1.296   .     A
C264   C271    1.477   .     S
C265   C272    1.396   .     A
C265   C269    1.397   .     A
C265   H321    1.083   .     S
C266   C270    1.417   .     A
C266   O336    1.391   .     S
C267   C271    1.419   .     A
C267   O326    1.385   .     S
C268   O327    1.391   .     S
C268   C271    1.417   .     A
C269   O328    1.385   .     S
C269   C270    1.419   .     A
C273   C188    1.471   1_655 S
C274   H296    1.111   .     S
C274   O336    1.418   .     S
C274   H295    1.117   .     S
C274   C276    1.518   .     S
C275   N323    1.365   .     A
C275   C286    1.405   .     A
C275   H291    1.079   .     S
C276   H297    1.110   .     S
C276   H299    1.110   .     S
C276   H298    1.111   .     S
C277   O326    1.414   .     S
C277   C278    1.521   .     S
C277   H300    1.114   .     S
C277   H301    1.114   .     S
C278   H304    1.111   .     S
C278   H305    1.108   .     S
C278   H303    1.111   .     S
C279   H306    1.117   .     S
C279   H307    1.111   .     S
C279   O327    1.418   .     S
C279   C280    1.518   .     S
C280   H308    1.110   .     S
C280   H309    1.111   .     S
C280   H310    1.110   .     S
C281   O328    1.414   .     S
C281   C282    1.521   .     S
C281   H311    1.114   .     S
C281   H312    1.114   .     S
C282   H316    1.108   .     S
C282   H315    1.111   .     S
C282   H314    1.111   .     S
C283   N324    1.362   .     A
C283   H302    1.081   .     S
C283   C287    1.405   .     A
C284   C288    1.405   .     A
C284   H313    1.079   .     S
C284   N323    1.365   .     A
C285   H317    1.081   .     S
C285   N324    1.362   .     A
C286   H322    1.080   .     S
C287   H292    1.080   .     S
C288   H293    1.080   .     S
Cu289  O332    1.933   .     S
Cu289  Cu290   2.675   .     S
Cu289  O334    1.933   .     S
Cu289  O325    1.970   .     S
Cu289  O330    1.970   .     S
Cu289  N324    2.010   .     S
Cu290  O335    1.933   .     S
Cu290  O331    1.970   .     S
Cu290  O333    1.933   .     S
Cu290  N323    2.010   .     S
Cu290  O329    1.970   .     S
C337   C354    1.477   .     S
C337   O415    1.296   .     A
C337   O409    1.297   .     A
C338   C342    1.412   .     A
C338   C369    1.405   .     A
C338   H378    1.080   .     S
C339   C343    1.408   .     S
C339   O416    1.286   .     A
C339   O419    1.286   .     A
C340   C344    1.408   .     S
C340   O417    1.286   .     A
C340   O418    1.286   .     A
C341   C372    1.411   .     A
C341   C370    1.411   .     A
C341   C510    1.517   1_545 S
C342   C371    1.412   .     A
C342   C509    1.517   .     S
C344   C679    1.190   .     S
C345   H402    1.082   .     S
C345   C350    1.400   .     A
C345   C356    1.397   .     A
C346   H403    1.083   .     S
C346   C351    1.397   .     A
C346   C357    1.396   .     A
C347   C357    1.397   .     A
C347   C352    1.400   .     A
C347   H404    1.082   .     S
C348   O414    1.297   .     A
C348   O413    1.296   .     A
C348   C355    1.477   .     S
C349   C356    1.396   .     A
C349   C353    1.397   .     A
C349   H405    1.083   .     S
C350   C354    1.417   .     A
C350   O420    1.391   .     S
C351   C355    1.419   .     A
C351   O410    1.385   .     S
C352   O411    1.391   .     S
C352   C355    1.417   .     A
C353   O412    1.385   .     S
C353   C354    1.419   .     A
C356   C441    1.471   1_455 S
C357   C440    1.471   .     S
C358   H380    1.111   .     S
C358   O420    1.418   .     S
C358   H379    1.117   .     S
C358   C360    1.518   .     S
C359   N407    1.365   .     A
C359   C370    1.405   .     A
C359   H375    1.079   .     S
C360   H381    1.110   .     S
C360   H383    1.110   .     S
C360   H382    1.111   .     S
C361   O410    1.414   .     S
C361   C362    1.521   .     S
C361   H384    1.114   .     S
C361   H385    1.114   .     S
C362   H388    1.111   .     S
C362   H389    1.108   .     S
C362   H387    1.111   .     S
C363   H390    1.117   .     S
C363   H391    1.111   .     S
C363   O411    1.418   .     S
C363   C364    1.518   .     S
C364   H392    1.110   .     S
C364   H393    1.111   .     S
C364   H394    1.110   .     S
C365   O412    1.414   .     S
C365   C366    1.521   .     S
C365   H395    1.114   .     S
C365   H396    1.114   .     S
C366   H400    1.108   .     S
C366   H399    1.111   .     S
C366   H398    1.111   .     S
C367   N408    1.362   .     A
C367   H386    1.081   .     S
C367   C371    1.405   .     A
C368   C372    1.405   .     A
C368   H397    1.079   .     S
C368   N407    1.365   .     A
C369   H401    1.081   .     S
C369   N408    1.362   .     A
C370   H406    1.080   .     S
C371   H376    1.080   .     S
C372   H377    1.080   .     S
Cu373  O416    1.933   .     S
Cu373  Cu374   2.675   .     S
Cu373  O418    1.933   .     S
Cu373  O409    1.970   .     S
Cu373  O414    1.970   .     S
Cu373  N408    2.010   .     S
Cu374  O419    1.933   .     S
Cu374  O415    1.970   .     S
Cu374  O417    1.933   .     S
Cu374  N407    2.010   .     S
Cu374  O413    1.970   .     S
C421   C438    1.477   .     S
C421   O499    1.296   .     A
C421   O493    1.297   .     A
C422   C426    1.412   .     A
C422   C453    1.405   .     A
C422   H462    1.080   .     S
C423   C427    1.408   .     S
C423   O500    1.286   .     A
C423   O503    1.286   .     A
C424   C428    1.408   .     S
C424   O501    1.286   .     A
C424   O502    1.286   .     A
C425   C456    1.411   .     A
C425   C454    1.411   .     A
C425   C594    1.517   1_545 S
C426   C455    1.412   .     A
C426   C593    1.517   .     S
C428   C763    1.190   .     S
C429   H486    1.082   .     S
C429   C434    1.400   .     A
C429   C440    1.397   .     A
C430   H487    1.083   .     S
C430   C435    1.397   .     A
C430   C441    1.396   .     A
C431   C441    1.397   .     A
C431   C436    1.400   .     A
C431   H488    1.082   .     S
C432   O498    1.297   .     A
C432   O497    1.296   .     A
C432   C439    1.477   .     S
C433   C440    1.396   .     A
C433   C437    1.397   .     A
C433   H489    1.083   .     S
C434   C438    1.417   .     A
C434   O504    1.391   .     S
C435   C439    1.419   .     A
C435   O494    1.385   .     S
C436   O495    1.391   .     S
C436   C439    1.417   .     A
C437   O496    1.385   .     S
C437   C438    1.419   .     A
C441   C356    1.471   1_655 S
C442   H464    1.111   .     S
C442   O504    1.418   .     S
C442   H463    1.117   .     S
C442   C444    1.518   .     S
C443   N491    1.365   .     A
C443   C454    1.405   .     A
C443   H459    1.079   .     S
C444   H465    1.110   .     S
C444   H467    1.110   .     S
C444   H466    1.111   .     S
C445   O494    1.414   .     S
C445   C446    1.521   .     S
C445   H468    1.114   .     S
C445   H469    1.114   .     S
C446   H472    1.111   .     S
C446   H473    1.108   .     S
C446   H471    1.111   .     S
C447   H474    1.117   .     S
C447   H475    1.111   .     S
C447   O495    1.418   .     S
C447   C448    1.518   .     S
C448   H476    1.110   .     S
C448   H477    1.111   .     S
C448   H478    1.110   .     S
C449   O496    1.414   .     S
C449   C450    1.521   .     S
C449   H479    1.114   .     S
C449   H480    1.114   .     S
C450   H484    1.108   .     S
C450   H483    1.111   .     S
C450   H482    1.111   .     S
C451   N492    1.362   .     A
C451   H470    1.081   .     S
C451   C455    1.405   .     A
C452   C456    1.405   .     A
C452   H481    1.079   .     S
C452   N491    1.365   .     A
C453   H485    1.081   .     S
C453   N492    1.362   .     A
C454   H490    1.080   .     S
C455   H460    1.080   .     S
C456   H461    1.080   .     S
Cu457  O500    1.933   .     S
Cu457  Cu458   2.675   .     S
Cu457  O502    1.933   .     S
Cu457  O493    1.970   .     S
Cu457  O498    1.970   .     S
Cu457  N492    2.010   .     S
Cu458  O503    1.933   .     S
Cu458  O499    1.970   .     S
Cu458  O501    1.933   .     S
Cu458  N491    2.010   .     S
Cu458  O497    1.970   .     S
C505   C522    1.477   .     S
C505   O583    1.296   .     A
C505   O577    1.297   .     A
C506   C510    1.412   .     A
C506   C537    1.405   .     A
C506   H546    1.080   .     S
C507   C511    1.408   .     S
C507   O584    1.286   .     A
C507   O587    1.286   .     A
C508   C512    1.408   .     S
C508   O585    1.286   .     A
C508   O586    1.286   .     A
C509   C540    1.411   .     A
C509   C538    1.411   .     A
C510   C539    1.412   .     A
C510   C341    1.517   1_565 S
C512   C847    1.190   .     S
C513   H570    1.082   .     S
C513   C518    1.400   .     A
C513   C524    1.397   .     A
C514   H571    1.083   .     S
C514   C519    1.397   .     A
C514   C525    1.396   .     A
C515   C525    1.397   .     A
C515   C520    1.400   .     A
C515   H572    1.082   .     S
C516   O582    1.297   .     A
C516   O581    1.296   .     A
C516   C523    1.477   .     S
C517   C524    1.396   .     A
C517   C521    1.397   .     A
C517   H573    1.083   .     S
C518   C522    1.417   .     A
C518   O588    1.391   .     S
C519   C523    1.419   .     A
C519   O578    1.385   .     S
C520   O579    1.391   .     S
C520   C523    1.417   .     A
C521   O580    1.385   .     S
C521   C522    1.419   .     A
C524   C609    1.471   1_455 S
C525   C608    1.471   .     S
C526   H548    1.111   .     S
C526   O588    1.418   .     S
C526   H547    1.117   .     S
C526   C528    1.518   .     S
C527   N575    1.365   .     A
C527   C538    1.405   .     A
C527   H543    1.079   .     S
C528   H549    1.110   .     S
C528   H551    1.110   .     S
C528   H550    1.111   .     S
C529   O578    1.414   .     S
C529   C530    1.521   .     S
C529   H552    1.114   .     S
C529   H553    1.114   .     S
C530   H556    1.111   .     S
C530   H557    1.108   .     S
C530   H555    1.111   .     S
C531   H558    1.117   .     S
C531   H559    1.111   .     S
C531   O579    1.418   .     S
C531   C532    1.518   .     S
C532   H560    1.110   .     S
C532   H561    1.111   .     S
C532   H562    1.110   .     S
C533   O580    1.414   .     S
C533   C534    1.521   .     S
C533   H563    1.114   .     S
C533   H564    1.114   .     S
C534   H568    1.108   .     S
C534   H567    1.111   .     S
C534   H566    1.111   .     S
C535   N576    1.362   .     A
C535   H554    1.081   .     S
C535   C539    1.405   .     A
C536   C540    1.405   .     A
C536   H565    1.079   .     S
C536   N575    1.365   .     A
C537   H569    1.081   .     S
C537   N576    1.362   .     A
C538   H574    1.080   .     S
C539   H544    1.080   .     S
C540   H545    1.080   .     S
Cu541  O584    1.933   .     S
Cu541  Cu542   2.675   .     S
Cu541  O586    1.933   .     S
Cu541  O577    1.970   .     S
Cu541  O582    1.970   .     S
Cu541  N576    2.010   .     S
Cu542  O587    1.933   .     S
Cu542  O583    1.970   .     S
Cu542  O585    1.933   .     S
Cu542  N575    2.010   .     S
Cu542  O581    1.970   .     S
C589   C606    1.477   .     S
C589   O667    1.296   .     A
C589   O661    1.297   .     A
C590   C594    1.412   .     A
C590   C621    1.405   .     A
C590   H630    1.080   .     S
C591   C595    1.408   .     S
C591   O668    1.286   .     A
C591   O671    1.286   .     A
C592   C596    1.408   .     S
C592   O669    1.286   .     A
C592   O670    1.286   .     A
C593   C624    1.411   .     A
C593   C622    1.411   .     A
C594   C623    1.412   .     A
C594   C425    1.517   1_565 S
C596   C931    1.190   .     S
C597   H654    1.082   .     S
C597   C602    1.400   .     A
C597   C608    1.397   .     A
C598   H655    1.083   .     S
C598   C603    1.397   .     A
C598   C609    1.396   .     A
C599   C609    1.397   .     A
C599   C604    1.400   .     A
C599   H656    1.082   .     S
C600   O666    1.297   .     A
C600   O665    1.296   .     A
C600   C607    1.477   .     S
C601   C608    1.396   .     A
C601   C605    1.397   .     A
C601   H657    1.083   .     S
C602   C606    1.417   .     A
C602   O672    1.391   .     S
C603   C607    1.419   .     A
C603   O662    1.385   .     S
C604   O663    1.391   .     S
C604   C607    1.417   .     A
C605   O664    1.385   .     S
C605   C606    1.419   .     A
C609   C524    1.471   1_655 S
C610   H632    1.111   .     S
C610   O672    1.418   .     S
C610   H631    1.117   .     S
C610   C612    1.518   .     S
C611   N659    1.365   .     A
C611   C622    1.405   .     A
C611   H627    1.079   .     S
C612   H633    1.110   .     S
C612   H635    1.110   .     S
C612   H634    1.111   .     S
C613   O662    1.414   .     S
C613   C614    1.521   .     S
C613   H636    1.114   .     S
C613   H637    1.114   .     S
C614   H640    1.111   .     S
C614   H641    1.108   .     S
C614   H639    1.111   .     S
C615   H642    1.117   .     S
C615   H643    1.111   .     S
C615   O663    1.418   .     S
C615   C616    1.518   .     S
C616   H644    1.110   .     S
C616   H645    1.111   .     S
C616   H646    1.110   .     S
C617   O664    1.414   .     S
C617   C618    1.521   .     S
C617   H647    1.114   .     S
C617   H648    1.114   .     S
C618   H652    1.108   .     S
C618   H651    1.111   .     S
C618   H650    1.111   .     S
C619   N660    1.362   .     A
C619   H638    1.081   .     S
C619   C623    1.405   .     A
C620   C624    1.405   .     A
C620   H649    1.079   .     S
C620   N659    1.365   .     A
C621   H653    1.081   .     S
C621   N660    1.362   .     A
C622   H658    1.080   .     S
C623   H628    1.080   .     S
C624   H629    1.080   .     S
Cu625  O668    1.933   .     S
Cu625  Cu626   2.675   .     S
Cu625  O670    1.933   .     S
Cu625  O661    1.970   .     S
Cu625  O666    1.970   .     S
Cu625  N660    2.010   .     S
Cu626  O671    1.933   .     S
Cu626  O667    1.970   .     S
Cu626  O669    1.933   .     S
Cu626  N659    2.010   .     S
Cu626  O665    1.970   .     S
C673   C690    1.477   .     S
C673   O751    1.296   .     A
C673   O745    1.297   .     A
C674   C678    1.412   .     A
C674   C705    1.405   .     A
C674   H714    1.080   .     S
C675   C679    1.408   .     S
C675   O752    1.286   .     A
C675   O755    1.286   .     A
C676   C680    1.408   .     S
C676   O753    1.286   .     A
C676   O754    1.286   .     A
C677   C708    1.411   .     A
C677   C706    1.411   .     A
C677   C846    1.517   1_545 S
C678   C707    1.412   .     A
C678   C845    1.517   .     S
C680   C7      1.190   1_556 S
C681   H738    1.082   .     S
C681   C686    1.400   .     A
C681   C692    1.397   .     A
C682   H739    1.083   .     S
C682   C687    1.397   .     A
C682   C693    1.396   .     A
C683   C693    1.397   .     A
C683   C688    1.400   .     A
C683   H740    1.082   .     S
C684   O750    1.297   .     A
C684   O749    1.296   .     A
C684   C691    1.477   .     S
C685   C692    1.396   .     A
C685   C689    1.397   .     A
C685   H741    1.083   .     S
C686   C690    1.417   .     A
C686   O756    1.391   .     S
C687   C691    1.419   .     A
C687   O746    1.385   .     S
C688   O747    1.391   .     S
C688   C691    1.417   .     A
C689   O748    1.385   .     S
C689   C690    1.419   .     A
C692   C777    1.471   1_455 S
C693   C776    1.471   .     S
C694   H716    1.111   .     S
C694   O756    1.418   .     S
C694   H715    1.117   .     S
C694   C696    1.518   .     S
C695   N743    1.365   .     A
C695   C706    1.405   .     A
C695   H711    1.079   .     S
C696   H717    1.110   .     S
C696   H719    1.110   .     S
C696   H718    1.111   .     S
C697   O746    1.414   .     S
C697   C698    1.521   .     S
C697   H720    1.114   .     S
C697   H721    1.114   .     S
C698   H724    1.111   .     S
C698   H725    1.108   .     S
C698   H723    1.111   .     S
C699   H726    1.117   .     S
C699   H727    1.111   .     S
C699   O747    1.418   .     S
C699   C700    1.518   .     S
C700   H728    1.110   .     S
C700   H729    1.111   .     S
C700   H730    1.110   .     S
C701   O748    1.414   .     S
C701   C702    1.521   .     S
C701   H731    1.114   .     S
C701   H732    1.114   .     S
C702   H736    1.108   .     S
C702   H735    1.111   .     S
C702   H734    1.111   .     S
C703   N744    1.362   .     A
C703   H722    1.081   .     S
C703   C707    1.405   .     A
C704   C708    1.405   .     A
C704   H733    1.079   .     S
C704   N743    1.365   .     A
C705   H737    1.081   .     S
C705   N744    1.362   .     A
C706   H742    1.080   .     S
C707   H712    1.080   .     S
C708   H713    1.080   .     S
Cu709  O752    1.933   .     S
Cu709  Cu710   2.675   .     S
Cu709  O754    1.933   .     S
Cu709  O745    1.970   .     S
Cu709  O750    1.970   .     S
Cu709  N744    2.010   .     S
Cu710  O755    1.933   .     S
Cu710  O751    1.970   .     S
Cu710  O753    1.933   .     S
Cu710  N743    2.010   .     S
Cu710  O749    1.970   .     S
C757   C774    1.477   .     S
C757   O835    1.296   .     A
C757   O829    1.297   .     A
C758   C762    1.412   .     A
C758   C789    1.405   .     A
C758   H798    1.080   .     S
C759   C763    1.408   .     S
C759   O836    1.286   .     A
C759   O839    1.286   .     A
C760   C764    1.408   .     S
C760   O837    1.286   .     A
C760   O838    1.286   .     A
C761   C792    1.411   .     A
C761   C790    1.411   .     A
C761   C930    1.517   1_545 S
C762   C791    1.412   .     A
C762   C929    1.517   .     S
C764   C91     1.190   1_556 S
C765   H822    1.082   .     S
C765   C770    1.400   .     A
C765   C776    1.397   .     A
C766   H823    1.083   .     S
C766   C771    1.397   .     A
C766   C777    1.396   .     A
C767   C777    1.397   .     A
C767   C772    1.400   .     A
C767   H824    1.082   .     S
C768   O834    1.297   .     A
C768   O833    1.296   .     A
C768   C775    1.477   .     S
C769   C776    1.396   .     A
C769   C773    1.397   .     A
C769   H825    1.083   .     S
C770   C774    1.417   .     A
C770   O840    1.391   .     S
C771   C775    1.419   .     A
C771   O830    1.385   .     S
C772   O831    1.391   .     S
C772   C775    1.417   .     A
C773   O832    1.385   .     S
C773   C774    1.419   .     A
C777   C692    1.471   1_655 S
C778   H800    1.111   .     S
C778   O840    1.418   .     S
C778   H799    1.117   .     S
C778   C780    1.518   .     S
C779   N827    1.365   .     A
C779   C790    1.405   .     A
C779   H795    1.079   .     S
C780   H801    1.110   .     S
C780   H803    1.110   .     S
C780   H802    1.111   .     S
C781   O830    1.414   .     S
C781   C782    1.521   .     S
C781   H804    1.114   .     S
C781   H805    1.114   .     S
C782   H808    1.111   .     S
C782   H809    1.108   .     S
C782   H807    1.111   .     S
C783   H810    1.117   .     S
C783   H811    1.111   .     S
C783   O831    1.418   .     S
C783   C784    1.518   .     S
C784   H812    1.110   .     S
C784   H813    1.111   .     S
C784   H814    1.110   .     S
C785   O832    1.414   .     S
C785   C786    1.521   .     S
C785   H815    1.114   .     S
C785   H816    1.114   .     S
C786   H820    1.108   .     S
C786   H819    1.111   .     S
C786   H818    1.111   .     S
C787   N828    1.362   .     A
C787   H806    1.081   .     S
C787   C791    1.405   .     A
C788   C792    1.405   .     A
C788   H817    1.079   .     S
C788   N827    1.365   .     A
C789   H821    1.081   .     S
C789   N828    1.362   .     A
C790   H826    1.080   .     S
C791   H796    1.080   .     S
C792   H797    1.080   .     S
Cu793  O836    1.933   .     S
Cu793  Cu794   2.675   .     S
Cu793  O838    1.933   .     S
Cu793  O829    1.970   .     S
Cu793  O834    1.970   .     S
Cu793  N828    2.010   .     S
Cu794  O839    1.933   .     S
Cu794  O835    1.970   .     S
Cu794  O837    1.933   .     S
Cu794  N827    2.010   .     S
Cu794  O833    1.970   .     S
C841   C858    1.477   .     S
C841   O919    1.296   .     A
C841   O913    1.297   .     A
C842   C846    1.412   .     A
C842   C873    1.405   .     A
C842   H882    1.080   .     S
C843   C847    1.408   .     S
C843   O920    1.286   .     A
C843   O923    1.286   .     A
C844   C848    1.408   .     S
C844   O921    1.286   .     A
C844   O922    1.286   .     A
C845   C876    1.411   .     A
C845   C874    1.411   .     A
C846   C875    1.412   .     A
C846   C677    1.517   1_565 S
C848   C175    1.190   1_556 S
C849   H906    1.082   .     S
C849   C854    1.400   .     A
C849   C860    1.397   .     A
C850   H907    1.083   .     S
C850   C855    1.397   .     A
C850   C861    1.396   .     A
C851   C861    1.397   .     A
C851   C856    1.400   .     A
C851   H908    1.082   .     S
C852   O918    1.297   .     A
C852   O917    1.296   .     A
C852   C859    1.477   .     S
C853   C860    1.396   .     A
C853   C857    1.397   .     A
C853   H909    1.083   .     S
C854   C858    1.417   .     A
C854   O924    1.391   .     S
C855   C859    1.419   .     A
C855   O914    1.385   .     S
C856   O915    1.391   .     S
C856   C859    1.417   .     A
C857   O916    1.385   .     S
C857   C858    1.419   .     A
C860   C945    1.471   1_455 S
C861   C944    1.471   .     S
C862   H884    1.111   .     S
C862   O924    1.418   .     S
C862   H883    1.117   .     S
C862   C864    1.518   .     S
C863   N911    1.365   .     A
C863   C874    1.405   .     A
C863   H879    1.079   .     S
C864   H885    1.110   .     S
C864   H887    1.110   .     S
C864   H886    1.111   .     S
C865   O914    1.414   .     S
C865   C866    1.521   .     S
C865   H888    1.114   .     S
C865   H889    1.114   .     S
C866   H892    1.111   .     S
C866   H893    1.108   .     S
C866   H891    1.111   .     S
C867   H894    1.117   .     S
C867   H895    1.111   .     S
C867   O915    1.418   .     S
C867   C868    1.518   .     S
C868   H896    1.110   .     S
C868   H897    1.111   .     S
C868   H898    1.110   .     S
C869   O916    1.414   .     S
C869   C870    1.521   .     S
C869   H899    1.114   .     S
C869   H900    1.114   .     S
C870   H904    1.108   .     S
C870   H903    1.111   .     S
C870   H902    1.111   .     S
C871   N912    1.362   .     A
C871   H890    1.081   .     S
C871   C875    1.405   .     A
C872   C876    1.405   .     A
C872   H901    1.079   .     S
C872   N911    1.365   .     A
C873   H905    1.081   .     S
C873   N912    1.362   .     A
C874   H910    1.080   .     S
C875   H880    1.080   .     S
C876   H881    1.080   .     S
Cu877  O920    1.933   .     S
Cu877  Cu878   2.675   .     S
Cu877  O922    1.933   .     S
Cu877  O913    1.970   .     S
Cu877  O918    1.970   .     S
Cu877  N912    2.010   .     S
Cu878  O923    1.933   .     S
Cu878  O919    1.970   .     S
Cu878  O921    1.933   .     S
Cu878  N911    2.010   .     S
Cu878  O917    1.970   .     S
C925   C942    1.477   .     S
C925   O1003   1.296   .     A
C925   O997    1.297   .     A
C926   C930    1.412   .     A
C926   C957    1.405   .     A
C926   H966    1.080   .     S
C927   C931    1.408   .     S
C927   O1004   1.286   .     A
C927   O1007   1.286   .     A
C928   C932    1.408   .     S
C928   O1005   1.286   .     A
C928   O1006   1.286   .     A
C929   C960    1.411   .     A
C929   C958    1.411   .     A
C930   C959    1.412   .     A
C930   C761    1.517   1_565 S
C932   C259    1.190   1_556 S
C933   H990    1.082   .     S
C933   C938    1.400   .     A
C933   C944    1.397   .     A
C934   H991    1.083   .     S
C934   C939    1.397   .     A
C934   C945    1.396   .     A
C935   C945    1.397   .     A
C935   C940    1.400   .     A
C935   H992    1.082   .     S
C936   O1002   1.297   .     A
C936   O1001   1.296   .     A
C936   C943    1.477   .     S
C937   C944    1.396   .     A
C937   C941    1.397   .     A
C937   H993    1.083   .     S
C938   C942    1.417   .     A
C938   O1008   1.391   .     S
C939   C943    1.419   .     A
C939   O998    1.385   .     S
C940   O999    1.391   .     S
C940   C943    1.417   .     A
C941   O1000   1.385   .     S
C941   C942    1.419   .     A
C945   C860    1.471   1_655 S
C946   H968    1.111   .     S
C946   O1008   1.418   .     S
C946   H967    1.117   .     S
C946   C948    1.518   .     S
C947   N995    1.365   .     A
C947   C958    1.405   .     A
C947   H963    1.079   .     S
C948   H969    1.110   .     S
C948   H971    1.110   .     S
C948   H970    1.111   .     S
C949   O998    1.414   .     S
C949   C950    1.521   .     S
C949   H972    1.114   .     S
C949   H973    1.114   .     S
C950   H976    1.111   .     S
C950   H977    1.108   .     S
C950   H975    1.111   .     S
C951   H978    1.117   .     S
C951   H979    1.111   .     S
C951   O999    1.418   .     S
C951   C952    1.518   .     S
C952   H980    1.110   .     S
C952   H981    1.111   .     S
C952   H982    1.110   .     S
C953   O1000   1.414   .     S
C953   C954    1.521   .     S
C953   H983    1.114   .     S
C953   H984    1.114   .     S
C954   H988    1.108   .     S
C954   H987    1.111   .     S
C954   H986    1.111   .     S
C955   N996    1.362   .     A
C955   H974    1.081   .     S
C955   C959    1.405   .     A
C956   C960    1.405   .     A
C956   H985    1.079   .     S
C956   N995    1.365   .     A
C957   H989    1.081   .     S
C957   N996    1.362   .     A
C958   H994    1.080   .     S
C959   H964    1.080   .     S
C960   H965    1.080   .     S
Cu961  O1004   1.933   .     S
Cu961  Cu962   2.675   .     S
Cu961  O1006   1.933   .     S
Cu961  O997    1.970   .     S
Cu961  O1002   1.970   .     S
Cu961  N996    2.010   .     S
Cu962  O1007   1.933   .     S
Cu962  O1003   1.970   .     S
Cu962  O1005   1.933   .     S
Cu962  N995    2.010   .     S
Cu962  O1001   1.970   .     S
