data_str_m2_o1_o18_pcu_sym.25
_audit_creation_date              2020-01-03
_audit_creation_method            'Materials Studio'
_symmetry_space_group_name_H-M    'P1'
_symmetry_Int_Tables_number       1
_symmetry_cell_setting            triclinic
loop_
_symmetry_equiv_pos_as_xyz
  x,y,z
_cell_length_a                    28.5795
_cell_length_b                    32.5000
_cell_length_c                    30.8542
_cell_angle_alpha                 89.8991
_cell_angle_beta                  74.4674
_cell_angle_gamma                 90.0100
loop_
_atom_site_label
_atom_site_type_symbol
_atom_site_fract_x
_atom_site_fract_y
_atom_site_fract_z
_atom_site_U_iso_or_equiv
_atom_site_adp_type
_atom_site_occupancy
C1     C     0.33331   0.08736   0.25003   0.00000  Uiso   1.00
C2     C     0.04257   0.02130   0.24982   0.00000  Uiso   1.00
C3     C     0.00002   0.29059   0.24996   0.00000  Uiso   1.00
C4     C     0.33331   0.04274   0.25004   0.00000  Uiso   1.00
C5     C     0.18283   0.14279   0.27971   0.00000  Uiso   1.00
C6     C     0.15050   0.19054   0.22029   0.00000  Uiso   1.00
C7     C     0.13324   0.14285   0.27974   0.00000  Uiso   1.00
C8     C     0.20010   0.19048   0.22026   0.00000  Uiso   1.00
C9     C     0.30611   0.16614   0.33613   0.00000  Uiso   1.00
C10    C     0.02723   0.16719   0.16387   0.00000  Uiso   1.00
C11    C     0.29104   0.16247   0.38526   0.00000  Uiso   1.00
C12    C     0.00002   0.24597   0.24997   0.00000  Uiso   1.00
C13    C     0.04229   0.17086   0.11474   0.00000  Uiso   1.00
C14    C     0.30603   0.14232   0.45575   0.00000  Uiso   1.00
C15    C     0.02730   0.19101   0.04425   0.00000  Uiso   1.00
C16    C     0.32258   0.14739   0.40928   0.00000  Uiso   1.00
C17    C     0.01075   0.18594   0.09072   0.00000  Uiso   1.00
C18    C     0.24294   0.17140   0.40793   0.00000  Uiso   1.00
C19    C     0.09039   0.16193   0.09207   0.00000  Uiso   1.00
C20    C     0.22402   0.16171   0.45356   0.00000  Uiso   1.00
C21    C     0.10931   0.17163   0.04644   0.00000  Uiso   1.00
C22    C     0.25734   0.15059   0.47816   0.00000  Uiso   1.00
C23    C     0.19662   0.16547   0.04747   0.00000  Uiso   1.00
C24    C     0.07600   0.18275   0.02184   0.00000  Uiso   1.00
C25    C     0.17369   0.16567   0.47597   0.00000  Uiso   1.00
C26    C     0.15965   0.16767   0.02403   0.00000  Uiso   1.00
C27    C     0.19188   0.18349   0.09364   0.00000  Uiso   1.00
C28    C     0.14146   0.14984   0.40636   0.00000  Uiso   1.00
C29    C     0.13672   0.16786   0.45253   0.00000  Uiso   1.00
C30    C     0.24297   0.15178   0.02485   0.00000  Uiso   1.00
C31    C     0.09037   0.18155   0.47515   0.00000  Uiso   1.00
C32    C     0.29074   0.02127   0.25024   0.00000  Uiso   1.00
C33    C     0.04259   0.31206   0.24976   0.00000  Uiso   1.00
C34    C     0.29077   0.31204   0.25018   0.00000  Uiso   1.00
Cu35   Cu    0.04689   0.16667   0.25000   0.00000  Uiso   1.00
Cu36   Cu    0.28645   0.16666   0.25000   0.00000  Uiso   1.00
H37    H     0.26969   0.14683   0.04353   0.00000  Uiso   1.00
H38    H     0.07590   0.29606   0.24957   0.00000  Uiso   1.00
H39    H     0.25748   0.29602   0.25032   0.00000  Uiso   1.00
H40    H     0.07585   0.03731   0.24968   0.00000  Uiso   1.00
H41    H     0.19459   0.12357   0.30345   0.00000  Uiso   1.00
H42    H     0.13875   0.20976   0.19655   0.00000  Uiso   1.00
H43    H     0.10765   0.12376   0.30357   0.00000  Uiso   1.00
H44    H     0.22568   0.20957   0.19643   0.00000  Uiso   1.00
H45    H     0.16113   0.20536   0.10380   0.00000  Uiso   1.00
H46    H     0.18864   0.15855   0.11891   0.00000  Uiso   1.00
H47    H     0.22472   0.20187   0.09343   0.00000  Uiso   1.00
H48    H     0.06365   0.18650   0.45647   0.00000  Uiso   1.00
H49    H     0.14469   0.17479   0.38109   0.00000  Uiso   1.00
H50    H     0.17220   0.12797   0.39620   0.00000  Uiso   1.00
H51    H     0.10861   0.13146   0.40657   0.00000  Uiso   1.00
H52    H     0.11244   0.14635   0.11037   0.00000  Uiso   1.00
H53    H     0.22089   0.18699   0.38963   0.00000  Uiso   1.00
H54    H     0.30674   0.19330   0.10772   0.00000  Uiso   1.00
H55    H     0.02659   0.14003   0.39228   0.00000  Uiso   1.00
H56    H     0.33137   0.13248   0.47427   0.00000  Uiso   1.00
H57    H     0.00197   0.20085   0.02573   0.00000  Uiso   1.00
H58    H     0.25744   0.03727   0.25043   0.00000  Uiso   1.00
N59    N     0.11736   0.16668   0.24999   0.00000  Uiso   1.00
N60    N     0.21597   0.16666   0.25001   0.00000  Uiso   1.00
O61    O     0.03958   0.10655   0.25000   0.00000  Uiso   1.00
O62    O     0.29375   0.22678   0.25000   0.00000  Uiso   1.00
O63    O     0.29372   0.10654   0.25000   0.00000  Uiso   1.00
O64    O     0.03961   0.22679   0.25000   0.00000  Uiso   1.00
O65    O     0.01852   0.16668   0.31492   0.00000  Uiso   1.00
O66    O     0.31481   0.16666   0.18508   0.00000  Uiso   1.00
O67    O     0.27267   0.16667   0.31492   0.00000  Uiso   1.00
O68    O     0.06067   0.16667   0.18508   0.00000  Uiso   1.00
C69    C     0.66664   0.08736   0.25003   0.00000  Uiso   1.00
C70    C     0.37590   0.02130   0.24982   0.00000  Uiso   1.00
C71    C     0.33335   0.29059   0.24996   0.00000  Uiso   1.00
C72    C     0.66665   0.04274   0.25004   0.00000  Uiso   1.00
C73    C     0.51617   0.14279   0.27971   0.00000  Uiso   1.00
C74    C     0.48383   0.19054   0.22029   0.00000  Uiso   1.00
C75    C     0.46657   0.14285   0.27974   0.00000  Uiso   1.00
C76    C     0.53343   0.19048   0.22026   0.00000  Uiso   1.00
C77    C     0.63944   0.16614   0.33613   0.00000  Uiso   1.00
C78    C     0.36056   0.16719   0.16387   0.00000  Uiso   1.00
C79    C     0.62438   0.16247   0.38526   0.00000  Uiso   1.00
C80    C     0.33336   0.24597   0.24997   0.00000  Uiso   1.00
C81    C     0.37562   0.17086   0.11474   0.00000  Uiso   1.00
C82    C     0.63937   0.14232   0.45575   0.00000  Uiso   1.00
C83    C     0.36063   0.19101   0.04425   0.00000  Uiso   1.00
C84    C     0.65591   0.14739   0.40928   0.00000  Uiso   1.00
C85    C     0.34409   0.18594   0.09072   0.00000  Uiso   1.00
C86    C     0.57628   0.17140   0.40793   0.00000  Uiso   1.00
C87    C     0.42372   0.16193   0.09207   0.00000  Uiso   1.00
C88    C     0.55735   0.16171   0.45356   0.00000  Uiso   1.00
C89    C     0.44265   0.17163   0.04644   0.00000  Uiso   1.00
C90    C     0.59067   0.15059   0.47816   0.00000  Uiso   1.00
C91    C     0.52995   0.16547   0.04747   0.00000  Uiso   1.00
C92    C     0.40933   0.18275   0.02184   0.00000  Uiso   1.00
C93    C     0.50702   0.16567   0.47597   0.00000  Uiso   1.00
C94    C     0.49298   0.16767   0.02403   0.00000  Uiso   1.00
C95    C     0.52521   0.18349   0.09364   0.00000  Uiso   1.00
C96    C     0.47479   0.14984   0.40636   0.00000  Uiso   1.00
C97    C     0.47005   0.16786   0.45253   0.00000  Uiso   1.00
C98    C     0.57630   0.15178   0.02485   0.00000  Uiso   1.00
C99    C     0.42370   0.18155   0.47515   0.00000  Uiso   1.00
C100   C     0.62407   0.02127   0.25024   0.00000  Uiso   1.00
C101   C     0.37593   0.31206   0.24976   0.00000  Uiso   1.00
C102   C     0.62410   0.31204   0.25018   0.00000  Uiso   1.00
Cu103  Cu    0.38022   0.16667   0.25000   0.00000  Uiso   1.00
Cu104  Cu    0.61978   0.16666   0.25000   0.00000  Uiso   1.00
H105   H     0.60302   0.14683   0.04353   0.00000  Uiso   1.00
H106   H     0.40923   0.29606   0.24957   0.00000  Uiso   1.00
H107   H     0.59081   0.29602   0.25032   0.00000  Uiso   1.00
H108   H     0.40919   0.03731   0.24968   0.00000  Uiso   1.00
H109   H     0.52792   0.12357   0.30345   0.00000  Uiso   1.00
H110   H     0.47208   0.20976   0.19655   0.00000  Uiso   1.00
H111   H     0.44099   0.12376   0.30357   0.00000  Uiso   1.00
H112   H     0.55901   0.20957   0.19643   0.00000  Uiso   1.00
H113   H     0.49446   0.20536   0.10380   0.00000  Uiso   1.00
H114   H     0.52198   0.15855   0.11891   0.00000  Uiso   1.00
H115   H     0.55805   0.20187   0.09343   0.00000  Uiso   1.00
H116   H     0.39698   0.18650   0.45647   0.00000  Uiso   1.00
H117   H     0.47802   0.17479   0.38109   0.00000  Uiso   1.00
H118   H     0.50554   0.12797   0.39620   0.00000  Uiso   1.00
H119   H     0.44195   0.13146   0.40657   0.00000  Uiso   1.00
H120   H     0.44578   0.14635   0.11037   0.00000  Uiso   1.00
H121   H     0.55422   0.18699   0.38963   0.00000  Uiso   1.00
H122   H     0.64008   0.19330   0.10772   0.00000  Uiso   1.00
H123   H     0.35992   0.14003   0.39228   0.00000  Uiso   1.00
H124   H     0.66470   0.13248   0.47427   0.00000  Uiso   1.00
H125   H     0.33530   0.20085   0.02573   0.00000  Uiso   1.00
H126   H     0.59077   0.03727   0.25043   0.00000  Uiso   1.00
N127   N     0.45069   0.16668   0.24999   0.00000  Uiso   1.00
N128   N     0.54931   0.16666   0.25001   0.00000  Uiso   1.00
O129   O     0.37291   0.10655   0.25000   0.00000  Uiso   1.00
O130   O     0.62709   0.22678   0.25000   0.00000  Uiso   1.00
O131   O     0.62706   0.10654   0.25000   0.00000  Uiso   1.00
O132   O     0.37294   0.22679   0.25000   0.00000  Uiso   1.00
O133   O     0.35186   0.16668   0.31492   0.00000  Uiso   1.00
O134   O     0.64814   0.16666   0.18508   0.00000  Uiso   1.00
O135   O     0.60600   0.16667   0.31492   0.00000  Uiso   1.00
O136   O     0.39400   0.16667   0.18508   0.00000  Uiso   1.00
C137   C     0.99998   0.08736   0.25003   0.00000  Uiso   1.00
C138   C     0.70923   0.02130   0.24982   0.00000  Uiso   1.00
C139   C     0.66669   0.29059   0.24996   0.00000  Uiso   1.00
C140   C     0.99998   0.04274   0.25004   0.00000  Uiso   1.00
C141   C     0.84950   0.14279   0.27971   0.00000  Uiso   1.00
C142   C     0.81717   0.19054   0.22029   0.00000  Uiso   1.00
C143   C     0.79990   0.14285   0.27974   0.00000  Uiso   1.00
C144   C     0.86676   0.19048   0.22026   0.00000  Uiso   1.00
C145   C     0.97277   0.16614   0.33613   0.00000  Uiso   1.00
C146   C     0.69389   0.16719   0.16387   0.00000  Uiso   1.00
C147   C     0.95771   0.16247   0.38526   0.00000  Uiso   1.00
C148   C     0.66669   0.24597   0.24997   0.00000  Uiso   1.00
C149   C     0.70896   0.17086   0.11474   0.00000  Uiso   1.00
C150   C     0.97270   0.14232   0.45575   0.00000  Uiso   1.00
C151   C     0.69397   0.19101   0.04425   0.00000  Uiso   1.00
C152   C     0.98925   0.14739   0.40928   0.00000  Uiso   1.00
C153   C     0.67742   0.18594   0.09072   0.00000  Uiso   1.00
C154   C     0.90961   0.17140   0.40793   0.00000  Uiso   1.00
C155   C     0.75706   0.16193   0.09207   0.00000  Uiso   1.00
C156   C     0.89069   0.16171   0.45356   0.00000  Uiso   1.00
C157   C     0.77598   0.17163   0.04644   0.00000  Uiso   1.00
C158   C     0.92400   0.15059   0.47816   0.00000  Uiso   1.00
C159   C     0.86328   0.16547   0.04747   0.00000  Uiso   1.00
C160   C     0.74266   0.18275   0.02184   0.00000  Uiso   1.00
C161   C     0.84035   0.16567   0.47597   0.00000  Uiso   1.00
C162   C     0.82631   0.16767   0.02403   0.00000  Uiso   1.00
C163   C     0.85854   0.18349   0.09364   0.00000  Uiso   1.00
C164   C     0.80812   0.14984   0.40636   0.00000  Uiso   1.00
C165   C     0.80338   0.16786   0.45253   0.00000  Uiso   1.00
C166   C     0.90963   0.15178   0.02485   0.00000  Uiso   1.00
C167   C     0.75703   0.18155   0.47515   0.00000  Uiso   1.00
C168   C     0.95741   0.02127   0.25024   0.00000  Uiso   1.00
C169   C     0.70926   0.31206   0.24976   0.00000  Uiso   1.00
C170   C     0.95743   0.31204   0.25018   0.00000  Uiso   1.00
Cu171  Cu    0.71355   0.16667   0.25000   0.00000  Uiso   1.00
Cu172  Cu    0.95311   0.16666   0.25000   0.00000  Uiso   1.00
H173   H     0.93635   0.14683   0.04353   0.00000  Uiso   1.00
H174   H     0.74256   0.29606   0.24957   0.00000  Uiso   1.00
H175   H     0.92415   0.29602   0.25032   0.00000  Uiso   1.00
H176   H     0.74252   0.03731   0.24968   0.00000  Uiso   1.00
H177   H     0.86125   0.12357   0.30345   0.00000  Uiso   1.00
H178   H     0.80541   0.20976   0.19655   0.00000  Uiso   1.00
H179   H     0.77432   0.12376   0.30357   0.00000  Uiso   1.00
H180   H     0.89235   0.20957   0.19643   0.00000  Uiso   1.00
H181   H     0.82780   0.20536   0.10380   0.00000  Uiso   1.00
H182   H     0.85531   0.15855   0.11891   0.00000  Uiso   1.00
H183   H     0.89139   0.20187   0.09343   0.00000  Uiso   1.00
H184   H     0.73031   0.18650   0.45647   0.00000  Uiso   1.00
H185   H     0.81136   0.17479   0.38109   0.00000  Uiso   1.00
H186   H     0.83887   0.12797   0.39620   0.00000  Uiso   1.00
H187   H     0.77528   0.13146   0.40657   0.00000  Uiso   1.00
H188   H     0.77911   0.14635   0.11037   0.00000  Uiso   1.00
H189   H     0.88756   0.18699   0.38963   0.00000  Uiso   1.00
H190   H     0.97341   0.19330   0.10772   0.00000  Uiso   1.00
H191   H     0.69326   0.14003   0.39228   0.00000  Uiso   1.00
H192   H     0.99804   0.13248   0.47427   0.00000  Uiso   1.00
H193   H     0.66863   0.20085   0.02573   0.00000  Uiso   1.00
H194   H     0.92410   0.03727   0.25043   0.00000  Uiso   1.00
N195   N     0.78403   0.16668   0.24999   0.00000  Uiso   1.00
N196   N     0.88264   0.16666   0.25001   0.00000  Uiso   1.00
O197   O     0.70625   0.10655   0.25000   0.00000  Uiso   1.00
O198   O     0.96042   0.22678   0.25000   0.00000  Uiso   1.00
O199   O     0.96039   0.10654   0.25000   0.00000  Uiso   1.00
O200   O     0.70628   0.22679   0.25000   0.00000  Uiso   1.00
O201   O     0.68519   0.16668   0.31492   0.00000  Uiso   1.00
O202   O     0.98148   0.16666   0.18508   0.00000  Uiso   1.00
O203   O     0.93933   0.16667   0.31492   0.00000  Uiso   1.00
O204   O     0.72733   0.16667   0.18508   0.00000  Uiso   1.00
C205   C     0.33331   0.42070   0.25003   0.00000  Uiso   1.00
C206   C     0.04257   0.35463   0.24982   0.00000  Uiso   1.00
C207   C     0.00002   0.62392   0.24996   0.00000  Uiso   1.00
C208   C     0.33331   0.37608   0.25004   0.00000  Uiso   1.00
C209   C     0.18283   0.47613   0.27971   0.00000  Uiso   1.00
C210   C     0.15050   0.52387   0.22029   0.00000  Uiso   1.00
C211   C     0.13324   0.47619   0.27974   0.00000  Uiso   1.00
C212   C     0.20010   0.52381   0.22026   0.00000  Uiso   1.00
C213   C     0.30611   0.49947   0.33613   0.00000  Uiso   1.00
C214   C     0.02723   0.50053   0.16387   0.00000  Uiso   1.00
C215   C     0.29104   0.49581   0.38526   0.00000  Uiso   1.00
C216   C     0.00002   0.57930   0.24997   0.00000  Uiso   1.00
C217   C     0.04229   0.50419   0.11474   0.00000  Uiso   1.00
C218   C     0.30603   0.47565   0.45575   0.00000  Uiso   1.00
C219   C     0.02730   0.52435   0.04425   0.00000  Uiso   1.00
C220   C     0.32258   0.48073   0.40928   0.00000  Uiso   1.00
C221   C     0.01075   0.51927   0.09072   0.00000  Uiso   1.00
C222   C     0.24294   0.50474   0.40793   0.00000  Uiso   1.00
C223   C     0.09039   0.49526   0.09207   0.00000  Uiso   1.00
C224   C     0.22402   0.49504   0.45356   0.00000  Uiso   1.00
C225   C     0.10931   0.50496   0.04644   0.00000  Uiso   1.00
C226   C     0.25734   0.48392   0.47816   0.00000  Uiso   1.00
C227   C     0.19662   0.49881   0.04747   0.00000  Uiso   1.00
C228   C     0.07600   0.51608   0.02184   0.00000  Uiso   1.00
C229   C     0.17369   0.49900   0.47597   0.00000  Uiso   1.00
C230   C     0.15965   0.50100   0.02403   0.00000  Uiso   1.00
C231   C     0.19188   0.51683   0.09364   0.00000  Uiso   1.00
C232   C     0.14146   0.48317   0.40636   0.00000  Uiso   1.00
C233   C     0.13672   0.50119   0.45253   0.00000  Uiso   1.00
C234   C     0.24297   0.48511   0.02485   0.00000  Uiso   1.00
C235   C     0.09037   0.51489   0.47515   0.00000  Uiso   1.00
C236   C     0.29074   0.35461   0.25024   0.00000  Uiso   1.00
C237   C     0.04259   0.64539   0.24976   0.00000  Uiso   1.00
C238   C     0.29077   0.64537   0.25018   0.00000  Uiso   1.00
Cu239  Cu    0.04689   0.50001   0.25000   0.00000  Uiso   1.00
Cu240  Cu    0.28645   0.49999   0.25000   0.00000  Uiso   1.00
H241   H     0.26969   0.48017   0.04353   0.00000  Uiso   1.00
H242   H     0.07590   0.62940   0.24957   0.00000  Uiso   1.00
H243   H     0.25748   0.62935   0.25032   0.00000  Uiso   1.00
H244   H     0.07585   0.37065   0.24968   0.00000  Uiso   1.00
H245   H     0.19459   0.45691   0.30345   0.00000  Uiso   1.00
H246   H     0.13875   0.54309   0.19655   0.00000  Uiso   1.00
H247   H     0.10765   0.45709   0.30357   0.00000  Uiso   1.00
H248   H     0.22568   0.54290   0.19643   0.00000  Uiso   1.00
H249   H     0.16113   0.53870   0.10380   0.00000  Uiso   1.00
H250   H     0.18864   0.49188   0.11891   0.00000  Uiso   1.00
H251   H     0.22472   0.53520   0.09343   0.00000  Uiso   1.00
H252   H     0.06365   0.51983   0.45647   0.00000  Uiso   1.00
H253   H     0.14469   0.50812   0.38109   0.00000  Uiso   1.00
H254   H     0.17220   0.46130   0.39620   0.00000  Uiso   1.00
H255   H     0.10861   0.46479   0.40657   0.00000  Uiso   1.00
H256   H     0.11244   0.47968   0.11037   0.00000  Uiso   1.00
H257   H     0.22089   0.52032   0.38963   0.00000  Uiso   1.00
H258   H     0.30674   0.52663   0.10772   0.00000  Uiso   1.00
H259   H     0.02659   0.47337   0.39228   0.00000  Uiso   1.00
H260   H     0.33137   0.46582   0.47427   0.00000  Uiso   1.00
H261   H     0.00197   0.53418   0.02573   0.00000  Uiso   1.00
H262   H     0.25744   0.37060   0.25043   0.00000  Uiso   1.00
N263   N     0.11736   0.50001   0.24999   0.00000  Uiso   1.00
N264   N     0.21597   0.49999   0.25001   0.00000  Uiso   1.00
O265   O     0.03958   0.43989   0.25000   0.00000  Uiso   1.00
O266   O     0.29375   0.56011   0.25000   0.00000  Uiso   1.00
O267   O     0.29372   0.43988   0.25000   0.00000  Uiso   1.00
O268   O     0.03961   0.56012   0.25000   0.00000  Uiso   1.00
O269   O     0.01852   0.50001   0.31492   0.00000  Uiso   1.00
O270   O     0.31481   0.49999   0.18508   0.00000  Uiso   1.00
O271   O     0.27267   0.50000   0.31492   0.00000  Uiso   1.00
O272   O     0.06067   0.50000   0.18508   0.00000  Uiso   1.00
C273   C     0.66664   0.42070   0.25003   0.00000  Uiso   1.00
C274   C     0.37590   0.35463   0.24982   0.00000  Uiso   1.00
C275   C     0.33335   0.62392   0.24996   0.00000  Uiso   1.00
C276   C     0.66665   0.37608   0.25004   0.00000  Uiso   1.00
C277   C     0.51617   0.47613   0.27971   0.00000  Uiso   1.00
C278   C     0.48383   0.52387   0.22029   0.00000  Uiso   1.00
C279   C     0.46657   0.47619   0.27974   0.00000  Uiso   1.00
C280   C     0.53343   0.52381   0.22026   0.00000  Uiso   1.00
C281   C     0.63944   0.49947   0.33613   0.00000  Uiso   1.00
C282   C     0.36056   0.50053   0.16387   0.00000  Uiso   1.00
C283   C     0.62438   0.49581   0.38526   0.00000  Uiso   1.00
C284   C     0.33336   0.57930   0.24997   0.00000  Uiso   1.00
C285   C     0.37562   0.50419   0.11474   0.00000  Uiso   1.00
C286   C     0.63937   0.47565   0.45575   0.00000  Uiso   1.00
C287   C     0.36063   0.52435   0.04425   0.00000  Uiso   1.00
C288   C     0.65591   0.48073   0.40928   0.00000  Uiso   1.00
C289   C     0.34409   0.51927   0.09072   0.00000  Uiso   1.00
C290   C     0.57628   0.50474   0.40793   0.00000  Uiso   1.00
C291   C     0.42372   0.49526   0.09207   0.00000  Uiso   1.00
C292   C     0.55735   0.49504   0.45356   0.00000  Uiso   1.00
C293   C     0.44265   0.50496   0.04644   0.00000  Uiso   1.00
C294   C     0.59067   0.48392   0.47816   0.00000  Uiso   1.00
C295   C     0.52995   0.49881   0.04747   0.00000  Uiso   1.00
C296   C     0.40933   0.51608   0.02184   0.00000  Uiso   1.00
C297   C     0.50702   0.49900   0.47597   0.00000  Uiso   1.00
C298   C     0.49298   0.50100   0.02403   0.00000  Uiso   1.00
C299   C     0.52521   0.51683   0.09364   0.00000  Uiso   1.00
C300   C     0.47479   0.48317   0.40636   0.00000  Uiso   1.00
C301   C     0.47005   0.50119   0.45253   0.00000  Uiso   1.00
C302   C     0.57630   0.48511   0.02485   0.00000  Uiso   1.00
C303   C     0.42370   0.51489   0.47515   0.00000  Uiso   1.00
C304   C     0.62407   0.35461   0.25024   0.00000  Uiso   1.00
C305   C     0.37593   0.64539   0.24976   0.00000  Uiso   1.00
C306   C     0.62410   0.64537   0.25018   0.00000  Uiso   1.00
Cu307  Cu    0.38022   0.50001   0.25000   0.00000  Uiso   1.00
Cu308  Cu    0.61978   0.49999   0.25000   0.00000  Uiso   1.00
H309   H     0.60302   0.48017   0.04353   0.00000  Uiso   1.00
H310   H     0.40923   0.62940   0.24957   0.00000  Uiso   1.00
H311   H     0.59081   0.62935   0.25032   0.00000  Uiso   1.00
H312   H     0.40919   0.37065   0.24968   0.00000  Uiso   1.00
H313   H     0.52792   0.45691   0.30345   0.00000  Uiso   1.00
H314   H     0.47208   0.54309   0.19655   0.00000  Uiso   1.00
H315   H     0.44099   0.45709   0.30357   0.00000  Uiso   1.00
H316   H     0.55901   0.54290   0.19643   0.00000  Uiso   1.00
H317   H     0.49446   0.53870   0.10380   0.00000  Uiso   1.00
H318   H     0.52198   0.49188   0.11891   0.00000  Uiso   1.00
H319   H     0.55805   0.53520   0.09343   0.00000  Uiso   1.00
H320   H     0.39698   0.51983   0.45647   0.00000  Uiso   1.00
H321   H     0.47802   0.50812   0.38109   0.00000  Uiso   1.00
H322   H     0.50554   0.46130   0.39620   0.00000  Uiso   1.00
H323   H     0.44195   0.46479   0.40657   0.00000  Uiso   1.00
H324   H     0.44578   0.47968   0.11037   0.00000  Uiso   1.00
H325   H     0.55422   0.52032   0.38963   0.00000  Uiso   1.00
H326   H     0.64008   0.52663   0.10772   0.00000  Uiso   1.00
H327   H     0.35992   0.47337   0.39228   0.00000  Uiso   1.00
H328   H     0.66470   0.46582   0.47427   0.00000  Uiso   1.00
H329   H     0.33530   0.53418   0.02573   0.00000  Uiso   1.00
H330   H     0.59077   0.37060   0.25043   0.00000  Uiso   1.00
N331   N     0.45069   0.50001   0.24999   0.00000  Uiso   1.00
N332   N     0.54931   0.49999   0.25001   0.00000  Uiso   1.00
O333   O     0.37291   0.43989   0.25000   0.00000  Uiso   1.00
O334   O     0.62709   0.56011   0.25000   0.00000  Uiso   1.00
O335   O     0.62706   0.43988   0.25000   0.00000  Uiso   1.00
O336   O     0.37294   0.56012   0.25000   0.00000  Uiso   1.00
O337   O     0.35186   0.50001   0.31492   0.00000  Uiso   1.00
O338   O     0.64814   0.49999   0.18508   0.00000  Uiso   1.00
O339   O     0.60600   0.50000   0.31492   0.00000  Uiso   1.00
O340   O     0.39400   0.50000   0.18508   0.00000  Uiso   1.00
C341   C     0.99998   0.42070   0.25003   0.00000  Uiso   1.00
C342   C     0.70923   0.35463   0.24982   0.00000  Uiso   1.00
C343   C     0.66669   0.62392   0.24996   0.00000  Uiso   1.00
C344   C     0.99998   0.37608   0.25004   0.00000  Uiso   1.00
C345   C     0.84950   0.47613   0.27971   0.00000  Uiso   1.00
C346   C     0.81717   0.52387   0.22029   0.00000  Uiso   1.00
C347   C     0.79990   0.47619   0.27974   0.00000  Uiso   1.00
C348   C     0.86676   0.52381   0.22026   0.00000  Uiso   1.00
C349   C     0.97277   0.49947   0.33613   0.00000  Uiso   1.00
C350   C     0.69389   0.50053   0.16387   0.00000  Uiso   1.00
C351   C     0.95771   0.49581   0.38526   0.00000  Uiso   1.00
C352   C     0.66669   0.57930   0.24997   0.00000  Uiso   1.00
C353   C     0.70896   0.50419   0.11474   0.00000  Uiso   1.00
C354   C     0.97270   0.47565   0.45575   0.00000  Uiso   1.00
C355   C     0.69397   0.52435   0.04425   0.00000  Uiso   1.00
C356   C     0.98925   0.48073   0.40928   0.00000  Uiso   1.00
C357   C     0.67742   0.51927   0.09072   0.00000  Uiso   1.00
C358   C     0.90961   0.50474   0.40793   0.00000  Uiso   1.00
C359   C     0.75706   0.49526   0.09207   0.00000  Uiso   1.00
C360   C     0.89069   0.49504   0.45356   0.00000  Uiso   1.00
C361   C     0.77598   0.50496   0.04644   0.00000  Uiso   1.00
C362   C     0.92400   0.48392   0.47816   0.00000  Uiso   1.00
C363   C     0.86328   0.49881   0.04747   0.00000  Uiso   1.00
C364   C     0.74266   0.51608   0.02184   0.00000  Uiso   1.00
C365   C     0.84035   0.49900   0.47597   0.00000  Uiso   1.00
C366   C     0.82631   0.50100   0.02403   0.00000  Uiso   1.00
C367   C     0.85854   0.51683   0.09364   0.00000  Uiso   1.00
C368   C     0.80812   0.48317   0.40636   0.00000  Uiso   1.00
C369   C     0.80338   0.50119   0.45253   0.00000  Uiso   1.00
C370   C     0.90963   0.48511   0.02485   0.00000  Uiso   1.00
C371   C     0.75703   0.51489   0.47515   0.00000  Uiso   1.00
C372   C     0.95741   0.35461   0.25024   0.00000  Uiso   1.00
C373   C     0.70926   0.64539   0.24976   0.00000  Uiso   1.00
C374   C     0.95743   0.64537   0.25018   0.00000  Uiso   1.00
Cu375  Cu    0.71355   0.50001   0.25000   0.00000  Uiso   1.00
Cu376  Cu    0.95311   0.49999   0.25000   0.00000  Uiso   1.00
H377   H     0.93635   0.48017   0.04353   0.00000  Uiso   1.00
H378   H     0.74256   0.62940   0.24957   0.00000  Uiso   1.00
H379   H     0.92415   0.62935   0.25032   0.00000  Uiso   1.00
H380   H     0.74252   0.37065   0.24968   0.00000  Uiso   1.00
H381   H     0.86125   0.45691   0.30345   0.00000  Uiso   1.00
H382   H     0.80541   0.54309   0.19655   0.00000  Uiso   1.00
H383   H     0.77432   0.45709   0.30357   0.00000  Uiso   1.00
H384   H     0.89235   0.54290   0.19643   0.00000  Uiso   1.00
H385   H     0.82780   0.53870   0.10380   0.00000  Uiso   1.00
H386   H     0.85531   0.49188   0.11891   0.00000  Uiso   1.00
H387   H     0.89139   0.53520   0.09343   0.00000  Uiso   1.00
H388   H     0.73031   0.51983   0.45647   0.00000  Uiso   1.00
H389   H     0.81136   0.50812   0.38109   0.00000  Uiso   1.00
H390   H     0.83887   0.46130   0.39620   0.00000  Uiso   1.00
H391   H     0.77528   0.46479   0.40657   0.00000  Uiso   1.00
H392   H     0.77911   0.47968   0.11037   0.00000  Uiso   1.00
H393   H     0.88756   0.52032   0.38963   0.00000  Uiso   1.00
H394   H     0.97341   0.52663   0.10772   0.00000  Uiso   1.00
H395   H     0.69326   0.47337   0.39228   0.00000  Uiso   1.00
H396   H     0.99804   0.46582   0.47427   0.00000  Uiso   1.00
H397   H     0.66863   0.53418   0.02573   0.00000  Uiso   1.00
H398   H     0.92410   0.37060   0.25043   0.00000  Uiso   1.00
N399   N     0.78403   0.50001   0.24999   0.00000  Uiso   1.00
N400   N     0.88264   0.49999   0.25001   0.00000  Uiso   1.00
O401   O     0.70625   0.43989   0.25000   0.00000  Uiso   1.00
O402   O     0.96042   0.56011   0.25000   0.00000  Uiso   1.00
O403   O     0.96039   0.43988   0.25000   0.00000  Uiso   1.00
O404   O     0.70628   0.56012   0.25000   0.00000  Uiso   1.00
O405   O     0.68519   0.50001   0.31492   0.00000  Uiso   1.00
O406   O     0.98148   0.49999   0.18508   0.00000  Uiso   1.00
O407   O     0.93933   0.50000   0.31492   0.00000  Uiso   1.00
O408   O     0.72733   0.50000   0.18508   0.00000  Uiso   1.00
C409   C     0.33331   0.75403   0.25003   0.00000  Uiso   1.00
C410   C     0.04257   0.68796   0.24982   0.00000  Uiso   1.00
C411   C     0.00002   0.95726   0.24996   0.00000  Uiso   1.00
C412   C     0.33331   0.70941   0.25004   0.00000  Uiso   1.00
C413   C     0.18283   0.80946   0.27971   0.00000  Uiso   1.00
C414   C     0.15050   0.85721   0.22029   0.00000  Uiso   1.00
C415   C     0.13324   0.80952   0.27974   0.00000  Uiso   1.00
C416   C     0.20010   0.85715   0.22026   0.00000  Uiso   1.00
C417   C     0.30611   0.83281   0.33613   0.00000  Uiso   1.00
C418   C     0.02723   0.83386   0.16387   0.00000  Uiso   1.00
C419   C     0.29104   0.82914   0.38526   0.00000  Uiso   1.00
C420   C     0.00002   0.91264   0.24997   0.00000  Uiso   1.00
C421   C     0.04229   0.83753   0.11474   0.00000  Uiso   1.00
C422   C     0.30603   0.80899   0.45575   0.00000  Uiso   1.00
C423   C     0.02730   0.85768   0.04425   0.00000  Uiso   1.00
C424   C     0.32258   0.81406   0.40928   0.00000  Uiso   1.00
C425   C     0.01075   0.85261   0.09072   0.00000  Uiso   1.00
C426   C     0.24294   0.83807   0.40793   0.00000  Uiso   1.00
C427   C     0.09039   0.82860   0.09207   0.00000  Uiso   1.00
C428   C     0.22402   0.82837   0.45356   0.00000  Uiso   1.00
C429   C     0.10931   0.83829   0.04644   0.00000  Uiso   1.00
C430   C     0.25734   0.81725   0.47816   0.00000  Uiso   1.00
C431   C     0.19662   0.83214   0.04747   0.00000  Uiso   1.00
C432   C     0.07600   0.84941   0.02184   0.00000  Uiso   1.00
C433   C     0.17369   0.83233   0.47597   0.00000  Uiso   1.00
C434   C     0.15965   0.83433   0.02403   0.00000  Uiso   1.00
C435   C     0.19188   0.85016   0.09364   0.00000  Uiso   1.00
C436   C     0.14146   0.81651   0.40636   0.00000  Uiso   1.00
C437   C     0.13672   0.83453   0.45253   0.00000  Uiso   1.00
C438   C     0.24297   0.81845   0.02485   0.00000  Uiso   1.00
C439   C     0.09037   0.84822   0.47515   0.00000  Uiso   1.00
C440   C     0.29074   0.68794   0.25024   0.00000  Uiso   1.00
C441   C     0.04259   0.97873   0.24976   0.00000  Uiso   1.00
C442   C     0.29077   0.97870   0.25018   0.00000  Uiso   1.00
Cu443  Cu    0.04689   0.83334   0.25000   0.00000  Uiso   1.00
Cu444  Cu    0.28645   0.83333   0.25000   0.00000  Uiso   1.00
H445   H     0.26969   0.81350   0.04353   0.00000  Uiso   1.00
H446   H     0.07590   0.96273   0.24957   0.00000  Uiso   1.00
H447   H     0.25748   0.96269   0.25032   0.00000  Uiso   1.00
H448   H     0.07585   0.70398   0.24968   0.00000  Uiso   1.00
H449   H     0.19459   0.79024   0.30345   0.00000  Uiso   1.00
H450   H     0.13875   0.87643   0.19655   0.00000  Uiso   1.00
H451   H     0.10765   0.79043   0.30357   0.00000  Uiso   1.00
H452   H     0.22568   0.87624   0.19643   0.00000  Uiso   1.00
H453   H     0.16113   0.87203   0.10380   0.00000  Uiso   1.00
H454   H     0.18864   0.82521   0.11891   0.00000  Uiso   1.00
H455   H     0.22472   0.86854   0.09343   0.00000  Uiso   1.00
H456   H     0.06365   0.85317   0.45647   0.00000  Uiso   1.00
H457   H     0.14469   0.84145   0.38109   0.00000  Uiso   1.00
H458   H     0.17220   0.79464   0.39620   0.00000  Uiso   1.00
H459   H     0.10861   0.79813   0.40657   0.00000  Uiso   1.00
H460   H     0.11244   0.81301   0.11037   0.00000  Uiso   1.00
H461   H     0.22089   0.85365   0.38963   0.00000  Uiso   1.00
H462   H     0.30674   0.85997   0.10772   0.00000  Uiso   1.00
H463   H     0.02659   0.80670   0.39228   0.00000  Uiso   1.00
H464   H     0.33137   0.79915   0.47427   0.00000  Uiso   1.00
H465   H     0.00197   0.86752   0.02573   0.00000  Uiso   1.00
H466   H     0.25744   0.70394   0.25043   0.00000  Uiso   1.00
N467   N     0.11736   0.83334   0.24999   0.00000  Uiso   1.00
N468   N     0.21597   0.83332   0.25001   0.00000  Uiso   1.00
O469   O     0.03958   0.77322   0.25000   0.00000  Uiso   1.00
O470   O     0.29375   0.89345   0.25000   0.00000  Uiso   1.00
O471   O     0.29372   0.77321   0.25000   0.00000  Uiso   1.00
O472   O     0.03961   0.89346   0.25000   0.00000  Uiso   1.00
O473   O     0.01852   0.83334   0.31492   0.00000  Uiso   1.00
O474   O     0.31481   0.83332   0.18508   0.00000  Uiso   1.00
O475   O     0.27267   0.83333   0.31492   0.00000  Uiso   1.00
O476   O     0.06067   0.83333   0.18508   0.00000  Uiso   1.00
C477   C     0.66664   0.75403   0.25003   0.00000  Uiso   1.00
C478   C     0.37590   0.68796   0.24982   0.00000  Uiso   1.00
C479   C     0.33335   0.95726   0.24996   0.00000  Uiso   1.00
C480   C     0.66665   0.70941   0.25004   0.00000  Uiso   1.00
C481   C     0.51617   0.80946   0.27971   0.00000  Uiso   1.00
C482   C     0.48383   0.85721   0.22029   0.00000  Uiso   1.00
C483   C     0.46657   0.80952   0.27974   0.00000  Uiso   1.00
C484   C     0.53343   0.85715   0.22026   0.00000  Uiso   1.00
C485   C     0.63944   0.83281   0.33613   0.00000  Uiso   1.00
C486   C     0.36056   0.83386   0.16387   0.00000  Uiso   1.00
C487   C     0.62438   0.82914   0.38526   0.00000  Uiso   1.00
C488   C     0.33336   0.91264   0.24997   0.00000  Uiso   1.00
C489   C     0.37562   0.83753   0.11474   0.00000  Uiso   1.00
C490   C     0.63937   0.80899   0.45575   0.00000  Uiso   1.00
C491   C     0.36063   0.85768   0.04425   0.00000  Uiso   1.00
C492   C     0.65591   0.81406   0.40928   0.00000  Uiso   1.00
C493   C     0.34409   0.85261   0.09072   0.00000  Uiso   1.00
C494   C     0.57628   0.83807   0.40793   0.00000  Uiso   1.00
C495   C     0.42372   0.82860   0.09207   0.00000  Uiso   1.00
C496   C     0.55735   0.82837   0.45356   0.00000  Uiso   1.00
C497   C     0.44265   0.83829   0.04644   0.00000  Uiso   1.00
C498   C     0.59067   0.81725   0.47816   0.00000  Uiso   1.00
C499   C     0.52995   0.83214   0.04747   0.00000  Uiso   1.00
C500   C     0.40933   0.84941   0.02184   0.00000  Uiso   1.00
C501   C     0.50702   0.83233   0.47597   0.00000  Uiso   1.00
C502   C     0.49298   0.83433   0.02403   0.00000  Uiso   1.00
C503   C     0.52521   0.85016   0.09364   0.00000  Uiso   1.00
C504   C     0.47479   0.81651   0.40636   0.00000  Uiso   1.00
C505   C     0.47005   0.83453   0.45253   0.00000  Uiso   1.00
C506   C     0.57630   0.81845   0.02485   0.00000  Uiso   1.00
C507   C     0.42370   0.84822   0.47515   0.00000  Uiso   1.00
C508   C     0.62407   0.68794   0.25024   0.00000  Uiso   1.00
C509   C     0.37593   0.97873   0.24976   0.00000  Uiso   1.00
C510   C     0.62410   0.97870   0.25018   0.00000  Uiso   1.00
Cu511  Cu    0.38022   0.83334   0.25000   0.00000  Uiso   1.00
Cu512  Cu    0.61978   0.83333   0.25000   0.00000  Uiso   1.00
H513   H     0.60302   0.81350   0.04353   0.00000  Uiso   1.00
H514   H     0.40923   0.96273   0.24957   0.00000  Uiso   1.00
H515   H     0.59081   0.96269   0.25032   0.00000  Uiso   1.00
H516   H     0.40919   0.70398   0.24968   0.00000  Uiso   1.00
H517   H     0.52792   0.79024   0.30345   0.00000  Uiso   1.00
H518   H     0.47208   0.87643   0.19655   0.00000  Uiso   1.00
H519   H     0.44099   0.79043   0.30357   0.00000  Uiso   1.00
H520   H     0.55901   0.87624   0.19643   0.00000  Uiso   1.00
H521   H     0.49446   0.87203   0.10380   0.00000  Uiso   1.00
H522   H     0.52198   0.82521   0.11891   0.00000  Uiso   1.00
H523   H     0.55805   0.86854   0.09343   0.00000  Uiso   1.00
H524   H     0.39698   0.85317   0.45647   0.00000  Uiso   1.00
H525   H     0.47802   0.84145   0.38109   0.00000  Uiso   1.00
H526   H     0.50554   0.79464   0.39620   0.00000  Uiso   1.00
H527   H     0.44195   0.79813   0.40657   0.00000  Uiso   1.00
H528   H     0.44578   0.81301   0.11037   0.00000  Uiso   1.00
H529   H     0.55422   0.85365   0.38963   0.00000  Uiso   1.00
H530   H     0.64008   0.85997   0.10772   0.00000  Uiso   1.00
H531   H     0.35992   0.80670   0.39228   0.00000  Uiso   1.00
H532   H     0.66470   0.79915   0.47427   0.00000  Uiso   1.00
H533   H     0.33530   0.86752   0.02573   0.00000  Uiso   1.00
H534   H     0.59077   0.70394   0.25043   0.00000  Uiso   1.00
N535   N     0.45069   0.83334   0.24999   0.00000  Uiso   1.00
N536   N     0.54931   0.83332   0.25001   0.00000  Uiso   1.00
O537   O     0.37291   0.77322   0.25000   0.00000  Uiso   1.00
O538   O     0.62709   0.89345   0.25000   0.00000  Uiso   1.00
O539   O     0.62706   0.77321   0.25000   0.00000  Uiso   1.00
O540   O     0.37294   0.89346   0.25000   0.00000  Uiso   1.00
O541   O     0.35186   0.83334   0.31492   0.00000  Uiso   1.00
O542   O     0.64814   0.83332   0.18508   0.00000  Uiso   1.00
O543   O     0.60600   0.83333   0.31492   0.00000  Uiso   1.00
O544   O     0.39400   0.83333   0.18508   0.00000  Uiso   1.00
C545   C     0.99998   0.75403   0.25003   0.00000  Uiso   1.00
C546   C     0.70923   0.68796   0.24982   0.00000  Uiso   1.00
C547   C     0.66669   0.95726   0.24996   0.00000  Uiso   1.00
C548   C     0.99998   0.70941   0.25004   0.00000  Uiso   1.00
C549   C     0.84950   0.80946   0.27971   0.00000  Uiso   1.00
C550   C     0.81717   0.85721   0.22029   0.00000  Uiso   1.00
C551   C     0.79990   0.80952   0.27974   0.00000  Uiso   1.00
C552   C     0.86676   0.85715   0.22026   0.00000  Uiso   1.00
C553   C     0.97277   0.83281   0.33613   0.00000  Uiso   1.00
C554   C     0.69389   0.83386   0.16387   0.00000  Uiso   1.00
C555   C     0.95771   0.82914   0.38526   0.00000  Uiso   1.00
C556   C     0.66669   0.91264   0.24997   0.00000  Uiso   1.00
C557   C     0.70896   0.83753   0.11474   0.00000  Uiso   1.00
C558   C     0.97270   0.80899   0.45575   0.00000  Uiso   1.00
C559   C     0.69397   0.85768   0.04425   0.00000  Uiso   1.00
C560   C     0.98925   0.81406   0.40928   0.00000  Uiso   1.00
C561   C     0.67742   0.85261   0.09072   0.00000  Uiso   1.00
C562   C     0.90961   0.83807   0.40793   0.00000  Uiso   1.00
C563   C     0.75706   0.82860   0.09207   0.00000  Uiso   1.00
C564   C     0.89069   0.82837   0.45356   0.00000  Uiso   1.00
C565   C     0.77598   0.83829   0.04644   0.00000  Uiso   1.00
C566   C     0.92400   0.81725   0.47816   0.00000  Uiso   1.00
C567   C     0.86328   0.83214   0.04747   0.00000  Uiso   1.00
C568   C     0.74266   0.84941   0.02184   0.00000  Uiso   1.00
C569   C     0.84035   0.83233   0.47597   0.00000  Uiso   1.00
C570   C     0.82631   0.83433   0.02403   0.00000  Uiso   1.00
C571   C     0.85854   0.85016   0.09364   0.00000  Uiso   1.00
C572   C     0.80812   0.81651   0.40636   0.00000  Uiso   1.00
C573   C     0.80338   0.83453   0.45253   0.00000  Uiso   1.00
C574   C     0.90963   0.81845   0.02485   0.00000  Uiso   1.00
C575   C     0.75703   0.84822   0.47515   0.00000  Uiso   1.00
C576   C     0.95741   0.68794   0.25024   0.00000  Uiso   1.00
C577   C     0.70926   0.97873   0.24976   0.00000  Uiso   1.00
C578   C     0.95743   0.97870   0.25018   0.00000  Uiso   1.00
Cu579  Cu    0.71355   0.83334   0.25000   0.00000  Uiso   1.00
Cu580  Cu    0.95311   0.83333   0.25000   0.00000  Uiso   1.00
H581   H     0.93635   0.81350   0.04353   0.00000  Uiso   1.00
H582   H     0.74256   0.96273   0.24957   0.00000  Uiso   1.00
H583   H     0.92415   0.96269   0.25032   0.00000  Uiso   1.00
H584   H     0.74252   0.70398   0.24968   0.00000  Uiso   1.00
H585   H     0.86125   0.79024   0.30345   0.00000  Uiso   1.00
H586   H     0.80541   0.87643   0.19655   0.00000  Uiso   1.00
H587   H     0.77432   0.79043   0.30357   0.00000  Uiso   1.00
H588   H     0.89235   0.87624   0.19643   0.00000  Uiso   1.00
H589   H     0.82780   0.87203   0.10380   0.00000  Uiso   1.00
H590   H     0.85531   0.82521   0.11891   0.00000  Uiso   1.00
H591   H     0.89139   0.86854   0.09343   0.00000  Uiso   1.00
H592   H     0.73031   0.85317   0.45647   0.00000  Uiso   1.00
H593   H     0.81136   0.84145   0.38109   0.00000  Uiso   1.00
H594   H     0.83887   0.79464   0.39620   0.00000  Uiso   1.00
H595   H     0.77528   0.79813   0.40657   0.00000  Uiso   1.00
H596   H     0.77911   0.81301   0.11037   0.00000  Uiso   1.00
H597   H     0.88756   0.85365   0.38963   0.00000  Uiso   1.00
H598   H     0.97341   0.85997   0.10772   0.00000  Uiso   1.00
H599   H     0.69326   0.80670   0.39228   0.00000  Uiso   1.00
H600   H     0.99804   0.79915   0.47427   0.00000  Uiso   1.00
H601   H     0.66863   0.86752   0.02573   0.00000  Uiso   1.00
H602   H     0.92410   0.70394   0.25043   0.00000  Uiso   1.00
N603   N     0.78403   0.83334   0.24999   0.00000  Uiso   1.00
N604   N     0.88264   0.83332   0.25001   0.00000  Uiso   1.00
O605   O     0.70625   0.77322   0.25000   0.00000  Uiso   1.00
O606   O     0.96042   0.89345   0.25000   0.00000  Uiso   1.00
O607   O     0.96039   0.77321   0.25000   0.00000  Uiso   1.00
O608   O     0.70628   0.89346   0.25000   0.00000  Uiso   1.00
O609   O     0.68519   0.83334   0.31492   0.00000  Uiso   1.00
O610   O     0.98148   0.83332   0.18508   0.00000  Uiso   1.00
O611   O     0.93933   0.83333   0.31492   0.00000  Uiso   1.00
O612   O     0.72733   0.83333   0.18508   0.00000  Uiso   1.00
C613   C     0.33331   0.08736   0.75003   0.00000  Uiso   1.00
C614   C     0.04257   0.02130   0.74982   0.00000  Uiso   1.00
C615   C     0.00002   0.29059   0.74996   0.00000  Uiso   1.00
C616   C     0.33331   0.04274   0.75004   0.00000  Uiso   1.00
C617   C     0.18283   0.14279   0.77971   0.00000  Uiso   1.00
C618   C     0.15050   0.19054   0.72029   0.00000  Uiso   1.00
C619   C     0.13324   0.14285   0.77974   0.00000  Uiso   1.00
C620   C     0.20010   0.19048   0.72026   0.00000  Uiso   1.00
C621   C     0.30611   0.16614   0.83613   0.00000  Uiso   1.00
C622   C     0.02723   0.16719   0.66387   0.00000  Uiso   1.00
C623   C     0.29104   0.16247   0.88526   0.00000  Uiso   1.00
C624   C     0.00002   0.24597   0.74997   0.00000  Uiso   1.00
C625   C     0.04229   0.17086   0.61474   0.00000  Uiso   1.00
C626   C     0.30603   0.14232   0.95575   0.00000  Uiso   1.00
C627   C     0.02730   0.19101   0.54425   0.00000  Uiso   1.00
C628   C     0.32258   0.14739   0.90928   0.00000  Uiso   1.00
C629   C     0.01075   0.18594   0.59072   0.00000  Uiso   1.00
C630   C     0.24294   0.17140   0.90793   0.00000  Uiso   1.00
C631   C     0.09039   0.16193   0.59207   0.00000  Uiso   1.00
C632   C     0.22402   0.16171   0.95356   0.00000  Uiso   1.00
C633   C     0.10931   0.17163   0.54644   0.00000  Uiso   1.00
C634   C     0.25734   0.15059   0.97816   0.00000  Uiso   1.00
C635   C     0.19662   0.16547   0.54747   0.00000  Uiso   1.00
C636   C     0.07600   0.18275   0.52184   0.00000  Uiso   1.00
C637   C     0.17369   0.16567   0.97597   0.00000  Uiso   1.00
C638   C     0.15965   0.16767   0.52403   0.00000  Uiso   1.00
C639   C     0.19188   0.18349   0.59364   0.00000  Uiso   1.00
C640   C     0.14146   0.14984   0.90636   0.00000  Uiso   1.00
C641   C     0.13672   0.16786   0.95253   0.00000  Uiso   1.00
C642   C     0.24297   0.15178   0.52485   0.00000  Uiso   1.00
C643   C     0.09037   0.18155   0.97515   0.00000  Uiso   1.00
C644   C     0.29074   0.02127   0.75024   0.00000  Uiso   1.00
C645   C     0.04259   0.31206   0.74976   0.00000  Uiso   1.00
C646   C     0.29077   0.31204   0.75018   0.00000  Uiso   1.00
Cu647  Cu    0.04689   0.16667   0.75000   0.00000  Uiso   1.00
Cu648  Cu    0.28645   0.16666   0.75000   0.00000  Uiso   1.00
H649   H     0.26969   0.14683   0.54353   0.00000  Uiso   1.00
H650   H     0.07590   0.29606   0.74957   0.00000  Uiso   1.00
H651   H     0.25748   0.29602   0.75032   0.00000  Uiso   1.00
H652   H     0.07585   0.03731   0.74968   0.00000  Uiso   1.00
H653   H     0.19459   0.12357   0.80345   0.00000  Uiso   1.00
H654   H     0.13875   0.20976   0.69655   0.00000  Uiso   1.00
H655   H     0.10765   0.12376   0.80357   0.00000  Uiso   1.00
H656   H     0.22568   0.20957   0.69643   0.00000  Uiso   1.00
H657   H     0.16113   0.20536   0.60380   0.00000  Uiso   1.00
H658   H     0.18864   0.15855   0.61891   0.00000  Uiso   1.00
H659   H     0.22472   0.20187   0.59343   0.00000  Uiso   1.00
H660   H     0.06365   0.18650   0.95647   0.00000  Uiso   1.00
H661   H     0.14469   0.17479   0.88109   0.00000  Uiso   1.00
H662   H     0.17220   0.12797   0.89620   0.00000  Uiso   1.00
H663   H     0.10861   0.13146   0.90657   0.00000  Uiso   1.00
H664   H     0.11244   0.14635   0.61037   0.00000  Uiso   1.00
H665   H     0.22089   0.18699   0.88963   0.00000  Uiso   1.00
H666   H     0.30674   0.19330   0.60772   0.00000  Uiso   1.00
H667   H     0.02659   0.14003   0.89228   0.00000  Uiso   1.00
H668   H     0.33137   0.13248   0.97427   0.00000  Uiso   1.00
H669   H     0.00197   0.20085   0.52573   0.00000  Uiso   1.00
H670   H     0.25744   0.03727   0.75043   0.00000  Uiso   1.00
N671   N     0.11736   0.16668   0.74999   0.00000  Uiso   1.00
N672   N     0.21597   0.16666   0.75001   0.00000  Uiso   1.00
O673   O     0.03958   0.10655   0.75000   0.00000  Uiso   1.00
O674   O     0.29375   0.22678   0.75000   0.00000  Uiso   1.00
O675   O     0.29372   0.10654   0.75000   0.00000  Uiso   1.00
O676   O     0.03961   0.22679   0.75000   0.00000  Uiso   1.00
O677   O     0.01852   0.16668   0.81492   0.00000  Uiso   1.00
O678   O     0.31481   0.16666   0.68508   0.00000  Uiso   1.00
O679   O     0.27267   0.16667   0.81492   0.00000  Uiso   1.00
O680   O     0.06067   0.16667   0.68508   0.00000  Uiso   1.00
C681   C     0.66664   0.08736   0.75003   0.00000  Uiso   1.00
C682   C     0.37590   0.02130   0.74982   0.00000  Uiso   1.00
C683   C     0.33335   0.29059   0.74996   0.00000  Uiso   1.00
C684   C     0.66665   0.04274   0.75004   0.00000  Uiso   1.00
C685   C     0.51617   0.14279   0.77971   0.00000  Uiso   1.00
C686   C     0.48383   0.19054   0.72029   0.00000  Uiso   1.00
C687   C     0.46657   0.14285   0.77974   0.00000  Uiso   1.00
C688   C     0.53343   0.19048   0.72026   0.00000  Uiso   1.00
C689   C     0.63944   0.16614   0.83613   0.00000  Uiso   1.00
C690   C     0.36056   0.16719   0.66387   0.00000  Uiso   1.00
C691   C     0.62438   0.16247   0.88526   0.00000  Uiso   1.00
C692   C     0.33336   0.24597   0.74997   0.00000  Uiso   1.00
C693   C     0.37562   0.17086   0.61474   0.00000  Uiso   1.00
C694   C     0.63937   0.14232   0.95575   0.00000  Uiso   1.00
C695   C     0.36063   0.19101   0.54425   0.00000  Uiso   1.00
C696   C     0.65591   0.14739   0.90928   0.00000  Uiso   1.00
C697   C     0.34409   0.18594   0.59072   0.00000  Uiso   1.00
C698   C     0.57628   0.17140   0.90793   0.00000  Uiso   1.00
C699   C     0.42372   0.16193   0.59207   0.00000  Uiso   1.00
C700   C     0.55735   0.16171   0.95356   0.00000  Uiso   1.00
C701   C     0.44265   0.17163   0.54644   0.00000  Uiso   1.00
C702   C     0.59067   0.15059   0.97816   0.00000  Uiso   1.00
C703   C     0.52995   0.16547   0.54747   0.00000  Uiso   1.00
C704   C     0.40933   0.18275   0.52184   0.00000  Uiso   1.00
C705   C     0.50702   0.16567   0.97597   0.00000  Uiso   1.00
C706   C     0.49298   0.16767   0.52403   0.00000  Uiso   1.00
C707   C     0.52521   0.18349   0.59364   0.00000  Uiso   1.00
C708   C     0.47479   0.14984   0.90636   0.00000  Uiso   1.00
C709   C     0.47005   0.16786   0.95253   0.00000  Uiso   1.00
C710   C     0.57630   0.15178   0.52485   0.00000  Uiso   1.00
C711   C     0.42370   0.18155   0.97515   0.00000  Uiso   1.00
C712   C     0.62407   0.02127   0.75024   0.00000  Uiso   1.00
C713   C     0.37593   0.31206   0.74976   0.00000  Uiso   1.00
C714   C     0.62410   0.31204   0.75018   0.00000  Uiso   1.00
Cu715  Cu    0.38022   0.16667   0.75000   0.00000  Uiso   1.00
Cu716  Cu    0.61978   0.16666   0.75000   0.00000  Uiso   1.00
H717   H     0.60302   0.14683   0.54353   0.00000  Uiso   1.00
H718   H     0.40923   0.29606   0.74957   0.00000  Uiso   1.00
H719   H     0.59081   0.29602   0.75032   0.00000  Uiso   1.00
H720   H     0.40919   0.03731   0.74968   0.00000  Uiso   1.00
H721   H     0.52792   0.12357   0.80345   0.00000  Uiso   1.00
H722   H     0.47208   0.20976   0.69655   0.00000  Uiso   1.00
H723   H     0.44099   0.12376   0.80357   0.00000  Uiso   1.00
H724   H     0.55901   0.20957   0.69643   0.00000  Uiso   1.00
H725   H     0.49446   0.20536   0.60380   0.00000  Uiso   1.00
H726   H     0.52198   0.15855   0.61891   0.00000  Uiso   1.00
H727   H     0.55805   0.20187   0.59343   0.00000  Uiso   1.00
H728   H     0.39698   0.18650   0.95647   0.00000  Uiso   1.00
H729   H     0.47802   0.17479   0.88109   0.00000  Uiso   1.00
H730   H     0.50554   0.12797   0.89620   0.00000  Uiso   1.00
H731   H     0.44195   0.13146   0.90657   0.00000  Uiso   1.00
H732   H     0.44578   0.14635   0.61037   0.00000  Uiso   1.00
H733   H     0.55422   0.18699   0.88963   0.00000  Uiso   1.00
H734   H     0.64008   0.19330   0.60772   0.00000  Uiso   1.00
H735   H     0.35992   0.14003   0.89228   0.00000  Uiso   1.00
H736   H     0.66470   0.13248   0.97427   0.00000  Uiso   1.00
H737   H     0.33530   0.20085   0.52573   0.00000  Uiso   1.00
H738   H     0.59077   0.03727   0.75043   0.00000  Uiso   1.00
N739   N     0.45069   0.16668   0.74999   0.00000  Uiso   1.00
N740   N     0.54931   0.16666   0.75001   0.00000  Uiso   1.00
O741   O     0.37291   0.10655   0.75000   0.00000  Uiso   1.00
O742   O     0.62709   0.22678   0.75000   0.00000  Uiso   1.00
O743   O     0.62706   0.10654   0.75000   0.00000  Uiso   1.00
O744   O     0.37294   0.22679   0.75000   0.00000  Uiso   1.00
O745   O     0.35186   0.16668   0.81492   0.00000  Uiso   1.00
O746   O     0.64814   0.16666   0.68508   0.00000  Uiso   1.00
O747   O     0.60600   0.16667   0.81492   0.00000  Uiso   1.00
O748   O     0.39400   0.16667   0.68508   0.00000  Uiso   1.00
C749   C     0.99998   0.08736   0.75003   0.00000  Uiso   1.00
C750   C     0.70923   0.02130   0.74982   0.00000  Uiso   1.00
C751   C     0.66669   0.29059   0.74996   0.00000  Uiso   1.00
C752   C     0.99998   0.04274   0.75004   0.00000  Uiso   1.00
C753   C     0.84950   0.14279   0.77971   0.00000  Uiso   1.00
C754   C     0.81717   0.19054   0.72029   0.00000  Uiso   1.00
C755   C     0.79990   0.14285   0.77974   0.00000  Uiso   1.00
C756   C     0.86676   0.19048   0.72026   0.00000  Uiso   1.00
C757   C     0.97277   0.16614   0.83613   0.00000  Uiso   1.00
C758   C     0.69389   0.16719   0.66387   0.00000  Uiso   1.00
C759   C     0.95771   0.16247   0.88526   0.00000  Uiso   1.00
C760   C     0.66669   0.24597   0.74997   0.00000  Uiso   1.00
C761   C     0.70896   0.17086   0.61474   0.00000  Uiso   1.00
C762   C     0.97270   0.14232   0.95575   0.00000  Uiso   1.00
C763   C     0.69397   0.19101   0.54425   0.00000  Uiso   1.00
C764   C     0.98925   0.14739   0.90928   0.00000  Uiso   1.00
C765   C     0.67742   0.18594   0.59072   0.00000  Uiso   1.00
C766   C     0.90961   0.17140   0.90793   0.00000  Uiso   1.00
C767   C     0.75706   0.16193   0.59207   0.00000  Uiso   1.00
C768   C     0.89069   0.16171   0.95356   0.00000  Uiso   1.00
C769   C     0.77598   0.17163   0.54644   0.00000  Uiso   1.00
C770   C     0.92400   0.15059   0.97816   0.00000  Uiso   1.00
C771   C     0.86328   0.16547   0.54747   0.00000  Uiso   1.00
C772   C     0.74266   0.18275   0.52184   0.00000  Uiso   1.00
C773   C     0.84035   0.16567   0.97597   0.00000  Uiso   1.00
C774   C     0.82631   0.16767   0.52403   0.00000  Uiso   1.00
C775   C     0.85854   0.18349   0.59364   0.00000  Uiso   1.00
C776   C     0.80812   0.14984   0.90636   0.00000  Uiso   1.00
C777   C     0.80338   0.16786   0.95253   0.00000  Uiso   1.00
C778   C     0.90963   0.15178   0.52485   0.00000  Uiso   1.00
C779   C     0.75703   0.18155   0.97515   0.00000  Uiso   1.00
C780   C     0.95741   0.02127   0.75024   0.00000  Uiso   1.00
C781   C     0.70926   0.31206   0.74976   0.00000  Uiso   1.00
C782   C     0.95743   0.31204   0.75018   0.00000  Uiso   1.00
Cu783  Cu    0.71355   0.16667   0.75000   0.00000  Uiso   1.00
Cu784  Cu    0.95311   0.16666   0.75000   0.00000  Uiso   1.00
H785   H     0.93635   0.14683   0.54353   0.00000  Uiso   1.00
H786   H     0.74256   0.29606   0.74957   0.00000  Uiso   1.00
H787   H     0.92415   0.29602   0.75032   0.00000  Uiso   1.00
H788   H     0.74252   0.03731   0.74968   0.00000  Uiso   1.00
H789   H     0.86125   0.12357   0.80345   0.00000  Uiso   1.00
H790   H     0.80541   0.20976   0.69655   0.00000  Uiso   1.00
H791   H     0.77432   0.12376   0.80357   0.00000  Uiso   1.00
H792   H     0.89235   0.20957   0.69643   0.00000  Uiso   1.00
H793   H     0.82780   0.20536   0.60380   0.00000  Uiso   1.00
H794   H     0.85531   0.15855   0.61891   0.00000  Uiso   1.00
H795   H     0.89139   0.20187   0.59343   0.00000  Uiso   1.00
H796   H     0.73031   0.18650   0.95647   0.00000  Uiso   1.00
H797   H     0.81136   0.17479   0.88109   0.00000  Uiso   1.00
H798   H     0.83887   0.12797   0.89620   0.00000  Uiso   1.00
H799   H     0.77528   0.13146   0.90657   0.00000  Uiso   1.00
H800   H     0.77911   0.14635   0.61037   0.00000  Uiso   1.00
H801   H     0.88756   0.18699   0.88963   0.00000  Uiso   1.00
H802   H     0.97341   0.19330   0.60772   0.00000  Uiso   1.00
H803   H     0.69326   0.14003   0.89228   0.00000  Uiso   1.00
H804   H     0.99804   0.13248   0.97427   0.00000  Uiso   1.00
H805   H     0.66863   0.20085   0.52573   0.00000  Uiso   1.00
H806   H     0.92410   0.03727   0.75043   0.00000  Uiso   1.00
N807   N     0.78403   0.16668   0.74999   0.00000  Uiso   1.00
N808   N     0.88264   0.16666   0.75001   0.00000  Uiso   1.00
O809   O     0.70625   0.10655   0.75000   0.00000  Uiso   1.00
O810   O     0.96042   0.22678   0.75000   0.00000  Uiso   1.00
O811   O     0.96039   0.10654   0.75000   0.00000  Uiso   1.00
O812   O     0.70628   0.22679   0.75000   0.00000  Uiso   1.00
O813   O     0.68519   0.16668   0.81492   0.00000  Uiso   1.00
O814   O     0.98148   0.16666   0.68508   0.00000  Uiso   1.00
O815   O     0.93933   0.16667   0.81492   0.00000  Uiso   1.00
O816   O     0.72733   0.16667   0.68508   0.00000  Uiso   1.00
C817   C     0.33331   0.42070   0.75003   0.00000  Uiso   1.00
C818   C     0.04257   0.35463   0.74982   0.00000  Uiso   1.00
C819   C     0.00002   0.62392   0.74996   0.00000  Uiso   1.00
C820   C     0.33331   0.37608   0.75004   0.00000  Uiso   1.00
C821   C     0.18283   0.47613   0.77971   0.00000  Uiso   1.00
C822   C     0.15050   0.52387   0.72029   0.00000  Uiso   1.00
C823   C     0.13324   0.47619   0.77974   0.00000  Uiso   1.00
C824   C     0.20010   0.52381   0.72026   0.00000  Uiso   1.00
C825   C     0.30611   0.49947   0.83613   0.00000  Uiso   1.00
C826   C     0.02723   0.50053   0.66387   0.00000  Uiso   1.00
C827   C     0.29104   0.49581   0.88526   0.00000  Uiso   1.00
C828   C     0.00002   0.57930   0.74997   0.00000  Uiso   1.00
C829   C     0.04229   0.50419   0.61474   0.00000  Uiso   1.00
C830   C     0.30603   0.47565   0.95575   0.00000  Uiso   1.00
C831   C     0.02730   0.52435   0.54425   0.00000  Uiso   1.00
C832   C     0.32258   0.48073   0.90928   0.00000  Uiso   1.00
C833   C     0.01075   0.51927   0.59072   0.00000  Uiso   1.00
C834   C     0.24294   0.50474   0.90793   0.00000  Uiso   1.00
C835   C     0.09039   0.49526   0.59207   0.00000  Uiso   1.00
C836   C     0.22402   0.49504   0.95356   0.00000  Uiso   1.00
C837   C     0.10931   0.50496   0.54644   0.00000  Uiso   1.00
C838   C     0.25734   0.48392   0.97816   0.00000  Uiso   1.00
C839   C     0.19662   0.49881   0.54747   0.00000  Uiso   1.00
C840   C     0.07600   0.51608   0.52184   0.00000  Uiso   1.00
C841   C     0.17369   0.49900   0.97597   0.00000  Uiso   1.00
C842   C     0.15965   0.50100   0.52403   0.00000  Uiso   1.00
C843   C     0.19188   0.51683   0.59364   0.00000  Uiso   1.00
C844   C     0.14146   0.48317   0.90636   0.00000  Uiso   1.00
C845   C     0.13672   0.50119   0.95253   0.00000  Uiso   1.00
C846   C     0.24297   0.48511   0.52485   0.00000  Uiso   1.00
C847   C     0.09037   0.51489   0.97515   0.00000  Uiso   1.00
C848   C     0.29074   0.35461   0.75024   0.00000  Uiso   1.00
C849   C     0.04259   0.64539   0.74976   0.00000  Uiso   1.00
C850   C     0.29077   0.64537   0.75018   0.00000  Uiso   1.00
Cu851  Cu    0.04689   0.50001   0.75000   0.00000  Uiso   1.00
Cu852  Cu    0.28645   0.49999   0.75000   0.00000  Uiso   1.00
H853   H     0.26969   0.48017   0.54353   0.00000  Uiso   1.00
H854   H     0.07590   0.62940   0.74957   0.00000  Uiso   1.00
H855   H     0.25748   0.62935   0.75032   0.00000  Uiso   1.00
H856   H     0.07585   0.37065   0.74968   0.00000  Uiso   1.00
H857   H     0.19459   0.45691   0.80345   0.00000  Uiso   1.00
H858   H     0.13875   0.54309   0.69655   0.00000  Uiso   1.00
H859   H     0.10765   0.45709   0.80357   0.00000  Uiso   1.00
H860   H     0.22568   0.54290   0.69643   0.00000  Uiso   1.00
H861   H     0.16113   0.53870   0.60380   0.00000  Uiso   1.00
H862   H     0.18864   0.49188   0.61891   0.00000  Uiso   1.00
H863   H     0.22472   0.53520   0.59343   0.00000  Uiso   1.00
H864   H     0.06365   0.51983   0.95647   0.00000  Uiso   1.00
H865   H     0.14469   0.50812   0.88109   0.00000  Uiso   1.00
H866   H     0.17220   0.46130   0.89620   0.00000  Uiso   1.00
H867   H     0.10861   0.46479   0.90657   0.00000  Uiso   1.00
H868   H     0.11244   0.47968   0.61037   0.00000  Uiso   1.00
H869   H     0.22089   0.52032   0.88963   0.00000  Uiso   1.00
H870   H     0.30674   0.52663   0.60772   0.00000  Uiso   1.00
H871   H     0.02659   0.47337   0.89228   0.00000  Uiso   1.00
H872   H     0.33137   0.46582   0.97427   0.00000  Uiso   1.00
H873   H     0.00197   0.53418   0.52573   0.00000  Uiso   1.00
H874   H     0.25744   0.37060   0.75043   0.00000  Uiso   1.00
N875   N     0.11736   0.50001   0.74999   0.00000  Uiso   1.00
N876   N     0.21597   0.49999   0.75001   0.00000  Uiso   1.00
O877   O     0.03958   0.43989   0.75000   0.00000  Uiso   1.00
O878   O     0.29375   0.56011   0.75000   0.00000  Uiso   1.00
O879   O     0.29372   0.43988   0.75000   0.00000  Uiso   1.00
O880   O     0.03961   0.56012   0.75000   0.00000  Uiso   1.00
O881   O     0.01852   0.50001   0.81492   0.00000  Uiso   1.00
O882   O     0.31481   0.49999   0.68508   0.00000  Uiso   1.00
O883   O     0.27267   0.50000   0.81492   0.00000  Uiso   1.00
O884   O     0.06067   0.50000   0.68508   0.00000  Uiso   1.00
C885   C     0.66664   0.42070   0.75003   0.00000  Uiso   1.00
C886   C     0.37590   0.35463   0.74982   0.00000  Uiso   1.00
C887   C     0.33335   0.62392   0.74996   0.00000  Uiso   1.00
C888   C     0.66665   0.37608   0.75004   0.00000  Uiso   1.00
C889   C     0.51617   0.47613   0.77971   0.00000  Uiso   1.00
C890   C     0.48383   0.52387   0.72029   0.00000  Uiso   1.00
C891   C     0.46657   0.47619   0.77974   0.00000  Uiso   1.00
C892   C     0.53343   0.52381   0.72026   0.00000  Uiso   1.00
C893   C     0.63944   0.49947   0.83613   0.00000  Uiso   1.00
C894   C     0.36056   0.50053   0.66387   0.00000  Uiso   1.00
C895   C     0.62438   0.49581   0.88526   0.00000  Uiso   1.00
C896   C     0.33336   0.57930   0.74997   0.00000  Uiso   1.00
C897   C     0.37562   0.50419   0.61474   0.00000  Uiso   1.00
C898   C     0.63937   0.47565   0.95575   0.00000  Uiso   1.00
C899   C     0.36063   0.52435   0.54425   0.00000  Uiso   1.00
C900   C     0.65591   0.48073   0.90928   0.00000  Uiso   1.00
C901   C     0.34409   0.51927   0.59072   0.00000  Uiso   1.00
C902   C     0.57628   0.50474   0.90793   0.00000  Uiso   1.00
C903   C     0.42372   0.49526   0.59207   0.00000  Uiso   1.00
C904   C     0.55735   0.49504   0.95356   0.00000  Uiso   1.00
C905   C     0.44265   0.50496   0.54644   0.00000  Uiso   1.00
C906   C     0.59067   0.48392   0.97816   0.00000  Uiso   1.00
C907   C     0.52995   0.49881   0.54747   0.00000  Uiso   1.00
C908   C     0.40933   0.51608   0.52184   0.00000  Uiso   1.00
C909   C     0.50702   0.49900   0.97597   0.00000  Uiso   1.00
C910   C     0.49298   0.50100   0.52403   0.00000  Uiso   1.00
C911   C     0.52521   0.51683   0.59364   0.00000  Uiso   1.00
C912   C     0.47479   0.48317   0.90636   0.00000  Uiso   1.00
C913   C     0.47005   0.50119   0.95253   0.00000  Uiso   1.00
C914   C     0.57630   0.48511   0.52485   0.00000  Uiso   1.00
C915   C     0.42370   0.51489   0.97515   0.00000  Uiso   1.00
C916   C     0.62407   0.35461   0.75024   0.00000  Uiso   1.00
C917   C     0.37593   0.64539   0.74976   0.00000  Uiso   1.00
C918   C     0.62410   0.64537   0.75018   0.00000  Uiso   1.00
Cu919  Cu    0.38022   0.50001   0.75000   0.00000  Uiso   1.00
Cu920  Cu    0.61978   0.49999   0.75000   0.00000  Uiso   1.00
H921   H     0.60302   0.48017   0.54353   0.00000  Uiso   1.00
H922   H     0.40923   0.62940   0.74957   0.00000  Uiso   1.00
H923   H     0.59081   0.62935   0.75032   0.00000  Uiso   1.00
H924   H     0.40919   0.37065   0.74968   0.00000  Uiso   1.00
H925   H     0.52792   0.45691   0.80345   0.00000  Uiso   1.00
H926   H     0.47208   0.54309   0.69655   0.00000  Uiso   1.00
H927   H     0.44099   0.45709   0.80357   0.00000  Uiso   1.00
H928   H     0.55901   0.54290   0.69643   0.00000  Uiso   1.00
H929   H     0.49446   0.53870   0.60380   0.00000  Uiso   1.00
H930   H     0.52198   0.49188   0.61891   0.00000  Uiso   1.00
H931   H     0.55805   0.53520   0.59343   0.00000  Uiso   1.00
H932   H     0.39698   0.51983   0.95647   0.00000  Uiso   1.00
H933   H     0.47802   0.50812   0.88109   0.00000  Uiso   1.00
H934   H     0.50554   0.46130   0.89620   0.00000  Uiso   1.00
H935   H     0.44195   0.46479   0.90657   0.00000  Uiso   1.00
H936   H     0.44578   0.47968   0.61037   0.00000  Uiso   1.00
H937   H     0.55422   0.52032   0.88963   0.00000  Uiso   1.00
H938   H     0.64008   0.52663   0.60772   0.00000  Uiso   1.00
H939   H     0.35992   0.47337   0.89228   0.00000  Uiso   1.00
H940   H     0.66470   0.46582   0.97427   0.00000  Uiso   1.00
H941   H     0.33530   0.53418   0.52573   0.00000  Uiso   1.00
H942   H     0.59077   0.37060   0.75043   0.00000  Uiso   1.00
N943   N     0.45069   0.50001   0.74999   0.00000  Uiso   1.00
N944   N     0.54931   0.49999   0.75001   0.00000  Uiso   1.00
O945   O     0.37291   0.43989   0.75000   0.00000  Uiso   1.00
O946   O     0.62709   0.56011   0.75000   0.00000  Uiso   1.00
O947   O     0.62706   0.43988   0.75000   0.00000  Uiso   1.00
O948   O     0.37294   0.56012   0.75000   0.00000  Uiso   1.00
O949   O     0.35186   0.50001   0.81492   0.00000  Uiso   1.00
O950   O     0.64814   0.49999   0.68508   0.00000  Uiso   1.00
O951   O     0.60600   0.50000   0.81492   0.00000  Uiso   1.00
O952   O     0.39400   0.50000   0.68508   0.00000  Uiso   1.00
C953   C     0.99998   0.42070   0.75003   0.00000  Uiso   1.00
C954   C     0.70923   0.35463   0.74982   0.00000  Uiso   1.00
C955   C     0.66669   0.62392   0.74996   0.00000  Uiso   1.00
C956   C     0.99998   0.37608   0.75004   0.00000  Uiso   1.00
C957   C     0.84950   0.47613   0.77971   0.00000  Uiso   1.00
C958   C     0.81717   0.52387   0.72029   0.00000  Uiso   1.00
C959   C     0.79990   0.47619   0.77974   0.00000  Uiso   1.00
C960   C     0.86676   0.52381   0.72026   0.00000  Uiso   1.00
C961   C     0.97277   0.49947   0.83613   0.00000  Uiso   1.00
C962   C     0.69389   0.50053   0.66387   0.00000  Uiso   1.00
C963   C     0.95771   0.49581   0.88526   0.00000  Uiso   1.00
C964   C     0.66669   0.57930   0.74997   0.00000  Uiso   1.00
C965   C     0.70896   0.50419   0.61474   0.00000  Uiso   1.00
C966   C     0.97270   0.47565   0.95575   0.00000  Uiso   1.00
C967   C     0.69397   0.52435   0.54425   0.00000  Uiso   1.00
C968   C     0.98925   0.48073   0.90928   0.00000  Uiso   1.00
C969   C     0.67742   0.51927   0.59072   0.00000  Uiso   1.00
C970   C     0.90961   0.50474   0.90793   0.00000  Uiso   1.00
C971   C     0.75706   0.49526   0.59207   0.00000  Uiso   1.00
C972   C     0.89069   0.49504   0.95356   0.00000  Uiso   1.00
C973   C     0.77598   0.50496   0.54644   0.00000  Uiso   1.00
C974   C     0.92400   0.48392   0.97816   0.00000  Uiso   1.00
C975   C     0.86328   0.49881   0.54747   0.00000  Uiso   1.00
C976   C     0.74266   0.51608   0.52184   0.00000  Uiso   1.00
C977   C     0.84035   0.49900   0.97597   0.00000  Uiso   1.00
C978   C     0.82631   0.50100   0.52403   0.00000  Uiso   1.00
C979   C     0.85854   0.51683   0.59364   0.00000  Uiso   1.00
C980   C     0.80812   0.48317   0.90636   0.00000  Uiso   1.00
C981   C     0.80338   0.50119   0.95253   0.00000  Uiso   1.00
C982   C     0.90963   0.48511   0.52485   0.00000  Uiso   1.00
C983   C     0.75703   0.51489   0.97515   0.00000  Uiso   1.00
C984   C     0.95741   0.35461   0.75024   0.00000  Uiso   1.00
C985   C     0.70926   0.64539   0.74976   0.00000  Uiso   1.00
C986   C     0.95743   0.64537   0.75018   0.00000  Uiso   1.00
Cu987  Cu    0.71355   0.50001   0.75000   0.00000  Uiso   1.00
Cu988  Cu    0.95311   0.49999   0.75000   0.00000  Uiso   1.00
H989   H     0.93635   0.48017   0.54353   0.00000  Uiso   1.00
H990   H     0.74256   0.62940   0.74957   0.00000  Uiso   1.00
H991   H     0.92415   0.62935   0.75032   0.00000  Uiso   1.00
H992   H     0.74252   0.37065   0.74968   0.00000  Uiso   1.00
H993   H     0.86125   0.45691   0.80345   0.00000  Uiso   1.00
H994   H     0.80541   0.54309   0.69655   0.00000  Uiso   1.00
H995   H     0.77432   0.45709   0.80357   0.00000  Uiso   1.00
H996   H     0.89235   0.54290   0.69643   0.00000  Uiso   1.00
H997   H     0.82780   0.53870   0.60380   0.00000  Uiso   1.00
H998   H     0.85531   0.49188   0.61891   0.00000  Uiso   1.00
H999   H     0.89139   0.53520   0.59343   0.00000  Uiso   1.00
H1000  H     0.73031   0.51983   0.95647   0.00000  Uiso   1.00
H1001  H     0.81136   0.50812   0.88109   0.00000  Uiso   1.00
H1002  H     0.83887   0.46130   0.89620   0.00000  Uiso   1.00
H1003  H     0.77528   0.46479   0.90657   0.00000  Uiso   1.00
H1004  H     0.77911   0.47968   0.61037   0.00000  Uiso   1.00
H1005  H     0.88756   0.52032   0.88963   0.00000  Uiso   1.00
H1006  H     0.97341   0.52663   0.60772   0.00000  Uiso   1.00
H1007  H     0.69326   0.47337   0.89228   0.00000  Uiso   1.00
H1008  H     0.99804   0.46582   0.97427   0.00000  Uiso   1.00
H1009  H     0.66863   0.53418   0.52573   0.00000  Uiso   1.00
H1010  H     0.92410   0.37060   0.75043   0.00000  Uiso   1.00
N1011  N     0.78403   0.50001   0.74999   0.00000  Uiso   1.00
N1012  N     0.88264   0.49999   0.75001   0.00000  Uiso   1.00
O1013  O     0.70625   0.43989   0.75000   0.00000  Uiso   1.00
O1014  O     0.96042   0.56011   0.75000   0.00000  Uiso   1.00
O1015  O     0.96039   0.43988   0.75000   0.00000  Uiso   1.00
O1016  O     0.70628   0.56012   0.75000   0.00000  Uiso   1.00
O1017  O     0.68519   0.50001   0.81492   0.00000  Uiso   1.00
O1018  O     0.98148   0.49999   0.68508   0.00000  Uiso   1.00
O1019  O     0.93933   0.50000   0.81492   0.00000  Uiso   1.00
O1020  O     0.72733   0.50000   0.68508   0.00000  Uiso   1.00
C1021  C     0.33331   0.75403   0.75003   0.00000  Uiso   1.00
C1022  C     0.04257   0.68796   0.74982   0.00000  Uiso   1.00
C1023  C     0.00002   0.95726   0.74996   0.00000  Uiso   1.00
C1024  C     0.33331   0.70941   0.75004   0.00000  Uiso   1.00
C1025  C     0.18283   0.80946   0.77971   0.00000  Uiso   1.00
C1026  C     0.15050   0.85721   0.72029   0.00000  Uiso   1.00
C1027  C     0.13324   0.80952   0.77974   0.00000  Uiso   1.00
C1028  C     0.20010   0.85715   0.72026   0.00000  Uiso   1.00
C1029  C     0.30611   0.83281   0.83613   0.00000  Uiso   1.00
C1030  C     0.02723   0.83386   0.66387   0.00000  Uiso   1.00
C1031  C     0.29104   0.82914   0.88526   0.00000  Uiso   1.00
C1032  C     0.00002   0.91264   0.74997   0.00000  Uiso   1.00
C1033  C     0.04229   0.83753   0.61474   0.00000  Uiso   1.00
C1034  C     0.30603   0.80899   0.95575   0.00000  Uiso   1.00
C1035  C     0.02730   0.85768   0.54425   0.00000  Uiso   1.00
C1036  C     0.32258   0.81406   0.90928   0.00000  Uiso   1.00
C1037  C     0.01075   0.85261   0.59072   0.00000  Uiso   1.00
C1038  C     0.24294   0.83807   0.90793   0.00000  Uiso   1.00
C1039  C     0.09039   0.82860   0.59207   0.00000  Uiso   1.00
C1040  C     0.22402   0.82837   0.95356   0.00000  Uiso   1.00
C1041  C     0.10931   0.83829   0.54644   0.00000  Uiso   1.00
C1042  C     0.25734   0.81725   0.97816   0.00000  Uiso   1.00
C1043  C     0.19662   0.83214   0.54747   0.00000  Uiso   1.00
C1044  C     0.07600   0.84941   0.52184   0.00000  Uiso   1.00
C1045  C     0.17369   0.83233   0.97597   0.00000  Uiso   1.00
C1046  C     0.15965   0.83433   0.52403   0.00000  Uiso   1.00
C1047  C     0.19188   0.85016   0.59364   0.00000  Uiso   1.00
C1048  C     0.14146   0.81651   0.90636   0.00000  Uiso   1.00
C1049  C     0.13672   0.83453   0.95253   0.00000  Uiso   1.00
C1050  C     0.24297   0.81845   0.52485   0.00000  Uiso   1.00
C1051  C     0.09037   0.84822   0.97515   0.00000  Uiso   1.00
C1052  C     0.29074   0.68794   0.75024   0.00000  Uiso   1.00
C1053  C     0.04259   0.97873   0.74976   0.00000  Uiso   1.00
C1054  C     0.29077   0.97870   0.75018   0.00000  Uiso   1.00
Cu1055 Cu    0.04689   0.83334   0.75000   0.00000  Uiso   1.00
Cu1056 Cu    0.28645   0.83333   0.75000   0.00000  Uiso   1.00
H1057  H     0.26969   0.81350   0.54353   0.00000  Uiso   1.00
H1058  H     0.07590   0.96273   0.74957   0.00000  Uiso   1.00
H1059  H     0.25748   0.96269   0.75032   0.00000  Uiso   1.00
H1060  H     0.07585   0.70398   0.74968   0.00000  Uiso   1.00
H1061  H     0.19459   0.79024   0.80345   0.00000  Uiso   1.00
H1062  H     0.13875   0.87643   0.69655   0.00000  Uiso   1.00
H1063  H     0.10765   0.79043   0.80357   0.00000  Uiso   1.00
H1064  H     0.22568   0.87624   0.69643   0.00000  Uiso   1.00
H1065  H     0.16113   0.87203   0.60380   0.00000  Uiso   1.00
H1066  H     0.18864   0.82521   0.61891   0.00000  Uiso   1.00
H1067  H     0.22472   0.86854   0.59343   0.00000  Uiso   1.00
H1068  H     0.06365   0.85317   0.95647   0.00000  Uiso   1.00
H1069  H     0.14469   0.84145   0.88109   0.00000  Uiso   1.00
H1070  H     0.17220   0.79464   0.89620   0.00000  Uiso   1.00
H1071  H     0.10861   0.79813   0.90657   0.00000  Uiso   1.00
H1072  H     0.11244   0.81301   0.61037   0.00000  Uiso   1.00
H1073  H     0.22089   0.85365   0.88963   0.00000  Uiso   1.00
H1074  H     0.30674   0.85997   0.60772   0.00000  Uiso   1.00
H1075  H     0.02659   0.80670   0.89228   0.00000  Uiso   1.00
H1076  H     0.33137   0.79915   0.97427   0.00000  Uiso   1.00
H1077  H     0.00197   0.86752   0.52573   0.00000  Uiso   1.00
H1078  H     0.25744   0.70394   0.75043   0.00000  Uiso   1.00
N1079  N     0.11736   0.83334   0.74999   0.00000  Uiso   1.00
N1080  N     0.21597   0.83332   0.75001   0.00000  Uiso   1.00
O1081  O     0.03958   0.77322   0.75000   0.00000  Uiso   1.00
O1082  O     0.29375   0.89345   0.75000   0.00000  Uiso   1.00
O1083  O     0.29372   0.77321   0.75000   0.00000  Uiso   1.00
O1084  O     0.03961   0.89346   0.75000   0.00000  Uiso   1.00
O1085  O     0.01852   0.83334   0.81492   0.00000  Uiso   1.00
O1086  O     0.31481   0.83332   0.68508   0.00000  Uiso   1.00
O1087  O     0.27267   0.83333   0.81492   0.00000  Uiso   1.00
O1088  O     0.06067   0.83333   0.68508   0.00000  Uiso   1.00
C1089  C     0.66664   0.75403   0.75003   0.00000  Uiso   1.00
C1090  C     0.37590   0.68796   0.74982   0.00000  Uiso   1.00
C1091  C     0.33335   0.95726   0.74996   0.00000  Uiso   1.00
C1092  C     0.66665   0.70941   0.75004   0.00000  Uiso   1.00
C1093  C     0.51617   0.80946   0.77971   0.00000  Uiso   1.00
C1094  C     0.48383   0.85721   0.72029   0.00000  Uiso   1.00
C1095  C     0.46657   0.80952   0.77974   0.00000  Uiso   1.00
C1096  C     0.53343   0.85715   0.72026   0.00000  Uiso   1.00
C1097  C     0.63944   0.83281   0.83613   0.00000  Uiso   1.00
C1098  C     0.36056   0.83386   0.66387   0.00000  Uiso   1.00
C1099  C     0.62438   0.82914   0.88526   0.00000  Uiso   1.00
C1100  C     0.33336   0.91264   0.74997   0.00000  Uiso   1.00
C1101  C     0.37562   0.83753   0.61474   0.00000  Uiso   1.00
C1102  C     0.63937   0.80899   0.95575   0.00000  Uiso   1.00
C1103  C     0.36063   0.85768   0.54425   0.00000  Uiso   1.00
C1104  C     0.65591   0.81406   0.90928   0.00000  Uiso   1.00
C1105  C     0.34409   0.85261   0.59072   0.00000  Uiso   1.00
C1106  C     0.57628   0.83807   0.90793   0.00000  Uiso   1.00
C1107  C     0.42372   0.82860   0.59207   0.00000  Uiso   1.00
C1108  C     0.55735   0.82837   0.95356   0.00000  Uiso   1.00
C1109  C     0.44265   0.83829   0.54644   0.00000  Uiso   1.00
C1110  C     0.59067   0.81725   0.97816   0.00000  Uiso   1.00
C1111  C     0.52995   0.83214   0.54747   0.00000  Uiso   1.00
C1112  C     0.40933   0.84941   0.52184   0.00000  Uiso   1.00
C1113  C     0.50702   0.83233   0.97597   0.00000  Uiso   1.00
C1114  C     0.49298   0.83433   0.52403   0.00000  Uiso   1.00
C1115  C     0.52521   0.85016   0.59364   0.00000  Uiso   1.00
C1116  C     0.47479   0.81651   0.90636   0.00000  Uiso   1.00
C1117  C     0.47005   0.83453   0.95253   0.00000  Uiso   1.00
C1118  C     0.57630   0.81845   0.52485   0.00000  Uiso   1.00
C1119  C     0.42370   0.84822   0.97515   0.00000  Uiso   1.00
C1120  C     0.62407   0.68794   0.75024   0.00000  Uiso   1.00
C1121  C     0.37593   0.97873   0.74976   0.00000  Uiso   1.00
C1122  C     0.62410   0.97870   0.75018   0.00000  Uiso   1.00
Cu1123 Cu    0.38022   0.83334   0.75000   0.00000  Uiso   1.00
Cu1124 Cu    0.61978   0.83333   0.75000   0.00000  Uiso   1.00
H1125  H     0.60302   0.81350   0.54353   0.00000  Uiso   1.00
H1126  H     0.40923   0.96273   0.74957   0.00000  Uiso   1.00
H1127  H     0.59081   0.96269   0.75032   0.00000  Uiso   1.00
H1128  H     0.40919   0.70398   0.74968   0.00000  Uiso   1.00
H1129  H     0.52792   0.79024   0.80345   0.00000  Uiso   1.00
H1130  H     0.47208   0.87643   0.69655   0.00000  Uiso   1.00
H1131  H     0.44099   0.79043   0.80357   0.00000  Uiso   1.00
H1132  H     0.55901   0.87624   0.69643   0.00000  Uiso   1.00
H1133  H     0.49446   0.87203   0.60380   0.00000  Uiso   1.00
H1134  H     0.52198   0.82521   0.61891   0.00000  Uiso   1.00
H1135  H     0.55805   0.86854   0.59343   0.00000  Uiso   1.00
H1136  H     0.39698   0.85317   0.95647   0.00000  Uiso   1.00
H1137  H     0.47802   0.84145   0.88109   0.00000  Uiso   1.00
H1138  H     0.50554   0.79464   0.89620   0.00000  Uiso   1.00
H1139  H     0.44195   0.79813   0.90657   0.00000  Uiso   1.00
H1140  H     0.44578   0.81301   0.61037   0.00000  Uiso   1.00
H1141  H     0.55422   0.85365   0.88963   0.00000  Uiso   1.00
H1142  H     0.64008   0.85997   0.60772   0.00000  Uiso   1.00
H1143  H     0.35992   0.80670   0.89228   0.00000  Uiso   1.00
H1144  H     0.66470   0.79915   0.97427   0.00000  Uiso   1.00
H1145  H     0.33530   0.86752   0.52573   0.00000  Uiso   1.00
H1146  H     0.59077   0.70394   0.75043   0.00000  Uiso   1.00
N1147  N     0.45069   0.83334   0.74999   0.00000  Uiso   1.00
N1148  N     0.54931   0.83332   0.75001   0.00000  Uiso   1.00
O1149  O     0.37291   0.77322   0.75000   0.00000  Uiso   1.00
O1150  O     0.62709   0.89345   0.75000   0.00000  Uiso   1.00
O1151  O     0.62706   0.77321   0.75000   0.00000  Uiso   1.00
O1152  O     0.37294   0.89346   0.75000   0.00000  Uiso   1.00
O1153  O     0.35186   0.83334   0.81492   0.00000  Uiso   1.00
O1154  O     0.64814   0.83332   0.68508   0.00000  Uiso   1.00
O1155  O     0.60600   0.83333   0.81492   0.00000  Uiso   1.00
O1156  O     0.39400   0.83333   0.68508   0.00000  Uiso   1.00
C1157  C     0.99998   0.75403   0.75003   0.00000  Uiso   1.00
C1158  C     0.70923   0.68796   0.74982   0.00000  Uiso   1.00
C1159  C     0.66669   0.95726   0.74996   0.00000  Uiso   1.00
C1160  C     0.99998   0.70941   0.75004   0.00000  Uiso   1.00
C1161  C     0.84950   0.80946   0.77971   0.00000  Uiso   1.00
C1162  C     0.81717   0.85721   0.72029   0.00000  Uiso   1.00
C1163  C     0.79990   0.80952   0.77974   0.00000  Uiso   1.00
C1164  C     0.86676   0.85715   0.72026   0.00000  Uiso   1.00
C1165  C     0.97277   0.83281   0.83613   0.00000  Uiso   1.00
C1166  C     0.69389   0.83386   0.66387   0.00000  Uiso   1.00
C1167  C     0.95771   0.82914   0.88526   0.00000  Uiso   1.00
C1168  C     0.66669   0.91264   0.74997   0.00000  Uiso   1.00
C1169  C     0.70896   0.83753   0.61474   0.00000  Uiso   1.00
C1170  C     0.97270   0.80899   0.95575   0.00000  Uiso   1.00
C1171  C     0.69397   0.85768   0.54425   0.00000  Uiso   1.00
C1172  C     0.98925   0.81406   0.90928   0.00000  Uiso   1.00
C1173  C     0.67742   0.85261   0.59072   0.00000  Uiso   1.00
C1174  C     0.90961   0.83807   0.90793   0.00000  Uiso   1.00
C1175  C     0.75706   0.82860   0.59207   0.00000  Uiso   1.00
C1176  C     0.89069   0.82837   0.95356   0.00000  Uiso   1.00
C1177  C     0.77598   0.83829   0.54644   0.00000  Uiso   1.00
C1178  C     0.92400   0.81725   0.97816   0.00000  Uiso   1.00
C1179  C     0.86328   0.83214   0.54747   0.00000  Uiso   1.00
C1180  C     0.74266   0.84941   0.52184   0.00000  Uiso   1.00
C1181  C     0.84035   0.83233   0.97597   0.00000  Uiso   1.00
C1182  C     0.82631   0.83433   0.52403   0.00000  Uiso   1.00
C1183  C     0.85854   0.85016   0.59364   0.00000  Uiso   1.00
C1184  C     0.80812   0.81651   0.90636   0.00000  Uiso   1.00
C1185  C     0.80338   0.83453   0.95253   0.00000  Uiso   1.00
C1186  C     0.90963   0.81845   0.52485   0.00000  Uiso   1.00
C1187  C     0.75703   0.84822   0.97515   0.00000  Uiso   1.00
C1188  C     0.95741   0.68794   0.75024   0.00000  Uiso   1.00
C1189  C     0.70926   0.97873   0.74976   0.00000  Uiso   1.00
C1190  C     0.95743   0.97870   0.75018   0.00000  Uiso   1.00
Cu1191 Cu    0.71355   0.83334   0.75000   0.00000  Uiso   1.00
Cu1192 Cu    0.95311   0.83333   0.75000   0.00000  Uiso   1.00
H1193  H     0.93635   0.81350   0.54353   0.00000  Uiso   1.00
H1194  H     0.74256   0.96273   0.74957   0.00000  Uiso   1.00
H1195  H     0.92415   0.96269   0.75032   0.00000  Uiso   1.00
H1196  H     0.74252   0.70398   0.74968   0.00000  Uiso   1.00
H1197  H     0.86125   0.79024   0.80345   0.00000  Uiso   1.00
H1198  H     0.80541   0.87643   0.69655   0.00000  Uiso   1.00
H1199  H     0.77432   0.79043   0.80357   0.00000  Uiso   1.00
H1200  H     0.89235   0.87624   0.69643   0.00000  Uiso   1.00
H1201  H     0.82780   0.87203   0.60380   0.00000  Uiso   1.00
H1202  H     0.85531   0.82521   0.61891   0.00000  Uiso   1.00
H1203  H     0.89139   0.86854   0.59343   0.00000  Uiso   1.00
H1204  H     0.73031   0.85317   0.95647   0.00000  Uiso   1.00
H1205  H     0.81136   0.84145   0.88109   0.00000  Uiso   1.00
H1206  H     0.83887   0.79464   0.89620   0.00000  Uiso   1.00
H1207  H     0.77528   0.79813   0.90657   0.00000  Uiso   1.00
H1208  H     0.77911   0.81301   0.61037   0.00000  Uiso   1.00
H1209  H     0.88756   0.85365   0.88963   0.00000  Uiso   1.00
H1210  H     0.97341   0.85997   0.60772   0.00000  Uiso   1.00
H1211  H     0.69326   0.80670   0.89228   0.00000  Uiso   1.00
H1212  H     0.99804   0.79915   0.97427   0.00000  Uiso   1.00
H1213  H     0.66863   0.86752   0.52573   0.00000  Uiso   1.00
H1214  H     0.92410   0.70394   0.75043   0.00000  Uiso   1.00
N1215  N     0.78403   0.83334   0.74999   0.00000  Uiso   1.00
N1216  N     0.88264   0.83332   0.75001   0.00000  Uiso   1.00
O1217  O     0.70625   0.77322   0.75000   0.00000  Uiso   1.00
O1218  O     0.96042   0.89345   0.75000   0.00000  Uiso   1.00
O1219  O     0.96039   0.77321   0.75000   0.00000  Uiso   1.00
O1220  O     0.70628   0.89346   0.75000   0.00000  Uiso   1.00
O1221  O     0.68519   0.83334   0.81492   0.00000  Uiso   1.00
O1222  O     0.98148   0.83332   0.68508   0.00000  Uiso   1.00
O1223  O     0.93933   0.83333   0.81492   0.00000  Uiso   1.00
O1224  O     0.72733   0.83333   0.68508   0.00000  Uiso   1.00
loop_
_geom_bond_atom_site_label_1
_geom_bond_atom_site_label_2
_geom_bond_distance
_geom_bond_site_symmetry_2
_ccdc_geom_bond_type
C1     C4      1.450   .     S
C1     O63     1.292   .     A
C1     O129    1.292   .     S
C2     H40     1.083   .     S
C2     C140    1.401   1_455 S
C2     C441    1.384   1_545 S
C3     C33     1.401   .     A
C3     C12     1.450   .     S
C3     C170    1.401   1_455 S
C4     C32     1.401   .     A
C4     C70     1.401   .     S
C5     N60     1.368   .     A
C5     C7      1.417   .     A
C5     H41     1.082   .     S
C6     C8      1.417   .     A
C6     H42     1.082   .     S
C6     N59     1.368   .     A
C7     N59     1.367   .     A
C7     H43     1.082   .     S
C8     N60     1.367   .     A
C8     H44     1.082   .     S
C9     O67     1.295   .     A
C9     C11     1.465   .     S
C9     O133    1.296   .     S
C10    O68     1.295   .     A
C10    C13     1.465   .     S
C10    O202    1.296   1_455 S
C11    C18     1.396   .     A
C11    C16     1.399   .     A
C12    O64     1.292   .     A
C12    O198    1.292   1_455 S
C13    C17     1.399   .     A
C13    C19     1.396   .     A
C14    H56     1.084   .     S
C14    C22     1.404   .     A
C14    C16     1.394   .     A
C15    C24     1.404   .     A
C15    H57     1.084   .     S
C15    C17     1.394   .     A
C16    H123    1.083   .     S
C17    H190    1.083   1_455 S
C18    C20     1.402   .     A
C18    H53     1.078   .     S
C19    H52     1.078   .     S
C19    C21     1.402   .     A
C20    C22     1.414   .     A
C20    C25     1.425   .     A
C21    C26     1.425   .     A
C21    C24     1.414   .     A
C22    C642    1.389   .     S
C23    C27     1.513   .     S
C23    C30     1.395   .     A
C23    C26     1.433   .     A
C24    C643    1.389   1_554 S
C25    C29     1.433   .     A
C25    C638    1.430   .     S
C26    C637    1.430   1_554 S
C27    H45     1.109   .     S
C27    H46     1.110   .     S
C27    H47     1.111   .     S
C28    C29     1.513   .     S
C28    H51     1.111   .     S
C28    H50     1.109   .     S
C28    H49     1.110   .     S
C29    C31     1.395   .     A
C30    H37     1.085   .     S
C30    C634    1.389   1_554 S
C31    H48     1.085   .     S
C31    C636    1.389   .     S
C32    H58     1.083   .     S
C32    C442    1.384   1_545 S
C33    H38     1.083   .     S
C33    C206    1.384   .     S
C34    H39     1.083   .     S
C34    C71     1.401   .     S
C34    C236    1.384   .     S
Cu35   O64     1.965   .     S
Cu35   O61     1.965   .     S
Cu35   O68     1.935   .     S
Cu35   N59     2.014   .     S
Cu35   O65     1.949   .     S
Cu35   Cu172   2.680   1_455 S
Cu36   O63     1.965   .     S
Cu36   O67     1.935   .     S
Cu36   O62     1.965   .     S
Cu36   O66     1.949   .     S
Cu36   N60     2.014   .     S
Cu36   Cu103   2.680   .     S
H54    C85     1.083   .     S
H55    C152    1.083   1_455 S
O61    C137    1.292   1_455 S
O62    C80     1.292   .     S
O65    C145    1.296   1_455 S
O66    C78     1.296   .     S
C69    C72     1.450   .     S
C69    O131    1.292   .     A
C69    O197    1.292   .     S
C70    H108    1.083   .     S
C70    C509    1.384   1_545 S
C71    C101    1.401   .     A
C71    C80     1.450   .     S
C72    C100    1.401   .     A
C72    C138    1.401   .     S
C73    N128    1.368   .     A
C73    C75     1.417   .     A
C73    H109    1.082   .     S
C74    C76     1.417   .     A
C74    H110    1.082   .     S
C74    N127    1.368   .     A
C75    N127    1.367   .     A
C75    H111    1.082   .     S
C76    N128    1.367   .     A
C76    H112    1.082   .     S
C77    O135    1.295   .     A
C77    C79     1.465   .     S
C77    O201    1.296   .     S
C78    O136    1.295   .     A
C78    C81     1.465   .     S
C79    C86     1.396   .     A
C79    C84     1.399   .     A
C80    O132    1.292   .     A
C81    C85     1.399   .     A
C81    C87     1.396   .     A
C82    H124    1.084   .     S
C82    C90     1.404   .     A
C82    C84     1.394   .     A
C83    C92     1.404   .     A
C83    H125    1.084   .     S
C83    C85     1.394   .     A
C84    H191    1.083   .     S
C86    C88     1.402   .     A
C86    H121    1.078   .     S
C87    H120    1.078   .     S
C87    C89     1.402   .     A
C88    C90     1.414   .     A
C88    C93     1.425   .     A
C89    C94     1.425   .     A
C89    C92     1.414   .     A
C90    C710    1.389   .     S
C91    C95     1.513   .     S
C91    C98     1.395   .     A
C91    C94     1.433   .     A
C92    C711    1.389   1_554 S
C93    C97     1.433   .     A
C93    C706    1.430   .     S
C94    C705    1.430   1_554 S
C95    H113    1.109   .     S
C95    H114    1.110   .     S
C95    H115    1.111   .     S
C96    C97     1.513   .     S
C96    H119    1.111   .     S
C96    H118    1.109   .     S
C96    H117    1.110   .     S
C97    C99     1.395   .     A
C98    H105    1.085   .     S
C98    C702    1.389   1_554 S
C99    H116    1.085   .     S
C99    C704    1.389   .     S
C100   H126    1.083   .     S
C100   C510    1.384   1_545 S
C101   H106    1.083   .     S
C101   C274    1.384   .     S
C102   H107    1.083   .     S
C102   C139    1.401   .     S
C102   C304    1.384   .     S
Cu103  O132    1.965   .     S
Cu103  O129    1.965   .     S
Cu103  O136    1.935   .     S
Cu103  N127    2.014   .     S
Cu103  O133    1.949   .     S
Cu104  O131    1.965   .     S
Cu104  O135    1.935   .     S
Cu104  O130    1.965   .     S
Cu104  O134    1.949   .     S
Cu104  N128    2.014   .     S
Cu104  Cu171   2.680   .     S
H122   C153    1.083   .     S
O130   C148    1.292   .     S
O134   C146    1.296   .     S
C137   C140    1.450   .     S
C137   O199    1.292   .     A
C137   O61     1.292   1_655 S
C138   H176    1.083   .     S
C138   C577    1.384   1_545 S
C139   C169    1.401   .     A
C139   C148    1.450   .     S
C140   C168    1.401   .     A
C140   C2      1.401   1_655 S
C141   N196    1.368   .     A
C141   C143    1.417   .     A
C141   H177    1.082   .     S
C142   C144    1.417   .     A
C142   H178    1.082   .     S
C142   N195    1.368   .     A
C143   N195    1.367   .     A
C143   H179    1.082   .     S
C144   N196    1.367   .     A
C144   H180    1.082   .     S
C145   O203    1.295   .     A
C145   C147    1.465   .     S
C145   O65     1.296   1_655 S
C146   O204    1.295   .     A
C146   C149    1.465   .     S
C147   C154    1.396   .     A
C147   C152    1.399   .     A
C148   O200    1.292   .     A
C149   C153    1.399   .     A
C149   C155    1.396   .     A
C150   H192    1.084   .     S
C150   C158    1.404   .     A
C150   C152    1.394   .     A
C151   C160    1.404   .     A
C151   H193    1.084   .     S
C151   C153    1.394   .     A
C152   H55     1.083   1_655 S
C154   C156    1.402   .     A
C154   H189    1.078   .     S
C155   H188    1.078   .     S
C155   C157    1.402   .     A
C156   C158    1.414   .     A
C156   C161    1.425   .     A
C157   C162    1.425   .     A
C157   C160    1.414   .     A
C158   C778    1.389   .     S
C159   C163    1.513   .     S
C159   C166    1.395   .     A
C159   C162    1.433   .     A
C160   C779    1.389   1_554 S
C161   C165    1.433   .     A
C161   C774    1.430   .     S
C162   C773    1.430   1_554 S
C163   H181    1.109   .     S
C163   H182    1.110   .     S
C163   H183    1.111   .     S
C164   C165    1.513   .     S
C164   H187    1.111   .     S
C164   H186    1.109   .     S
C164   H185    1.110   .     S
C165   C167    1.395   .     A
C166   H173    1.085   .     S
C166   C770    1.389   1_554 S
C167   H184    1.085   .     S
C167   C772    1.389   .     S
C168   H194    1.083   .     S
C168   C578    1.384   1_545 S
C169   H174    1.083   .     S
C169   C342    1.384   .     S
C170   H175    1.083   .     S
C170   C3      1.401   1_655 S
C170   C372    1.384   .     S
Cu171  O200    1.965   .     S
Cu171  O197    1.965   .     S
Cu171  O204    1.935   .     S
Cu171  N195    2.014   .     S
Cu171  O201    1.949   .     S
Cu172  O199    1.965   .     S
Cu172  O203    1.935   .     S
Cu172  O198    1.965   .     S
Cu172  O202    1.949   .     S
Cu172  N196    2.014   .     S
Cu172  Cu35    2.680   1_655 S
H190   C17     1.083   1_655 S
O198   C12     1.292   1_655 S
O202   C10     1.296   1_655 S
C205   C208    1.450   .     S
C205   O267    1.292   .     A
C205   O333    1.292   .     S
C206   H244    1.083   .     S
C206   C344    1.401   1_455 S
C207   C237    1.401   .     A
C207   C216    1.450   .     S
C207   C374    1.401   1_455 S
C208   C236    1.401   .     A
C208   C274    1.401   .     S
C209   N264    1.368   .     A
C209   C211    1.417   .     A
C209   H245    1.082   .     S
C210   C212    1.417   .     A
C210   H246    1.082   .     S
C210   N263    1.368   .     A
C211   N263    1.367   .     A
C211   H247    1.082   .     S
C212   N264    1.367   .     A
C212   H248    1.082   .     S
C213   O271    1.295   .     A
C213   C215    1.465   .     S
C213   O337    1.296   .     S
C214   O272    1.295   .     A
C214   C217    1.465   .     S
C214   O406    1.296   1_455 S
C215   C222    1.396   .     A
C215   C220    1.399   .     A
C216   O268    1.292   .     A
C216   O402    1.292   1_455 S
C217   C221    1.399   .     A
C217   C223    1.396   .     A
C218   H260    1.084   .     S
C218   C226    1.404   .     A
C218   C220    1.394   .     A
C219   C228    1.404   .     A
C219   H261    1.084   .     S
C219   C221    1.394   .     A
C220   H327    1.083   .     S
C221   H394    1.083   1_455 S
C222   C224    1.402   .     A
C222   H257    1.078   .     S
C223   H256    1.078   .     S
C223   C225    1.402   .     A
C224   C226    1.414   .     A
C224   C229    1.425   .     A
C225   C230    1.425   .     A
C225   C228    1.414   .     A
C226   C846    1.389   .     S
C227   C231    1.513   .     S
C227   C234    1.395   .     A
C227   C230    1.433   .     A
C228   C847    1.389   1_554 S
C229   C233    1.433   .     A
C229   C842    1.430   .     S
C230   C841    1.430   1_554 S
C231   H249    1.109   .     S
C231   H250    1.110   .     S
C231   H251    1.111   .     S
C232   C233    1.513   .     S
C232   H255    1.111   .     S
C232   H254    1.109   .     S
C232   H253    1.110   .     S
C233   C235    1.395   .     A
C234   H241    1.085   .     S
C234   C838    1.389   1_554 S
C235   H252    1.085   .     S
C235   C840    1.389   .     S
C236   H262    1.083   .     S
C237   H242    1.083   .     S
C237   C410    1.384   .     S
C238   H243    1.083   .     S
C238   C275    1.401   .     S
C238   C440    1.384   .     S
Cu239  O268    1.965   .     S
Cu239  O265    1.965   .     S
Cu239  O272    1.935   .     S
Cu239  N263    2.014   .     S
Cu239  O269    1.949   .     S
Cu239  Cu376   2.680   1_455 S
Cu240  O267    1.965   .     S
Cu240  O271    1.935   .     S
Cu240  O266    1.965   .     S
Cu240  O270    1.949   .     S
Cu240  N264    2.014   .     S
Cu240  Cu307   2.680   .     S
H258   C289    1.083   .     S
H259   C356    1.083   1_455 S
O265   C341    1.292   1_455 S
O266   C284    1.292   .     S
O269   C349    1.296   1_455 S
O270   C282    1.296   .     S
C273   C276    1.450   .     S
C273   O335    1.292   .     A
C273   O401    1.292   .     S
C274   H312    1.083   .     S
C275   C305    1.401   .     A
C275   C284    1.450   .     S
C276   C304    1.401   .     A
C276   C342    1.401   .     S
C277   N332    1.368   .     A
C277   C279    1.417   .     A
C277   H313    1.082   .     S
C278   C280    1.417   .     A
C278   H314    1.082   .     S
C278   N331    1.368   .     A
C279   N331    1.367   .     A
C279   H315    1.082   .     S
C280   N332    1.367   .     A
C280   H316    1.082   .     S
C281   O339    1.295   .     A
C281   C283    1.465   .     S
C281   O405    1.296   .     S
C282   O340    1.295   .     A
C282   C285    1.465   .     S
C283   C290    1.396   .     A
C283   C288    1.399   .     A
C284   O336    1.292   .     A
C285   C289    1.399   .     A
C285   C291    1.396   .     A
C286   H328    1.084   .     S
C286   C294    1.404   .     A
C286   C288    1.394   .     A
C287   C296    1.404   .     A
C287   H329    1.084   .     S
C287   C289    1.394   .     A
C288   H395    1.083   .     S
C290   C292    1.402   .     A
C290   H325    1.078   .     S
C291   H324    1.078   .     S
C291   C293    1.402   .     A
C292   C294    1.414   .     A
C292   C297    1.425   .     A
C293   C298    1.425   .     A
C293   C296    1.414   .     A
C294   C914    1.389   .     S
C295   C299    1.513   .     S
C295   C302    1.395   .     A
C295   C298    1.433   .     A
C296   C915    1.389   1_554 S
C297   C301    1.433   .     A
C297   C910    1.430   .     S
C298   C909    1.430   1_554 S
C299   H317    1.109   .     S
C299   H318    1.110   .     S
C299   H319    1.111   .     S
C300   C301    1.513   .     S
C300   H323    1.111   .     S
C300   H322    1.109   .     S
C300   H321    1.110   .     S
C301   C303    1.395   .     A
C302   H309    1.085   .     S
C302   C906    1.389   1_554 S
C303   H320    1.085   .     S
C303   C908    1.389   .     S
C304   H330    1.083   .     S
C305   H310    1.083   .     S
C305   C478    1.384   .     S
C306   H311    1.083   .     S
C306   C343    1.401   .     S
C306   C508    1.384   .     S
Cu307  O336    1.965   .     S
Cu307  O333    1.965   .     S
Cu307  O340    1.935   .     S
Cu307  N331    2.014   .     S
Cu307  O337    1.949   .     S
Cu308  O335    1.965   .     S
Cu308  O339    1.935   .     S
Cu308  O334    1.965   .     S
Cu308  O338    1.949   .     S
Cu308  N332    2.014   .     S
Cu308  Cu375   2.680   .     S
H326   C357    1.083   .     S
O334   C352    1.292   .     S
O338   C350    1.296   .     S
C341   C344    1.450   .     S
C341   O403    1.292   .     A
C341   O265    1.292   1_655 S
C342   H380    1.083   .     S
C343   C373    1.401   .     A
C343   C352    1.450   .     S
C344   C372    1.401   .     A
C344   C206    1.401   1_655 S
C345   N400    1.368   .     A
C345   C347    1.417   .     A
C345   H381    1.082   .     S
C346   C348    1.417   .     A
C346   H382    1.082   .     S
C346   N399    1.368   .     A
C347   N399    1.367   .     A
C347   H383    1.082   .     S
C348   N400    1.367   .     A
C348   H384    1.082   .     S
C349   O407    1.295   .     A
C349   C351    1.465   .     S
C349   O269    1.296   1_655 S
C350   O408    1.295   .     A
C350   C353    1.465   .     S
C351   C358    1.396   .     A
C351   C356    1.399   .     A
C352   O404    1.292   .     A
C353   C357    1.399   .     A
C353   C359    1.396   .     A
C354   H396    1.084   .     S
C354   C362    1.404   .     A
C354   C356    1.394   .     A
C355   C364    1.404   .     A
C355   H397    1.084   .     S
C355   C357    1.394   .     A
C356   H259    1.083   1_655 S
C358   C360    1.402   .     A
C358   H393    1.078   .     S
C359   H392    1.078   .     S
C359   C361    1.402   .     A
C360   C362    1.414   .     A
C360   C365    1.425   .     A
C361   C366    1.425   .     A
C361   C364    1.414   .     A
C362   C982    1.389   .     S
C363   C367    1.513   .     S
C363   C370    1.395   .     A
C363   C366    1.433   .     A
C364   C983    1.389   1_554 S
C365   C369    1.433   .     A
C365   C978    1.430   .     S
C366   C977    1.430   1_554 S
C367   H385    1.109   .     S
C367   H386    1.110   .     S
C367   H387    1.111   .     S
C368   C369    1.513   .     S
C368   H391    1.111   .     S
C368   H390    1.109   .     S
C368   H389    1.110   .     S
C369   C371    1.395   .     A
C370   H377    1.085   .     S
C370   C974    1.389   1_554 S
C371   H388    1.085   .     S
C371   C976    1.389   .     S
C372   H398    1.083   .     S
C373   H378    1.083   .     S
C373   C546    1.384   .     S
C374   H379    1.083   .     S
C374   C207    1.401   1_655 S
C374   C576    1.384   .     S
Cu375  O404    1.965   .     S
Cu375  O401    1.965   .     S
Cu375  O408    1.935   .     S
Cu375  N399    2.014   .     S
Cu375  O405    1.949   .     S
Cu376  O403    1.965   .     S
Cu376  O407    1.935   .     S
Cu376  O402    1.965   .     S
Cu376  O406    1.949   .     S
Cu376  N400    2.014   .     S
Cu376  Cu239   2.680   1_655 S
H394   C221    1.083   1_655 S
O402   C216    1.292   1_655 S
O406   C214    1.296   1_655 S
C409   C412    1.450   .     S
C409   O471    1.292   .     A
C409   O537    1.292   .     S
C410   H448    1.083   .     S
C410   C548    1.401   1_455 S
C411   C441    1.401   .     A
C411   C420    1.450   .     S
C411   C578    1.401   1_455 S
C412   C440    1.401   .     A
C412   C478    1.401   .     S
C413   N468    1.368   .     A
C413   C415    1.417   .     A
C413   H449    1.082   .     S
C414   C416    1.417   .     A
C414   H450    1.082   .     S
C414   N467    1.368   .     A
C415   N467    1.367   .     A
C415   H451    1.082   .     S
C416   N468    1.367   .     A
C416   H452    1.082   .     S
C417   O475    1.295   .     A
C417   C419    1.465   .     S
C417   O541    1.296   .     S
C418   O476    1.295   .     A
C418   C421    1.465   .     S
C418   O610    1.296   1_455 S
C419   C426    1.396   .     A
C419   C424    1.399   .     A
C420   O472    1.292   .     A
C420   O606    1.292   1_455 S
C421   C425    1.399   .     A
C421   C427    1.396   .     A
C422   H464    1.084   .     S
C422   C430    1.404   .     A
C422   C424    1.394   .     A
C423   C432    1.404   .     A
C423   H465    1.084   .     S
C423   C425    1.394   .     A
C424   H531    1.083   .     S
C425   H598    1.083   1_455 S
C426   C428    1.402   .     A
C426   H461    1.078   .     S
C427   H460    1.078   .     S
C427   C429    1.402   .     A
C428   C430    1.414   .     A
C428   C433    1.425   .     A
C429   C434    1.425   .     A
C429   C432    1.414   .     A
C430   C1050   1.389   .     S
C431   C435    1.513   .     S
C431   C438    1.395   .     A
C431   C434    1.433   .     A
C432   C1051   1.389   1_554 S
C433   C437    1.433   .     A
C433   C1046   1.430   .     S
C434   C1045   1.430   1_554 S
C435   H453    1.109   .     S
C435   H454    1.110   .     S
C435   H455    1.111   .     S
C436   C437    1.513   .     S
C436   H459    1.111   .     S
C436   H458    1.109   .     S
C436   H457    1.110   .     S
C437   C439    1.395   .     A
C438   H445    1.085   .     S
C438   C1042   1.389   1_554 S
C439   H456    1.085   .     S
C439   C1044   1.389   .     S
C440   H466    1.083   .     S
C441   H446    1.083   .     S
C441   C2      1.384   1_565 S
C442   H447    1.083   .     S
C442   C479    1.401   .     S
C442   C32     1.384   1_565 S
Cu443  O472    1.965   .     S
Cu443  O469    1.965   .     S
Cu443  O476    1.935   .     S
Cu443  N467    2.014   .     S
Cu443  O473    1.949   .     S
Cu443  Cu580   2.680   1_455 S
Cu444  O471    1.965   .     S
Cu444  O475    1.935   .     S
Cu444  O470    1.965   .     S
Cu444  O474    1.949   .     S
Cu444  N468    2.014   .     S
Cu444  Cu511   2.680   .     S
H462   C493    1.083   .     S
H463   C560    1.083   1_455 S
O469   C545    1.292   1_455 S
O470   C488    1.292   .     S
O473   C553    1.296   1_455 S
O474   C486    1.296   .     S
C477   C480    1.450   .     S
C477   O539    1.292   .     A
C477   O605    1.292   .     S
C478   H516    1.083   .     S
C479   C509    1.401   .     A
C479   C488    1.450   .     S
C480   C508    1.401   .     A
C480   C546    1.401   .     S
C481   N536    1.368   .     A
C481   C483    1.417   .     A
C481   H517    1.082   .     S
C482   C484    1.417   .     A
C482   H518    1.082   .     S
C482   N535    1.368   .     A
C483   N535    1.367   .     A
C483   H519    1.082   .     S
C484   N536    1.367   .     A
C484   H520    1.082   .     S
C485   O543    1.295   .     A
C485   C487    1.465   .     S
C485   O609    1.296   .     S
C486   O544    1.295   .     A
C486   C489    1.465   .     S
C487   C494    1.396   .     A
C487   C492    1.399   .     A
C488   O540    1.292   .     A
C489   C493    1.399   .     A
C489   C495    1.396   .     A
C490   H532    1.084   .     S
C490   C498    1.404   .     A
C490   C492    1.394   .     A
C491   C500    1.404   .     A
C491   H533    1.084   .     S
C491   C493    1.394   .     A
C492   H599    1.083   .     S
C494   C496    1.402   .     A
C494   H529    1.078   .     S
C495   H528    1.078   .     S
C495   C497    1.402   .     A
C496   C498    1.414   .     A
C496   C501    1.425   .     A
C497   C502    1.425   .     A
C497   C500    1.414   .     A
C498   C1118   1.389   .     S
C499   C503    1.513   .     S
C499   C506    1.395   .     A
C499   C502    1.433   .     A
C500   C1119   1.389   1_554 S
C501   C505    1.433   .     A
C501   C1114   1.430   .     S
C502   C1113   1.430   1_554 S
C503   H521    1.109   .     S
C503   H522    1.110   .     S
C503   H523    1.111   .     S
C504   C505    1.513   .     S
C504   H527    1.111   .     S
C504   H526    1.109   .     S
C504   H525    1.110   .     S
C505   C507    1.395   .     A
C506   H513    1.085   .     S
C506   C1110   1.389   1_554 S
C507   H524    1.085   .     S
C507   C1112   1.389   .     S
C508   H534    1.083   .     S
C509   H514    1.083   .     S
C509   C70     1.384   1_565 S
C510   H515    1.083   .     S
C510   C547    1.401   .     S
C510   C100    1.384   1_565 S
Cu511  O540    1.965   .     S
Cu511  O537    1.965   .     S
Cu511  O544    1.935   .     S
Cu511  N535    2.014   .     S
Cu511  O541    1.949   .     S
Cu512  O539    1.965   .     S
Cu512  O543    1.935   .     S
Cu512  O538    1.965   .     S
Cu512  O542    1.949   .     S
Cu512  N536    2.014   .     S
Cu512  Cu579   2.680   .     S
H530   C561    1.083   .     S
O538   C556    1.292   .     S
O542   C554    1.296   .     S
C545   C548    1.450   .     S
C545   O607    1.292   .     A
C545   O469    1.292   1_655 S
C546   H584    1.083   .     S
C547   C577    1.401   .     A
C547   C556    1.450   .     S
C548   C576    1.401   .     A
C548   C410    1.401   1_655 S
C549   N604    1.368   .     A
C549   C551    1.417   .     A
C549   H585    1.082   .     S
C550   C552    1.417   .     A
C550   H586    1.082   .     S
C550   N603    1.368   .     A
C551   N603    1.367   .     A
C551   H587    1.082   .     S
C552   N604    1.367   .     A
C552   H588    1.082   .     S
C553   O611    1.295   .     A
C553   C555    1.465   .     S
C553   O473    1.296   1_655 S
C554   O612    1.295   .     A
C554   C557    1.465   .     S
C555   C562    1.396   .     A
C555   C560    1.399   .     A
C556   O608    1.292   .     A
C557   C561    1.399   .     A
C557   C563    1.396   .     A
C558   H600    1.084   .     S
C558   C566    1.404   .     A
C558   C560    1.394   .     A
C559   C568    1.404   .     A
C559   H601    1.084   .     S
C559   C561    1.394   .     A
C560   H463    1.083   1_655 S
C562   C564    1.402   .     A
C562   H597    1.078   .     S
C563   H596    1.078   .     S
C563   C565    1.402   .     A
C564   C566    1.414   .     A
C564   C569    1.425   .     A
C565   C570    1.425   .     A
C565   C568    1.414   .     A
C566   C1186   1.389   .     S
C567   C571    1.513   .     S
C567   C574    1.395   .     A
C567   C570    1.433   .     A
C568   C1187   1.389   1_554 S
C569   C573    1.433   .     A
C569   C1182   1.430   .     S
C570   C1181   1.430   1_554 S
C571   H589    1.109   .     S
C571   H590    1.110   .     S
C571   H591    1.111   .     S
C572   C573    1.513   .     S
C572   H595    1.111   .     S
C572   H594    1.109   .     S
C572   H593    1.110   .     S
C573   C575    1.395   .     A
C574   H581    1.085   .     S
C574   C1178   1.389   1_554 S
C575   H592    1.085   .     S
C575   C1180   1.389   .     S
C576   H602    1.083   .     S
C577   H582    1.083   .     S
C577   C138    1.384   1_565 S
C578   H583    1.083   .     S
C578   C411    1.401   1_655 S
C578   C168    1.384   1_565 S
Cu579  O608    1.965   .     S
Cu579  O605    1.965   .     S
Cu579  O612    1.935   .     S
Cu579  N603    2.014   .     S
Cu579  O609    1.949   .     S
Cu580  O607    1.965   .     S
Cu580  O611    1.935   .     S
Cu580  O606    1.965   .     S
Cu580  O610    1.949   .     S
Cu580  N604    2.014   .     S
Cu580  Cu443   2.680   1_655 S
H598   C425    1.083   1_655 S
O606   C420    1.292   1_655 S
O610   C418    1.296   1_655 S
C613   C616    1.450   .     S
C613   O675    1.292   .     A
C613   O741    1.292   .     S
C614   H652    1.083   .     S
C614   C752    1.401   1_455 S
C614   C1053   1.384   1_545 S
C615   C645    1.401   .     A
C615   C624    1.450   .     S
C615   C782    1.401   1_455 S
C616   C644    1.401   .     A
C616   C682    1.401   .     S
C617   N672    1.368   .     A
C617   C619    1.417   .     A
C617   H653    1.082   .     S
C618   C620    1.417   .     A
C618   H654    1.082   .     S
C618   N671    1.368   .     A
C619   N671    1.367   .     A
C619   H655    1.082   .     S
C620   N672    1.367   .     A
C620   H656    1.082   .     S
C621   O679    1.295   .     A
C621   C623    1.465   .     S
C621   O745    1.296   .     S
C622   O680    1.295   .     A
C622   C625    1.465   .     S
C622   O814    1.296   1_455 S
C623   C630    1.396   .     A
C623   C628    1.399   .     A
C624   O676    1.292   .     A
C624   O810    1.292   1_455 S
C625   C629    1.399   .     A
C625   C631    1.396   .     A
C626   H668    1.084   .     S
C626   C634    1.404   .     A
C626   C628    1.394   .     A
C627   C636    1.404   .     A
C627   H669    1.084   .     S
C627   C629    1.394   .     A
C628   H735    1.083   .     S
C629   H802    1.083   1_455 S
C630   C632    1.402   .     A
C630   H665    1.078   .     S
C631   H664    1.078   .     S
C631   C633    1.402   .     A
C632   C634    1.414   .     A
C632   C637    1.425   .     A
C633   C638    1.425   .     A
C633   C636    1.414   .     A
C634   C30     1.389   1_556 S
C635   C639    1.513   .     S
C635   C642    1.395   .     A
C635   C638    1.433   .     A
C637   C641    1.433   .     A
C637   C26     1.430   1_556 S
C639   H657    1.109   .     S
C639   H658    1.110   .     S
C639   H659    1.111   .     S
C640   C641    1.513   .     S
C640   H663    1.111   .     S
C640   H662    1.109   .     S
C640   H661    1.110   .     S
C641   C643    1.395   .     A
C642   H649    1.085   .     S
C643   H660    1.085   .     S
C643   C24     1.389   1_556 S
C644   H670    1.083   .     S
C644   C1054   1.384   1_545 S
C645   H650    1.083   .     S
C645   C818    1.384   .     S
C646   H651    1.083   .     S
C646   C683    1.401   .     S
C646   C848    1.384   .     S
Cu647  O676    1.965   .     S
Cu647  O673    1.965   .     S
Cu647  O680    1.935   .     S
Cu647  N671    2.014   .     S
Cu647  O677    1.949   .     S
Cu647  Cu784   2.680   1_455 S
Cu648  O675    1.965   .     S
Cu648  O679    1.935   .     S
Cu648  O674    1.965   .     S
Cu648  O678    1.949   .     S
Cu648  N672    2.014   .     S
Cu648  Cu715   2.680   .     S
H666   C697    1.083   .     S
H667   C764    1.083   1_455 S
O673   C749    1.292   1_455 S
O674   C692    1.292   .     S
O677   C757    1.296   1_455 S
O678   C690    1.296   .     S
C681   C684    1.450   .     S
C681   O743    1.292   .     A
C681   O809    1.292   .     S
C682   H720    1.083   .     S
C682   C1121   1.384   1_545 S
C683   C713    1.401   .     A
C683   C692    1.450   .     S
C684   C712    1.401   .     A
C684   C750    1.401   .     S
C685   N740    1.368   .     A
C685   C687    1.417   .     A
C685   H721    1.082   .     S
C686   C688    1.417   .     A
C686   H722    1.082   .     S
C686   N739    1.368   .     A
C687   N739    1.367   .     A
C687   H723    1.082   .     S
C688   N740    1.367   .     A
C688   H724    1.082   .     S
C689   O747    1.295   .     A
C689   C691    1.465   .     S
C689   O813    1.296   .     S
C690   O748    1.295   .     A
C690   C693    1.465   .     S
C691   C698    1.396   .     A
C691   C696    1.399   .     A
C692   O744    1.292   .     A
C693   C697    1.399   .     A
C693   C699    1.396   .     A
C694   H736    1.084   .     S
C694   C702    1.404   .     A
C694   C696    1.394   .     A
C695   C704    1.404   .     A
C695   H737    1.084   .     S
C695   C697    1.394   .     A
C696   H803    1.083   .     S
C698   C700    1.402   .     A
C698   H733    1.078   .     S
C699   H732    1.078   .     S
C699   C701    1.402   .     A
C700   C702    1.414   .     A
C700   C705    1.425   .     A
C701   C706    1.425   .     A
C701   C704    1.414   .     A
C702   C98     1.389   1_556 S
C703   C707    1.513   .     S
C703   C710    1.395   .     A
C703   C706    1.433   .     A
C705   C709    1.433   .     A
C705   C94     1.430   1_556 S
C707   H725    1.109   .     S
C707   H726    1.110   .     S
C707   H727    1.111   .     S
C708   C709    1.513   .     S
C708   H731    1.111   .     S
C708   H730    1.109   .     S
C708   H729    1.110   .     S
C709   C711    1.395   .     A
C710   H717    1.085   .     S
C711   H728    1.085   .     S
C711   C92     1.389   1_556 S
C712   H738    1.083   .     S
C712   C1122   1.384   1_545 S
C713   H718    1.083   .     S
C713   C886    1.384   .     S
C714   H719    1.083   .     S
C714   C751    1.401   .     S
C714   C916    1.384   .     S
Cu715  O744    1.965   .     S
Cu715  O741    1.965   .     S
Cu715  O748    1.935   .     S
Cu715  N739    2.014   .     S
Cu715  O745    1.949   .     S
Cu716  O743    1.965   .     S
Cu716  O747    1.935   .     S
Cu716  O742    1.965   .     S
Cu716  O746    1.949   .     S
Cu716  N740    2.014   .     S
Cu716  Cu783   2.680   .     S
H734   C765    1.083   .     S
O742   C760    1.292   .     S
O746   C758    1.296   .     S
C749   C752    1.450   .     S
C749   O811    1.292   .     A
C749   O673    1.292   1_655 S
C750   H788    1.083   .     S
C750   C1189   1.384   1_545 S
C751   C781    1.401   .     A
C751   C760    1.450   .     S
C752   C780    1.401   .     A
C752   C614    1.401   1_655 S
C753   N808    1.368   .     A
C753   C755    1.417   .     A
C753   H789    1.082   .     S
C754   C756    1.417   .     A
C754   H790    1.082   .     S
C754   N807    1.368   .     A
C755   N807    1.367   .     A
C755   H791    1.082   .     S
C756   N808    1.367   .     A
C756   H792    1.082   .     S
C757   O815    1.295   .     A
C757   C759    1.465   .     S
C757   O677    1.296   1_655 S
C758   O816    1.295   .     A
C758   C761    1.465   .     S
C759   C766    1.396   .     A
C759   C764    1.399   .     A
C760   O812    1.292   .     A
C761   C765    1.399   .     A
C761   C767    1.396   .     A
C762   H804    1.084   .     S
C762   C770    1.404   .     A
C762   C764    1.394   .     A
C763   C772    1.404   .     A
C763   H805    1.084   .     S
C763   C765    1.394   .     A
C764   H667    1.083   1_655 S
C766   C768    1.402   .     A
C766   H801    1.078   .     S
C767   H800    1.078   .     S
C767   C769    1.402   .     A
C768   C770    1.414   .     A
C768   C773    1.425   .     A
C769   C774    1.425   .     A
C769   C772    1.414   .     A
C770   C166    1.389   1_556 S
C771   C775    1.513   .     S
C771   C778    1.395   .     A
C771   C774    1.433   .     A
C773   C777    1.433   .     A
C773   C162    1.430   1_556 S
C775   H793    1.109   .     S
C775   H794    1.110   .     S
C775   H795    1.111   .     S
C776   C777    1.513   .     S
C776   H799    1.111   .     S
C776   H798    1.109   .     S
C776   H797    1.110   .     S
C777   C779    1.395   .     A
C778   H785    1.085   .     S
C779   H796    1.085   .     S
C779   C160    1.389   1_556 S
C780   H806    1.083   .     S
C780   C1190   1.384   1_545 S
C781   H786    1.083   .     S
C781   C954    1.384   .     S
C782   H787    1.083   .     S
C782   C615    1.401   1_655 S
C782   C984    1.384   .     S
Cu783  O812    1.965   .     S
Cu783  O809    1.965   .     S
Cu783  O816    1.935   .     S
Cu783  N807    2.014   .     S
Cu783  O813    1.949   .     S
Cu784  O811    1.965   .     S
Cu784  O815    1.935   .     S
Cu784  O810    1.965   .     S
Cu784  O814    1.949   .     S
Cu784  N808    2.014   .     S
Cu784  Cu647   2.680   1_655 S
H802   C629    1.083   1_655 S
O810   C624    1.292   1_655 S
O814   C622    1.296   1_655 S
C817   C820    1.450   .     S
C817   O879    1.292   .     A
C817   O945    1.292   .     S
C818   H856    1.083   .     S
C818   C956    1.401   1_455 S
C819   C849    1.401   .     A
C819   C828    1.450   .     S
C819   C986    1.401   1_455 S
C820   C848    1.401   .     A
C820   C886    1.401   .     S
C821   N876    1.368   .     A
C821   C823    1.417   .     A
C821   H857    1.082   .     S
C822   C824    1.417   .     A
C822   H858    1.082   .     S
C822   N875    1.368   .     A
C823   N875    1.367   .     A
C823   H859    1.082   .     S
C824   N876    1.367   .     A
C824   H860    1.082   .     S
C825   O883    1.295   .     A
C825   C827    1.465   .     S
C825   O949    1.296   .     S
C826   O884    1.295   .     A
C826   C829    1.465   .     S
C826   O1018   1.296   1_455 S
C827   C834    1.396   .     A
C827   C832    1.399   .     A
C828   O880    1.292   .     A
C828   O1014   1.292   1_455 S
C829   C833    1.399   .     A
C829   C835    1.396   .     A
C830   H872    1.084   .     S
C830   C838    1.404   .     A
C830   C832    1.394   .     A
C831   C840    1.404   .     A
C831   H873    1.084   .     S
C831   C833    1.394   .     A
C832   H939    1.083   .     S
C833   H1006   1.083   1_455 S
C834   C836    1.402   .     A
C834   H869    1.078   .     S
C835   H868    1.078   .     S
C835   C837    1.402   .     A
C836   C838    1.414   .     A
C836   C841    1.425   .     A
C837   C842    1.425   .     A
C837   C840    1.414   .     A
C838   C234    1.389   1_556 S
C839   C843    1.513   .     S
C839   C846    1.395   .     A
C839   C842    1.433   .     A
C841   C845    1.433   .     A
C841   C230    1.430   1_556 S
C843   H861    1.109   .     S
C843   H862    1.110   .     S
C843   H863    1.111   .     S
C844   C845    1.513   .     S
C844   H867    1.111   .     S
C844   H866    1.109   .     S
C844   H865    1.110   .     S
C845   C847    1.395   .     A
C846   H853    1.085   .     S
C847   H864    1.085   .     S
C847   C228    1.389   1_556 S
C848   H874    1.083   .     S
C849   H854    1.083   .     S
C849   C1022   1.384   .     S
C850   H855    1.083   .     S
C850   C887    1.401   .     S
C850   C1052   1.384   .     S
Cu851  O880    1.965   .     S
Cu851  O877    1.965   .     S
Cu851  O884    1.935   .     S
Cu851  N875    2.014   .     S
Cu851  O881    1.949   .     S
Cu851  Cu988   2.680   1_455 S
Cu852  O879    1.965   .     S
Cu852  O883    1.935   .     S
Cu852  O878    1.965   .     S
Cu852  O882    1.949   .     S
Cu852  N876    2.014   .     S
Cu852  Cu919   2.680   .     S
H870   C901    1.083   .     S
H871   C968    1.083   1_455 S
O877   C953    1.292   1_455 S
O878   C896    1.292   .     S
O881   C961    1.296   1_455 S
O882   C894    1.296   .     S
C885   C888    1.450   .     S
C885   O947    1.292   .     A
C885   O1013   1.292   .     S
C886   H924    1.083   .     S
C887   C917    1.401   .     A
C887   C896    1.450   .     S
C888   C916    1.401   .     A
C888   C954    1.401   .     S
C889   N944    1.368   .     A
C889   C891    1.417   .     A
C889   H925    1.082   .     S
C890   C892    1.417   .     A
C890   H926    1.082   .     S
C890   N943    1.368   .     A
C891   N943    1.367   .     A
C891   H927    1.082   .     S
C892   N944    1.367   .     A
C892   H928    1.082   .     S
C893   O951    1.295   .     A
C893   C895    1.465   .     S
C893   O1017   1.296   .     S
C894   O952    1.295   .     A
C894   C897    1.465   .     S
C895   C902    1.396   .     A
C895   C900    1.399   .     A
C896   O948    1.292   .     A
C897   C901    1.399   .     A
C897   C903    1.396   .     A
C898   H940    1.084   .     S
C898   C906    1.404   .     A
C898   C900    1.394   .     A
C899   C908    1.404   .     A
C899   H941    1.084   .     S
C899   C901    1.394   .     A
C900   H1007   1.083   .     S
C902   C904    1.402   .     A
C902   H937    1.078   .     S
C903   H936    1.078   .     S
C903   C905    1.402   .     A
C904   C906    1.414   .     A
C904   C909    1.425   .     A
C905   C910    1.425   .     A
C905   C908    1.414   .     A
C906   C302    1.389   1_556 S
C907   C911    1.513   .     S
C907   C914    1.395   .     A
C907   C910    1.433   .     A
C909   C913    1.433   .     A
C909   C298    1.430   1_556 S
C911   H929    1.109   .     S
C911   H930    1.110   .     S
C911   H931    1.111   .     S
C912   C913    1.513   .     S
C912   H935    1.111   .     S
C912   H934    1.109   .     S
C912   H933    1.110   .     S
C913   C915    1.395   .     A
C914   H921    1.085   .     S
C915   H932    1.085   .     S
C915   C296    1.389   1_556 S
C916   H942    1.083   .     S
C917   H922    1.083   .     S
C917   C1090   1.384   .     S
C918   H923    1.083   .     S
C918   C955    1.401   .     S
C918   C1120   1.384   .     S
Cu919  O948    1.965   .     S
Cu919  O945    1.965   .     S
Cu919  O952    1.935   .     S
Cu919  N943    2.014   .     S
Cu919  O949    1.949   .     S
Cu920  O947    1.965   .     S
Cu920  O951    1.935   .     S
Cu920  O946    1.965   .     S
Cu920  O950    1.949   .     S
Cu920  N944    2.014   .     S
Cu920  Cu987   2.680   .     S
H938   C969    1.083   .     S
O946   C964    1.292   .     S
O950   C962    1.296   .     S
C953   C956    1.450   .     S
C953   O1015   1.292   .     A
C953   O877    1.292   1_655 S
C954   H992    1.083   .     S
C955   C985    1.401   .     A
C955   C964    1.450   .     S
C956   C984    1.401   .     A
C956   C818    1.401   1_655 S
C957   N1012   1.368   .     A
C957   C959    1.417   .     A
C957   H993    1.082   .     S
C958   C960    1.417   .     A
C958   H994    1.082   .     S
C958   N1011   1.368   .     A
C959   N1011   1.367   .     A
C959   H995    1.082   .     S
C960   N1012   1.367   .     A
C960   H996    1.082   .     S
C961   O1019   1.295   .     A
C961   C963    1.465   .     S
C961   O881    1.296   1_655 S
C962   O1020   1.295   .     A
C962   C965    1.465   .     S
C963   C970    1.396   .     A
C963   C968    1.399   .     A
C964   O1016   1.292   .     A
C965   C969    1.399   .     A
C965   C971    1.396   .     A
C966   H1008   1.084   .     S
C966   C974    1.404   .     A
C966   C968    1.394   .     A
C967   C976    1.404   .     A
C967   H1009   1.084   .     S
C967   C969    1.394   .     A
C968   H871    1.083   1_655 S
C970   C972    1.402   .     A
C970   H1005   1.078   .     S
C971   H1004   1.078   .     S
C971   C973    1.402   .     A
C972   C974    1.414   .     A
C972   C977    1.425   .     A
C973   C978    1.425   .     A
C973   C976    1.414   .     A
C974   C370    1.389   1_556 S
C975   C979    1.513   .     S
C975   C982    1.395   .     A
C975   C978    1.433   .     A
C977   C981    1.433   .     A
C977   C366    1.430   1_556 S
C979   H997    1.109   .     S
C979   H998    1.110   .     S
C979   H999    1.111   .     S
C980   C981    1.513   .     S
C980   H1003   1.111   .     S
C980   H1002   1.109   .     S
C980   H1001   1.110   .     S
C981   C983    1.395   .     A
C982   H989    1.085   .     S
C983   H1000   1.085   .     S
C983   C364    1.389   1_556 S
C984   H1010   1.083   .     S
C985   H990    1.083   .     S
C985   C1158   1.384   .     S
C986   H991    1.083   .     S
C986   C819    1.401   1_655 S
C986   C1188   1.384   .     S
Cu987  O1016   1.965   .     S
Cu987  O1013   1.965   .     S
Cu987  O1020   1.935   .     S
Cu987  N1011   2.014   .     S
Cu987  O1017   1.949   .     S
Cu988  O1015   1.965   .     S
Cu988  O1019   1.935   .     S
Cu988  O1014   1.965   .     S
Cu988  O1018   1.949   .     S
Cu988  N1012   2.014   .     S
Cu988  Cu851   2.680   1_655 S
H1006  C833    1.083   1_655 S
O1014  C828    1.292   1_655 S
O1018  C826    1.296   1_655 S
C1021  C1024   1.450   .     S
C1021  O1083   1.292   .     A
C1021  O1149   1.292   .     S
C1022  H1060   1.083   .     S
C1022  C1160   1.401   1_455 S
C1023  C1053   1.401   .     A
C1023  C1032   1.450   .     S
C1023  C1190   1.401   1_455 S
C1024  C1052   1.401   .     A
C1024  C1090   1.401   .     S
C1025  N1080   1.368   .     A
C1025  C1027   1.417   .     A
C1025  H1061   1.082   .     S
C1026  C1028   1.417   .     A
C1026  H1062   1.082   .     S
C1026  N1079   1.368   .     A
C1027  N1079   1.367   .     A
C1027  H1063   1.082   .     S
C1028  N1080   1.367   .     A
C1028  H1064   1.082   .     S
C1029  O1087   1.295   .     A
C1029  C1031   1.465   .     S
C1029  O1153   1.296   .     S
C1030  O1088   1.295   .     A
C1030  C1033   1.465   .     S
C1030  O1222   1.296   1_455 S
C1031  C1038   1.396   .     A
C1031  C1036   1.399   .     A
C1032  O1084   1.292   .     A
C1032  O1218   1.292   1_455 S
C1033  C1037   1.399   .     A
C1033  C1039   1.396   .     A
C1034  H1076   1.084   .     S
C1034  C1042   1.404   .     A
C1034  C1036   1.394   .     A
C1035  C1044   1.404   .     A
C1035  H1077   1.084   .     S
C1035  C1037   1.394   .     A
C1036  H1143   1.083   .     S
C1037  H1210   1.083   1_455 S
C1038  C1040   1.402   .     A
C1038  H1073   1.078   .     S
C1039  H1072   1.078   .     S
C1039  C1041   1.402   .     A
C1040  C1042   1.414   .     A
C1040  C1045   1.425   .     A
C1041  C1046   1.425   .     A
C1041  C1044   1.414   .     A
C1042  C438    1.389   1_556 S
C1043  C1047   1.513   .     S
C1043  C1050   1.395   .     A
C1043  C1046   1.433   .     A
C1045  C1049   1.433   .     A
C1045  C434    1.430   1_556 S
C1047  H1065   1.109   .     S
C1047  H1066   1.110   .     S
C1047  H1067   1.111   .     S
C1048  C1049   1.513   .     S
C1048  H1071   1.111   .     S
C1048  H1070   1.109   .     S
C1048  H1069   1.110   .     S
C1049  C1051   1.395   .     A
C1050  H1057   1.085   .     S
C1051  H1068   1.085   .     S
C1051  C432    1.389   1_556 S
C1052  H1078   1.083   .     S
C1053  H1058   1.083   .     S
C1053  C614    1.384   1_565 S
C1054  H1059   1.083   .     S
C1054  C1091   1.401   .     S
C1054  C644    1.384   1_565 S
Cu1055 O1084   1.965   .     S
Cu1055 O1081   1.965   .     S
Cu1055 O1088   1.935   .     S
Cu1055 N1079   2.014   .     S
Cu1055 O1085   1.949   .     S
Cu1055 Cu1192  2.680   1_455 S
Cu1056 O1083   1.965   .     S
Cu1056 O1087   1.935   .     S
Cu1056 O1082   1.965   .     S
Cu1056 O1086   1.949   .     S
Cu1056 N1080   2.014   .     S
Cu1056 Cu1123  2.680   .     S
H1074  C1105   1.083   .     S
H1075  C1172   1.083   1_455 S
O1081  C1157   1.292   1_455 S
O1082  C1100   1.292   .     S
O1085  C1165   1.296   1_455 S
O1086  C1098   1.296   .     S
C1089  C1092   1.450   .     S
C1089  O1151   1.292   .     A
C1089  O1217   1.292   .     S
C1090  H1128   1.083   .     S
C1091  C1121   1.401   .     A
C1091  C1100   1.450   .     S
C1092  C1120   1.401   .     A
C1092  C1158   1.401   .     S
C1093  N1148   1.368   .     A
C1093  C1095   1.417   .     A
C1093  H1129   1.082   .     S
C1094  C1096   1.417   .     A
C1094  H1130   1.082   .     S
C1094  N1147   1.368   .     A
C1095  N1147   1.367   .     A
C1095  H1131   1.082   .     S
C1096  N1148   1.367   .     A
C1096  H1132   1.082   .     S
C1097  O1155   1.295   .     A
C1097  C1099   1.465   .     S
C1097  O1221   1.296   .     S
C1098  O1156   1.295   .     A
C1098  C1101   1.465   .     S
C1099  C1106   1.396   .     A
C1099  C1104   1.399   .     A
C1100  O1152   1.292   .     A
C1101  C1105   1.399   .     A
C1101  C1107   1.396   .     A
C1102  H1144   1.084   .     S
C1102  C1110   1.404   .     A
C1102  C1104   1.394   .     A
C1103  C1112   1.404   .     A
C1103  H1145   1.084   .     S
C1103  C1105   1.394   .     A
C1104  H1211   1.083   .     S
C1106  C1108   1.402   .     A
C1106  H1141   1.078   .     S
C1107  H1140   1.078   .     S
C1107  C1109   1.402   .     A
C1108  C1110   1.414   .     A
C1108  C1113   1.425   .     A
C1109  C1114   1.425   .     A
C1109  C1112   1.414   .     A
C1110  C506    1.389   1_556 S
C1111  C1115   1.513   .     S
C1111  C1118   1.395   .     A
C1111  C1114   1.433   .     A
C1113  C1117   1.433   .     A
C1113  C502    1.430   1_556 S
C1115  H1133   1.109   .     S
C1115  H1134   1.110   .     S
C1115  H1135   1.111   .     S
C1116  C1117   1.513   .     S
C1116  H1139   1.111   .     S
C1116  H1138   1.109   .     S
C1116  H1137   1.110   .     S
C1117  C1119   1.395   .     A
C1118  H1125   1.085   .     S
C1119  H1136   1.085   .     S
C1119  C500    1.389   1_556 S
C1120  H1146   1.083   .     S
C1121  H1126   1.083   .     S
C1121  C682    1.384   1_565 S
C1122  H1127   1.083   .     S
C1122  C1159   1.401   .     S
C1122  C712    1.384   1_565 S
Cu1123 O1152   1.965   .     S
Cu1123 O1149   1.965   .     S
Cu1123 O1156   1.935   .     S
Cu1123 N1147   2.014   .     S
Cu1123 O1153   1.949   .     S
Cu1124 O1151   1.965   .     S
Cu1124 O1155   1.935   .     S
Cu1124 O1150   1.965   .     S
Cu1124 O1154   1.949   .     S
Cu1124 N1148   2.014   .     S
Cu1124 Cu1191  2.680   .     S
H1142  C1173   1.083   .     S
O1150  C1168   1.292   .     S
O1154  C1166   1.296   .     S
C1157  C1160   1.450   .     S
C1157  O1219   1.292   .     A
C1157  O1081   1.292   1_655 S
C1158  H1196   1.083   .     S
C1159  C1189   1.401   .     A
C1159  C1168   1.450   .     S
C1160  C1188   1.401   .     A
C1160  C1022   1.401   1_655 S
C1161  N1216   1.368   .     A
C1161  C1163   1.417   .     A
C1161  H1197   1.082   .     S
C1162  C1164   1.417   .     A
C1162  H1198   1.082   .     S
C1162  N1215   1.368   .     A
C1163  N1215   1.367   .     A
C1163  H1199   1.082   .     S
C1164  N1216   1.367   .     A
C1164  H1200   1.082   .     S
C1165  O1223   1.295   .     A
C1165  C1167   1.465   .     S
C1165  O1085   1.296   1_655 S
C1166  O1224   1.295   .     A
C1166  C1169   1.465   .     S
C1167  C1174   1.396   .     A
C1167  C1172   1.399   .     A
C1168  O1220   1.292   .     A
C1169  C1173   1.399   .     A
C1169  C1175   1.396   .     A
C1170  H1212   1.084   .     S
C1170  C1178   1.404   .     A
C1170  C1172   1.394   .     A
C1171  C1180   1.404   .     A
C1171  H1213   1.084   .     S
C1171  C1173   1.394   .     A
C1172  H1075   1.083   1_655 S
C1174  C1176   1.402   .     A
C1174  H1209   1.078   .     S
C1175  H1208   1.078   .     S
C1175  C1177   1.402   .     A
C1176  C1178   1.414   .     A
C1176  C1181   1.425   .     A
C1177  C1182   1.425   .     A
C1177  C1180   1.414   .     A
C1178  C574    1.389   1_556 S
C1179  C1183   1.513   .     S
C1179  C1186   1.395   .     A
C1179  C1182   1.433   .     A
C1181  C1185   1.433   .     A
C1181  C570    1.430   1_556 S
C1183  H1201   1.109   .     S
C1183  H1202   1.110   .     S
C1183  H1203   1.111   .     S
C1184  C1185   1.513   .     S
C1184  H1207   1.111   .     S
C1184  H1206   1.109   .     S
C1184  H1205   1.110   .     S
C1185  C1187   1.395   .     A
C1186  H1193   1.085   .     S
C1187  H1204   1.085   .     S
C1187  C568    1.389   1_556 S
C1188  H1214   1.083   .     S
C1189  H1194   1.083   .     S
C1189  C750    1.384   1_565 S
C1190  H1195   1.083   .     S
C1190  C1023   1.401   1_655 S
C1190  C780    1.384   1_565 S
Cu1191 O1220   1.965   .     S
Cu1191 O1217   1.965   .     S
Cu1191 O1224   1.935   .     S
Cu1191 N1215   2.014   .     S
Cu1191 O1221   1.949   .     S
Cu1192 O1219   1.965   .     S
Cu1192 O1223   1.935   .     S
Cu1192 O1218   1.965   .     S
Cu1192 O1222   1.949   .     S
Cu1192 N1216   2.014   .     S
Cu1192 Cu1055  2.680   1_655 S
H1210  C1037   1.083   1_655 S
O1218  C1032   1.292   1_655 S
O1222  C1030   1.296   1_655 S
