data_str_m2_o1_o17_pcu_sym.114
_audit_creation_date              2020-01-03
_audit_creation_method            'Materials Studio'
_symmetry_space_group_name_H-M    'P1'
_symmetry_Int_Tables_number       1
_symmetry_cell_setting            triclinic
loop_
_symmetry_equiv_pos_as_xyz
  x,y,z
_cell_length_a                    32.7121
_cell_length_b                    28.5700
_cell_length_c                    30.1165
_cell_angle_alpha                 89.6182
_cell_angle_beta                  89.9746
_cell_angle_gamma                 89.1503
loop_
_atom_site_label
_atom_site_type_symbol
_atom_site_fract_x
_atom_site_fract_y
_atom_site_fract_z
_atom_site_U_iso_or_equiv
_atom_site_adp_type
_atom_site_occupancy
C1     C     0.08739   0.16705   0.25087   0.00000  Uiso   1.00
C2     C     0.24600   0.16624   0.24923   0.00000  Uiso   1.00
C3     C     0.09214   0.17846   0.02316   0.00000  Uiso   1.00
C4     C     0.24050   0.16104   0.47682   0.00000  Uiso   1.00
C5     C     0.02217   0.12956   0.27024   0.00000  Uiso   1.00
C6     C     0.31148   0.20476   0.23139   0.00000  Uiso   1.00
C7     C     0.31312   0.12619   0.26448   0.00000  Uiso   1.00
C8     C     0.02072   0.20602   0.23352   0.00000  Uiso   1.00
C9     C     0.29075   0.16532   0.24777   0.00000  Uiso   1.00
C10    C     0.04275   0.16775   0.25159   0.00000  Uiso   1.00
C11    C     0.14407   0.02538   0.21972   0.00000  Uiso   1.00
C12    C     0.18940   0.30795   0.28016   0.00000  Uiso   1.00
C13    C     0.18936   0.02421   0.28018   0.00000  Uiso   1.00
C14    C     0.14419   0.30912   0.21963   0.00000  Uiso   1.00
C15    C     0.16679   0.16673   0.16448   0.00000  Uiso   1.00
C16    C     0.16667   0.16655   0.33548   0.00000  Uiso   1.00
C17    C     0.20123   0.15322   0.40696   0.00000  Uiso   1.00
C18    C     0.13040   0.17972   0.09361   0.00000  Uiso   1.00
C19    C     0.16588   0.16667   0.38371   0.00000  Uiso   1.00
C20    C     0.16631   0.16679   0.11622   0.00000  Uiso   1.00
C21    C     0.13018   0.18143   0.40578   0.00000  Uiso   1.00
C22    C     0.20186   0.15443   0.09292   0.00000  Uiso   1.00
C23    C     0.12912   0.18011   0.45284   0.00000  Uiso   1.00
C24    C     0.20299   0.16138   0.04662   0.00000  Uiso   1.00
C25    C     0.16605   0.17007   0.47633   0.00000  Uiso   1.00
C26    C     0.16601   0.16930   0.02329   0.00000  Uiso   1.00
C27    C     0.20310   0.16073   0.45308   0.00000  Uiso   1.00
C28    C     0.12899   0.17560   0.04699   0.00000  Uiso   1.00
C29    C     0.09251   0.18693   0.47738   0.00000  Uiso   1.00
C30    C     0.24021   0.16315   0.02323   0.00000  Uiso   1.00
Cu31   Cu    0.16667   0.21355   0.25000   0.00000  Uiso   1.00
Cu32   Cu    0.16667   0.11978   0.25000   0.00000  Uiso   1.00
H33    H     0.12582   0.04449   0.19556   0.00000  Uiso   1.00
H34    H     0.20771   0.28883   0.30427   0.00000  Uiso   1.00
H35    H     0.20765   0.04239   0.30428   0.00000  Uiso   1.00
H36    H     0.12616   0.29091   0.19531   0.00000  Uiso   1.00
N37    N     0.16667   0.28402   0.25000   0.00000  Uiso   1.00
N38    N     0.16667   0.04931   0.25000   0.00000  Uiso   1.00
O39    O     0.10655   0.20625   0.24999   0.00000  Uiso   1.00
O40    O     0.22679   0.12709   0.25000   0.00000  Uiso   1.00
O41    O     0.22679   0.20625   0.25000   0.00000  Uiso   1.00
O42    O     0.10655   0.12709   0.24999   0.00000  Uiso   1.00
O43    O     0.16666   0.20627   0.18513   0.00000  Uiso   1.00
O44    O     0.16668   0.12707   0.31487   0.00000  Uiso   1.00
O45    O     0.16668   0.20627   0.31487   0.00000  Uiso   1.00
O46    O     0.16666   0.12707   0.18513   0.00000  Uiso   1.00
Br47   Br    0.24240   0.11688   0.37540   0.00000  Uiso   1.00
Br48   Br    0.08679   0.20987   0.12679   0.00000  Uiso   1.00
Br49   Br    0.08339   0.19877   0.36901   0.00000  Uiso   1.00
Br50   Br    0.24695   0.12448   0.12442   0.00000  Uiso   1.00
O51    O     0.05582   0.19737   0.45674   0.00000  Uiso   1.00
C52    C     0.04590   0.24490   0.46472   0.00000  Uiso   1.00
H53    H     0.01843   0.25463   0.44495   0.00000  Uiso   1.00
H54    H     0.03838   0.25087   0.00027   0.00000  Uiso   1.00
H55    H     0.07097   0.26842   0.45398   0.00000  Uiso   1.00
O56    O     0.27650   0.17123   0.04522   0.00000  Uiso   1.00
C57    C     0.27900   0.21975   0.05357   0.00000  Uiso   1.00
H58    H     0.25400   0.23204   0.07588   0.00000  Uiso   1.00
H59    H     0.27859   0.24054   0.02218   0.00000  Uiso   1.00
H60    H     0.30836   0.22667   0.07045   0.00000  Uiso   1.00
Br61   Br    0.04134   0.15682   0.04776   0.00000  Uiso   1.00
Br62   Br    0.29298   0.16967   0.44881   0.00000  Uiso   1.00
O63    O     0.04210   0.10220   0.30201   0.00000  Uiso   1.00
C64    C     0.05097   0.05715   0.28565   0.00000  Uiso   1.00
H65    H     0.07953   0.04408   0.30161   0.00000  Uiso   1.00
H66    H     0.05623   0.05650   0.24910   0.00000  Uiso   1.00
H67    H     0.02637   0.03291   0.29547   0.00000  Uiso   1.00
O68    O     0.29030   0.24394   0.21601   0.00000  Uiso   1.00
C69    C     0.28596   0.24086   0.16964   0.00000  Uiso   1.00
H70    H     0.27400   0.27491   0.15691   0.00000  Uiso   1.00
H71    H     0.26332   0.21389   0.16115   0.00000  Uiso   1.00
H72    H     0.31561   0.23369   0.15264   0.00000  Uiso   1.00
O73    O     0.29351   0.08659   0.27963   0.00000  Uiso   1.00
C74    C     0.29097   0.05435   0.24422   0.00000  Uiso   1.00
H75    H     0.26952   0.06671   0.21799   0.00000  Uiso   1.00
H76    H     0.27941   0.02073   0.25745   0.00000  Uiso   1.00
H77    H     0.32104   0.04703   0.22840   0.00000  Uiso   1.00
O78    O     0.04084   0.24383   0.21540   0.00000  Uiso   1.00
C79    C     0.04022   0.28066   0.24629   0.00000  Uiso   1.00
H80    H     0.05770   0.30991   0.23191   0.00000  Uiso   1.00
H81    H     0.05508   0.27024   0.27817   0.00000  Uiso   1.00
H82    H     0.00869   0.29388   0.25264   0.00000  Uiso   1.00
C83    C     0.42073   0.16705   0.25087   0.00000  Uiso   1.00
C84    C     0.57934   0.16624   0.24923   0.00000  Uiso   1.00
C85    C     0.42547   0.17846   0.02316   0.00000  Uiso   1.00
C86    C     0.57383   0.16104   0.47682   0.00000  Uiso   1.00
C87    C     0.35550   0.12956   0.27024   0.00000  Uiso   1.00
C88    C     0.64481   0.20476   0.23139   0.00000  Uiso   1.00
C89    C     0.64645   0.12619   0.26448   0.00000  Uiso   1.00
C90    C     0.35406   0.20602   0.23352   0.00000  Uiso   1.00
C91    C     0.62408   0.16532   0.24777   0.00000  Uiso   1.00
C92    C     0.37608   0.16775   0.25159   0.00000  Uiso   1.00
C93    C     0.47741   0.02538   0.21972   0.00000  Uiso   1.00
C94    C     0.52273   0.30795   0.28016   0.00000  Uiso   1.00
C95    C     0.52270   0.02421   0.28018   0.00000  Uiso   1.00
C96    C     0.47752   0.30912   0.21963   0.00000  Uiso   1.00
C97    C     0.50012   0.16673   0.16448   0.00000  Uiso   1.00
C98    C     0.50000   0.16655   0.33548   0.00000  Uiso   1.00
C99    C     0.53456   0.15322   0.40696   0.00000  Uiso   1.00
C100   C     0.46373   0.17972   0.09361   0.00000  Uiso   1.00
C101   C     0.49922   0.16667   0.38371   0.00000  Uiso   1.00
C102   C     0.49964   0.16679   0.11622   0.00000  Uiso   1.00
C103   C     0.46352   0.18143   0.40578   0.00000  Uiso   1.00
C104   C     0.53520   0.15443   0.09292   0.00000  Uiso   1.00
C105   C     0.46246   0.18011   0.45284   0.00000  Uiso   1.00
C106   C     0.53632   0.16138   0.04662   0.00000  Uiso   1.00
C107   C     0.49938   0.17007   0.47633   0.00000  Uiso   1.00
C108   C     0.49934   0.16930   0.02329   0.00000  Uiso   1.00
C109   C     0.53643   0.16073   0.45308   0.00000  Uiso   1.00
C110   C     0.46233   0.17560   0.04699   0.00000  Uiso   1.00
C111   C     0.42584   0.18693   0.47738   0.00000  Uiso   1.00
C112   C     0.57354   0.16315   0.02323   0.00000  Uiso   1.00
Cu113  Cu    0.50000   0.21355   0.25000   0.00000  Uiso   1.00
Cu114  Cu    0.50000   0.11978   0.25000   0.00000  Uiso   1.00
H115   H     0.45915   0.04449   0.19556   0.00000  Uiso   1.00
H116   H     0.54105   0.28883   0.30427   0.00000  Uiso   1.00
H117   H     0.54098   0.04239   0.30428   0.00000  Uiso   1.00
H118   H     0.45950   0.29091   0.19531   0.00000  Uiso   1.00
N119   N     0.50000   0.28402   0.25000   0.00000  Uiso   1.00
N120   N     0.50000   0.04931   0.25000   0.00000  Uiso   1.00
O121   O     0.43988   0.20625   0.24999   0.00000  Uiso   1.00
O122   O     0.56012   0.12709   0.25000   0.00000  Uiso   1.00
O123   O     0.56012   0.20625   0.25000   0.00000  Uiso   1.00
O124   O     0.43988   0.12709   0.24999   0.00000  Uiso   1.00
O125   O     0.49999   0.20627   0.18513   0.00000  Uiso   1.00
O126   O     0.50001   0.12707   0.31487   0.00000  Uiso   1.00
O127   O     0.50001   0.20627   0.31487   0.00000  Uiso   1.00
O128   O     0.49999   0.12707   0.18513   0.00000  Uiso   1.00
Br129  Br    0.57574   0.11688   0.37540   0.00000  Uiso   1.00
Br130  Br    0.42013   0.20987   0.12679   0.00000  Uiso   1.00
Br131  Br    0.41673   0.19877   0.36901   0.00000  Uiso   1.00
Br132  Br    0.58029   0.12448   0.12442   0.00000  Uiso   1.00
O133   O     0.38915   0.19737   0.45674   0.00000  Uiso   1.00
C134   C     0.37923   0.24490   0.46472   0.00000  Uiso   1.00
H135   H     0.35177   0.25463   0.44495   0.00000  Uiso   1.00
H136   H     0.37171   0.25087   0.00027   0.00000  Uiso   1.00
H137   H     0.40430   0.26842   0.45398   0.00000  Uiso   1.00
O138   O     0.60983   0.17123   0.04522   0.00000  Uiso   1.00
C139   C     0.61233   0.21975   0.05357   0.00000  Uiso   1.00
H140   H     0.58734   0.23204   0.07588   0.00000  Uiso   1.00
H141   H     0.61193   0.24054   0.02218   0.00000  Uiso   1.00
H142   H     0.64169   0.22667   0.07045   0.00000  Uiso   1.00
Br143  Br    0.37467   0.15682   0.04776   0.00000  Uiso   1.00
Br144  Br    0.62631   0.16967   0.44881   0.00000  Uiso   1.00
O145   O     0.37544   0.10220   0.30201   0.00000  Uiso   1.00
C146   C     0.38430   0.05715   0.28565   0.00000  Uiso   1.00
H147   H     0.41286   0.04408   0.30161   0.00000  Uiso   1.00
H148   H     0.38956   0.05650   0.24910   0.00000  Uiso   1.00
H149   H     0.35970   0.03291   0.29547   0.00000  Uiso   1.00
O150   O     0.62364   0.24394   0.21601   0.00000  Uiso   1.00
C151   C     0.61930   0.24086   0.16964   0.00000  Uiso   1.00
H152   H     0.60733   0.27491   0.15691   0.00000  Uiso   1.00
H153   H     0.59665   0.21389   0.16115   0.00000  Uiso   1.00
H154   H     0.64895   0.23369   0.15264   0.00000  Uiso   1.00
O155   O     0.62684   0.08659   0.27963   0.00000  Uiso   1.00
C156   C     0.62431   0.05435   0.24422   0.00000  Uiso   1.00
H157   H     0.60285   0.06671   0.21799   0.00000  Uiso   1.00
H158   H     0.61275   0.02073   0.25745   0.00000  Uiso   1.00
H159   H     0.65437   0.04703   0.22840   0.00000  Uiso   1.00
O160   O     0.37417   0.24383   0.21540   0.00000  Uiso   1.00
C161   C     0.37356   0.28066   0.24629   0.00000  Uiso   1.00
H162   H     0.39103   0.30991   0.23191   0.00000  Uiso   1.00
H163   H     0.38841   0.27024   0.27817   0.00000  Uiso   1.00
H164   H     0.34203   0.29388   0.25264   0.00000  Uiso   1.00
C165   C     0.75406   0.16705   0.25087   0.00000  Uiso   1.00
C166   C     0.91267   0.16624   0.24923   0.00000  Uiso   1.00
C167   C     0.75881   0.17846   0.02316   0.00000  Uiso   1.00
C168   C     0.90717   0.16104   0.47682   0.00000  Uiso   1.00
C169   C     0.68883   0.12956   0.27024   0.00000  Uiso   1.00
C170   C     0.97814   0.20476   0.23139   0.00000  Uiso   1.00
C171   C     0.97978   0.12619   0.26448   0.00000  Uiso   1.00
C172   C     0.68739   0.20602   0.23352   0.00000  Uiso   1.00
C173   C     0.95741   0.16532   0.24777   0.00000  Uiso   1.00
C174   C     0.70942   0.16775   0.25159   0.00000  Uiso   1.00
C175   C     0.81074   0.02538   0.21972   0.00000  Uiso   1.00
C176   C     0.85606   0.30795   0.28016   0.00000  Uiso   1.00
C177   C     0.85603   0.02421   0.28018   0.00000  Uiso   1.00
C178   C     0.81086   0.30912   0.21963   0.00000  Uiso   1.00
C179   C     0.83346   0.16673   0.16448   0.00000  Uiso   1.00
C180   C     0.83333   0.16655   0.33548   0.00000  Uiso   1.00
C181   C     0.86789   0.15322   0.40696   0.00000  Uiso   1.00
C182   C     0.79706   0.17972   0.09361   0.00000  Uiso   1.00
C183   C     0.83255   0.16667   0.38371   0.00000  Uiso   1.00
C184   C     0.83297   0.16679   0.11622   0.00000  Uiso   1.00
C185   C     0.79685   0.18143   0.40578   0.00000  Uiso   1.00
C186   C     0.86853   0.15443   0.09292   0.00000  Uiso   1.00
C187   C     0.79579   0.18011   0.45284   0.00000  Uiso   1.00
C188   C     0.86965   0.16138   0.04662   0.00000  Uiso   1.00
C189   C     0.83271   0.17007   0.47633   0.00000  Uiso   1.00
C190   C     0.83268   0.16930   0.02329   0.00000  Uiso   1.00
C191   C     0.86977   0.16073   0.45308   0.00000  Uiso   1.00
C192   C     0.79566   0.17560   0.04699   0.00000  Uiso   1.00
C193   C     0.75918   0.18693   0.47738   0.00000  Uiso   1.00
C194   C     0.90688   0.16315   0.02323   0.00000  Uiso   1.00
Cu195  Cu    0.83333   0.21355   0.25000   0.00000  Uiso   1.00
Cu196  Cu    0.83333   0.11978   0.25000   0.00000  Uiso   1.00
H197   H     0.79249   0.04449   0.19556   0.00000  Uiso   1.00
H198   H     0.87438   0.28883   0.30427   0.00000  Uiso   1.00
H199   H     0.87431   0.04239   0.30428   0.00000  Uiso   1.00
H200   H     0.79283   0.29091   0.19531   0.00000  Uiso   1.00
N201   N     0.83333   0.28402   0.25000   0.00000  Uiso   1.00
N202   N     0.83333   0.04931   0.25000   0.00000  Uiso   1.00
O203   O     0.77321   0.20625   0.24999   0.00000  Uiso   1.00
O204   O     0.89345   0.12709   0.25000   0.00000  Uiso   1.00
O205   O     0.89345   0.20625   0.25000   0.00000  Uiso   1.00
O206   O     0.77321   0.12709   0.24999   0.00000  Uiso   1.00
O207   O     0.83332   0.20627   0.18513   0.00000  Uiso   1.00
O208   O     0.83334   0.12707   0.31487   0.00000  Uiso   1.00
O209   O     0.83334   0.20627   0.31487   0.00000  Uiso   1.00
O210   O     0.83332   0.12707   0.18513   0.00000  Uiso   1.00
Br211  Br    0.90907   0.11688   0.37540   0.00000  Uiso   1.00
Br212  Br    0.75346   0.20987   0.12679   0.00000  Uiso   1.00
Br213  Br    0.75006   0.19877   0.36901   0.00000  Uiso   1.00
Br214  Br    0.91362   0.12448   0.12442   0.00000  Uiso   1.00
O215   O     0.72249   0.19737   0.45674   0.00000  Uiso   1.00
C216   C     0.71257   0.24490   0.46472   0.00000  Uiso   1.00
H217   H     0.68510   0.25463   0.44495   0.00000  Uiso   1.00
H218   H     0.70504   0.25087   0.00027   0.00000  Uiso   1.00
H219   H     0.73764   0.26842   0.45398   0.00000  Uiso   1.00
O220   O     0.94317   0.17123   0.04522   0.00000  Uiso   1.00
C221   C     0.94566   0.21975   0.05357   0.00000  Uiso   1.00
H222   H     0.92067   0.23204   0.07588   0.00000  Uiso   1.00
H223   H     0.94526   0.24054   0.02218   0.00000  Uiso   1.00
H224   H     0.97503   0.22667   0.07045   0.00000  Uiso   1.00
Br225  Br    0.70800   0.15682   0.04776   0.00000  Uiso   1.00
Br226  Br    0.95964   0.16967   0.44881   0.00000  Uiso   1.00
O227   O     0.70877   0.10220   0.30201   0.00000  Uiso   1.00
C228   C     0.71763   0.05715   0.28565   0.00000  Uiso   1.00
H229   H     0.74619   0.04408   0.30161   0.00000  Uiso   1.00
H230   H     0.72289   0.05650   0.24910   0.00000  Uiso   1.00
H231   H     0.69303   0.03291   0.29547   0.00000  Uiso   1.00
O232   O     0.95697   0.24394   0.21601   0.00000  Uiso   1.00
C233   C     0.95263   0.24086   0.16964   0.00000  Uiso   1.00
H234   H     0.94066   0.27491   0.15691   0.00000  Uiso   1.00
H235   H     0.92999   0.21389   0.16115   0.00000  Uiso   1.00
H236   H     0.98228   0.23369   0.15264   0.00000  Uiso   1.00
O237   O     0.96017   0.08659   0.27963   0.00000  Uiso   1.00
C238   C     0.95764   0.05435   0.24422   0.00000  Uiso   1.00
H239   H     0.93618   0.06671   0.21799   0.00000  Uiso   1.00
H240   H     0.94608   0.02073   0.25745   0.00000  Uiso   1.00
H241   H     0.98771   0.04703   0.22840   0.00000  Uiso   1.00
O242   O     0.70750   0.24383   0.21540   0.00000  Uiso   1.00
C243   C     0.70689   0.28066   0.24629   0.00000  Uiso   1.00
H244   H     0.72437   0.30991   0.23191   0.00000  Uiso   1.00
H245   H     0.72174   0.27024   0.27817   0.00000  Uiso   1.00
H246   H     0.67536   0.29388   0.25264   0.00000  Uiso   1.00
C247   C     0.08739   0.50039   0.25087   0.00000  Uiso   1.00
C248   C     0.24600   0.49958   0.24923   0.00000  Uiso   1.00
C249   C     0.09214   0.51179   0.02316   0.00000  Uiso   1.00
C250   C     0.24050   0.49437   0.47682   0.00000  Uiso   1.00
C251   C     0.02217   0.46289   0.27024   0.00000  Uiso   1.00
C252   C     0.31148   0.53809   0.23139   0.00000  Uiso   1.00
C253   C     0.31312   0.45952   0.26448   0.00000  Uiso   1.00
C254   C     0.02072   0.53936   0.23352   0.00000  Uiso   1.00
C255   C     0.29075   0.49865   0.24777   0.00000  Uiso   1.00
C256   C     0.04275   0.50108   0.25159   0.00000  Uiso   1.00
C257   C     0.14407   0.35871   0.21972   0.00000  Uiso   1.00
C258   C     0.18940   0.64129   0.28016   0.00000  Uiso   1.00
C259   C     0.18936   0.35754   0.28018   0.00000  Uiso   1.00
C260   C     0.14419   0.64245   0.21963   0.00000  Uiso   1.00
C261   C     0.16679   0.50007   0.16448   0.00000  Uiso   1.00
C262   C     0.16667   0.49988   0.33548   0.00000  Uiso   1.00
C263   C     0.20123   0.48655   0.40696   0.00000  Uiso   1.00
C264   C     0.13040   0.51305   0.09361   0.00000  Uiso   1.00
C265   C     0.16588   0.50000   0.38371   0.00000  Uiso   1.00
C266   C     0.16631   0.50012   0.11622   0.00000  Uiso   1.00
C267   C     0.13018   0.51477   0.40578   0.00000  Uiso   1.00
C268   C     0.20186   0.48776   0.09292   0.00000  Uiso   1.00
C269   C     0.12912   0.51344   0.45284   0.00000  Uiso   1.00
C270   C     0.20299   0.49472   0.04662   0.00000  Uiso   1.00
C271   C     0.16605   0.50341   0.47633   0.00000  Uiso   1.00
C272   C     0.16601   0.50263   0.02329   0.00000  Uiso   1.00
C273   C     0.20310   0.49406   0.45308   0.00000  Uiso   1.00
C274   C     0.12899   0.50894   0.04699   0.00000  Uiso   1.00
C275   C     0.09251   0.52027   0.47738   0.00000  Uiso   1.00
C276   C     0.24021   0.49648   0.02323   0.00000  Uiso   1.00
Cu277  Cu    0.16667   0.54689   0.25000   0.00000  Uiso   1.00
Cu278  Cu    0.16667   0.45311   0.25000   0.00000  Uiso   1.00
H279   H     0.12582   0.37783   0.19556   0.00000  Uiso   1.00
H280   H     0.20771   0.62216   0.30427   0.00000  Uiso   1.00
H281   H     0.20765   0.37573   0.30428   0.00000  Uiso   1.00
H282   H     0.12616   0.62425   0.19531   0.00000  Uiso   1.00
N283   N     0.16667   0.61736   0.25000   0.00000  Uiso   1.00
N284   N     0.16667   0.38264   0.25000   0.00000  Uiso   1.00
O285   O     0.10655   0.53958   0.24999   0.00000  Uiso   1.00
O286   O     0.22679   0.46042   0.25000   0.00000  Uiso   1.00
O287   O     0.22679   0.53958   0.25000   0.00000  Uiso   1.00
O288   O     0.10655   0.46042   0.24999   0.00000  Uiso   1.00
O289   O     0.16666   0.53960   0.18513   0.00000  Uiso   1.00
O290   O     0.16668   0.46040   0.31487   0.00000  Uiso   1.00
O291   O     0.16668   0.53960   0.31487   0.00000  Uiso   1.00
O292   O     0.16666   0.46040   0.18513   0.00000  Uiso   1.00
Br293  Br    0.24240   0.45021   0.37540   0.00000  Uiso   1.00
Br294  Br    0.08679   0.54320   0.12679   0.00000  Uiso   1.00
Br295  Br    0.08339   0.53210   0.36901   0.00000  Uiso   1.00
Br296  Br    0.24695   0.45782   0.12442   0.00000  Uiso   1.00
O297   O     0.05582   0.53071   0.45674   0.00000  Uiso   1.00
C298   C     0.04590   0.57824   0.46472   0.00000  Uiso   1.00
H299   H     0.01843   0.58797   0.44495   0.00000  Uiso   1.00
H300   H     0.03838   0.58421   0.00027   0.00000  Uiso   1.00
H301   H     0.07097   0.60176   0.45398   0.00000  Uiso   1.00
O302   O     0.27650   0.50456   0.04522   0.00000  Uiso   1.00
C303   C     0.27900   0.55308   0.05357   0.00000  Uiso   1.00
H304   H     0.25400   0.56537   0.07588   0.00000  Uiso   1.00
H305   H     0.27859   0.57387   0.02218   0.00000  Uiso   1.00
H306   H     0.30836   0.56000   0.07045   0.00000  Uiso   1.00
Br307  Br    0.04134   0.49016   0.04776   0.00000  Uiso   1.00
Br308  Br    0.29298   0.50300   0.44881   0.00000  Uiso   1.00
O309   O     0.04210   0.43553   0.30201   0.00000  Uiso   1.00
C310   C     0.05097   0.39048   0.28565   0.00000  Uiso   1.00
H311   H     0.07953   0.37741   0.30161   0.00000  Uiso   1.00
H312   H     0.05623   0.38983   0.24910   0.00000  Uiso   1.00
H313   H     0.02637   0.36624   0.29547   0.00000  Uiso   1.00
O314   O     0.29030   0.57728   0.21601   0.00000  Uiso   1.00
C315   C     0.28596   0.57420   0.16964   0.00000  Uiso   1.00
H316   H     0.27400   0.60825   0.15691   0.00000  Uiso   1.00
H317   H     0.26332   0.54722   0.16115   0.00000  Uiso   1.00
H318   H     0.31561   0.56702   0.15264   0.00000  Uiso   1.00
O319   O     0.29351   0.41992   0.27963   0.00000  Uiso   1.00
C320   C     0.29097   0.38768   0.24422   0.00000  Uiso   1.00
H321   H     0.26952   0.40004   0.21799   0.00000  Uiso   1.00
H322   H     0.27941   0.35406   0.25745   0.00000  Uiso   1.00
H323   H     0.32104   0.38036   0.22840   0.00000  Uiso   1.00
O324   O     0.04084   0.57717   0.21540   0.00000  Uiso   1.00
C325   C     0.04022   0.61400   0.24629   0.00000  Uiso   1.00
H326   H     0.05770   0.64325   0.23191   0.00000  Uiso   1.00
H327   H     0.05508   0.60357   0.27817   0.00000  Uiso   1.00
H328   H     0.00869   0.62722   0.25264   0.00000  Uiso   1.00
C329   C     0.42073   0.50039   0.25087   0.00000  Uiso   1.00
C330   C     0.57934   0.49958   0.24923   0.00000  Uiso   1.00
C331   C     0.42547   0.51179   0.02316   0.00000  Uiso   1.00
C332   C     0.57383   0.49437   0.47682   0.00000  Uiso   1.00
C333   C     0.35550   0.46289   0.27024   0.00000  Uiso   1.00
C334   C     0.64481   0.53809   0.23139   0.00000  Uiso   1.00
C335   C     0.64645   0.45952   0.26448   0.00000  Uiso   1.00
C336   C     0.35406   0.53936   0.23352   0.00000  Uiso   1.00
C337   C     0.62408   0.49865   0.24777   0.00000  Uiso   1.00
C338   C     0.37608   0.50108   0.25159   0.00000  Uiso   1.00
C339   C     0.47741   0.35871   0.21972   0.00000  Uiso   1.00
C340   C     0.52273   0.64129   0.28016   0.00000  Uiso   1.00
C341   C     0.52270   0.35754   0.28018   0.00000  Uiso   1.00
C342   C     0.47752   0.64245   0.21963   0.00000  Uiso   1.00
C343   C     0.50012   0.50007   0.16448   0.00000  Uiso   1.00
C344   C     0.50000   0.49988   0.33548   0.00000  Uiso   1.00
C345   C     0.53456   0.48655   0.40696   0.00000  Uiso   1.00
C346   C     0.46373   0.51305   0.09361   0.00000  Uiso   1.00
C347   C     0.49922   0.50000   0.38371   0.00000  Uiso   1.00
C348   C     0.49964   0.50012   0.11622   0.00000  Uiso   1.00
C349   C     0.46352   0.51477   0.40578   0.00000  Uiso   1.00
C350   C     0.53520   0.48776   0.09292   0.00000  Uiso   1.00
C351   C     0.46246   0.51344   0.45284   0.00000  Uiso   1.00
C352   C     0.53632   0.49472   0.04662   0.00000  Uiso   1.00
C353   C     0.49938   0.50341   0.47633   0.00000  Uiso   1.00
C354   C     0.49934   0.50263   0.02329   0.00000  Uiso   1.00
C355   C     0.53643   0.49406   0.45308   0.00000  Uiso   1.00
C356   C     0.46233   0.50894   0.04699   0.00000  Uiso   1.00
C357   C     0.42584   0.52027   0.47738   0.00000  Uiso   1.00
C358   C     0.57354   0.49648   0.02323   0.00000  Uiso   1.00
Cu359  Cu    0.50000   0.54689   0.25000   0.00000  Uiso   1.00
Cu360  Cu    0.50000   0.45311   0.25000   0.00000  Uiso   1.00
H361   H     0.45915   0.37783   0.19556   0.00000  Uiso   1.00
H362   H     0.54105   0.62216   0.30427   0.00000  Uiso   1.00
H363   H     0.54098   0.37573   0.30428   0.00000  Uiso   1.00
H364   H     0.45950   0.62425   0.19531   0.00000  Uiso   1.00
N365   N     0.50000   0.61736   0.25000   0.00000  Uiso   1.00
N366   N     0.50000   0.38264   0.25000   0.00000  Uiso   1.00
O367   O     0.43988   0.53958   0.24999   0.00000  Uiso   1.00
O368   O     0.56012   0.46042   0.25000   0.00000  Uiso   1.00
O369   O     0.56012   0.53958   0.25000   0.00000  Uiso   1.00
O370   O     0.43988   0.46042   0.24999   0.00000  Uiso   1.00
O371   O     0.49999   0.53960   0.18513   0.00000  Uiso   1.00
O372   O     0.50001   0.46040   0.31487   0.00000  Uiso   1.00
O373   O     0.50001   0.53960   0.31487   0.00000  Uiso   1.00
O374   O     0.49999   0.46040   0.18513   0.00000  Uiso   1.00
Br375  Br    0.57574   0.45021   0.37540   0.00000  Uiso   1.00
Br376  Br    0.42013   0.54320   0.12679   0.00000  Uiso   1.00
Br377  Br    0.41673   0.53210   0.36901   0.00000  Uiso   1.00
Br378  Br    0.58029   0.45782   0.12442   0.00000  Uiso   1.00
O379   O     0.38915   0.53071   0.45674   0.00000  Uiso   1.00
C380   C     0.37923   0.57824   0.46472   0.00000  Uiso   1.00
H381   H     0.35177   0.58797   0.44495   0.00000  Uiso   1.00
H382   H     0.37171   0.58421   0.00027   0.00000  Uiso   1.00
H383   H     0.40430   0.60176   0.45398   0.00000  Uiso   1.00
O384   O     0.60983   0.50456   0.04522   0.00000  Uiso   1.00
C385   C     0.61233   0.55308   0.05357   0.00000  Uiso   1.00
H386   H     0.58734   0.56537   0.07588   0.00000  Uiso   1.00
H387   H     0.61193   0.57387   0.02218   0.00000  Uiso   1.00
H388   H     0.64169   0.56000   0.07045   0.00000  Uiso   1.00
Br389  Br    0.37467   0.49016   0.04776   0.00000  Uiso   1.00
Br390  Br    0.62631   0.50300   0.44881   0.00000  Uiso   1.00
O391   O     0.37544   0.43553   0.30201   0.00000  Uiso   1.00
C392   C     0.38430   0.39048   0.28565   0.00000  Uiso   1.00
H393   H     0.41286   0.37741   0.30161   0.00000  Uiso   1.00
H394   H     0.38956   0.38983   0.24910   0.00000  Uiso   1.00
H395   H     0.35970   0.36624   0.29547   0.00000  Uiso   1.00
O396   O     0.62364   0.57728   0.21601   0.00000  Uiso   1.00
C397   C     0.61930   0.57420   0.16964   0.00000  Uiso   1.00
H398   H     0.60733   0.60825   0.15691   0.00000  Uiso   1.00
H399   H     0.59665   0.54722   0.16115   0.00000  Uiso   1.00
H400   H     0.64895   0.56702   0.15264   0.00000  Uiso   1.00
O401   O     0.62684   0.41992   0.27963   0.00000  Uiso   1.00
C402   C     0.62431   0.38768   0.24422   0.00000  Uiso   1.00
H403   H     0.60285   0.40004   0.21799   0.00000  Uiso   1.00
H404   H     0.61275   0.35406   0.25745   0.00000  Uiso   1.00
H405   H     0.65437   0.38036   0.22840   0.00000  Uiso   1.00
O406   O     0.37417   0.57717   0.21540   0.00000  Uiso   1.00
C407   C     0.37356   0.61400   0.24629   0.00000  Uiso   1.00
H408   H     0.39103   0.64325   0.23191   0.00000  Uiso   1.00
H409   H     0.38841   0.60357   0.27817   0.00000  Uiso   1.00
H410   H     0.34203   0.62722   0.25264   0.00000  Uiso   1.00
C411   C     0.75406   0.50039   0.25087   0.00000  Uiso   1.00
C412   C     0.91267   0.49958   0.24923   0.00000  Uiso   1.00
C413   C     0.75881   0.51179   0.02316   0.00000  Uiso   1.00
C414   C     0.90717   0.49437   0.47682   0.00000  Uiso   1.00
C415   C     0.68883   0.46289   0.27024   0.00000  Uiso   1.00
C416   C     0.97814   0.53809   0.23139   0.00000  Uiso   1.00
C417   C     0.97978   0.45952   0.26448   0.00000  Uiso   1.00
C418   C     0.68739   0.53936   0.23352   0.00000  Uiso   1.00
C419   C     0.95741   0.49865   0.24777   0.00000  Uiso   1.00
C420   C     0.70942   0.50108   0.25159   0.00000  Uiso   1.00
C421   C     0.81074   0.35871   0.21972   0.00000  Uiso   1.00
C422   C     0.85606   0.64129   0.28016   0.00000  Uiso   1.00
C423   C     0.85603   0.35754   0.28018   0.00000  Uiso   1.00
C424   C     0.81086   0.64245   0.21963   0.00000  Uiso   1.00
C425   C     0.83346   0.50007   0.16448   0.00000  Uiso   1.00
C426   C     0.83333   0.49988   0.33548   0.00000  Uiso   1.00
C427   C     0.86789   0.48655   0.40696   0.00000  Uiso   1.00
C428   C     0.79706   0.51305   0.09361   0.00000  Uiso   1.00
C429   C     0.83255   0.50000   0.38371   0.00000  Uiso   1.00
C430   C     0.83297   0.50012   0.11622   0.00000  Uiso   1.00
C431   C     0.79685   0.51477   0.40578   0.00000  Uiso   1.00
C432   C     0.86853   0.48776   0.09292   0.00000  Uiso   1.00
C433   C     0.79579   0.51344   0.45284   0.00000  Uiso   1.00
C434   C     0.86965   0.49472   0.04662   0.00000  Uiso   1.00
C435   C     0.83271   0.50341   0.47633   0.00000  Uiso   1.00
C436   C     0.83268   0.50263   0.02329   0.00000  Uiso   1.00
C437   C     0.86977   0.49406   0.45308   0.00000  Uiso   1.00
C438   C     0.79566   0.50894   0.04699   0.00000  Uiso   1.00
C439   C     0.75918   0.52027   0.47738   0.00000  Uiso   1.00
C440   C     0.90688   0.49648   0.02323   0.00000  Uiso   1.00
Cu441  Cu    0.83333   0.54689   0.25000   0.00000  Uiso   1.00
Cu442  Cu    0.83333   0.45311   0.25000   0.00000  Uiso   1.00
H443   H     0.79249   0.37783   0.19556   0.00000  Uiso   1.00
H444   H     0.87438   0.62216   0.30427   0.00000  Uiso   1.00
H445   H     0.87431   0.37573   0.30428   0.00000  Uiso   1.00
H446   H     0.79283   0.62425   0.19531   0.00000  Uiso   1.00
N447   N     0.83333   0.61736   0.25000   0.00000  Uiso   1.00
N448   N     0.83333   0.38264   0.25000   0.00000  Uiso   1.00
O449   O     0.77321   0.53958   0.24999   0.00000  Uiso   1.00
O450   O     0.89345   0.46042   0.25000   0.00000  Uiso   1.00
O451   O     0.89345   0.53958   0.25000   0.00000  Uiso   1.00
O452   O     0.77321   0.46042   0.24999   0.00000  Uiso   1.00
O453   O     0.83332   0.53960   0.18513   0.00000  Uiso   1.00
O454   O     0.83334   0.46040   0.31487   0.00000  Uiso   1.00
O455   O     0.83334   0.53960   0.31487   0.00000  Uiso   1.00
O456   O     0.83332   0.46040   0.18513   0.00000  Uiso   1.00
Br457  Br    0.90907   0.45021   0.37540   0.00000  Uiso   1.00
Br458  Br    0.75346   0.54320   0.12679   0.00000  Uiso   1.00
Br459  Br    0.75006   0.53210   0.36901   0.00000  Uiso   1.00
Br460  Br    0.91362   0.45782   0.12442   0.00000  Uiso   1.00
O461   O     0.72249   0.53071   0.45674   0.00000  Uiso   1.00
C462   C     0.71257   0.57824   0.46472   0.00000  Uiso   1.00
H463   H     0.68510   0.58797   0.44495   0.00000  Uiso   1.00
H464   H     0.70504   0.58421   0.00027   0.00000  Uiso   1.00
H465   H     0.73764   0.60176   0.45398   0.00000  Uiso   1.00
O466   O     0.94317   0.50456   0.04522   0.00000  Uiso   1.00
C467   C     0.94566   0.55308   0.05357   0.00000  Uiso   1.00
H468   H     0.92067   0.56537   0.07588   0.00000  Uiso   1.00
H469   H     0.94526   0.57387   0.02218   0.00000  Uiso   1.00
H470   H     0.97503   0.56000   0.07045   0.00000  Uiso   1.00
Br471  Br    0.70800   0.49016   0.04776   0.00000  Uiso   1.00
Br472  Br    0.95964   0.50300   0.44881   0.00000  Uiso   1.00
O473   O     0.70877   0.43553   0.30201   0.00000  Uiso   1.00
C474   C     0.71763   0.39048   0.28565   0.00000  Uiso   1.00
H475   H     0.74619   0.37741   0.30161   0.00000  Uiso   1.00
H476   H     0.72289   0.38983   0.24910   0.00000  Uiso   1.00
H477   H     0.69303   0.36624   0.29547   0.00000  Uiso   1.00
O478   O     0.95697   0.57728   0.21601   0.00000  Uiso   1.00
C479   C     0.95263   0.57420   0.16964   0.00000  Uiso   1.00
H480   H     0.94066   0.60825   0.15691   0.00000  Uiso   1.00
H481   H     0.92999   0.54722   0.16115   0.00000  Uiso   1.00
H482   H     0.98228   0.56702   0.15264   0.00000  Uiso   1.00
O483   O     0.96017   0.41992   0.27963   0.00000  Uiso   1.00
C484   C     0.95764   0.38768   0.24422   0.00000  Uiso   1.00
H485   H     0.93618   0.40004   0.21799   0.00000  Uiso   1.00
H486   H     0.94608   0.35406   0.25745   0.00000  Uiso   1.00
H487   H     0.98771   0.38036   0.22840   0.00000  Uiso   1.00
O488   O     0.70750   0.57717   0.21540   0.00000  Uiso   1.00
C489   C     0.70689   0.61400   0.24629   0.00000  Uiso   1.00
H490   H     0.72437   0.64325   0.23191   0.00000  Uiso   1.00
H491   H     0.72174   0.60357   0.27817   0.00000  Uiso   1.00
H492   H     0.67536   0.62722   0.25264   0.00000  Uiso   1.00
C493   C     0.08739   0.83372   0.25087   0.00000  Uiso   1.00
C494   C     0.24600   0.83291   0.24923   0.00000  Uiso   1.00
C495   C     0.09214   0.84512   0.02316   0.00000  Uiso   1.00
C496   C     0.24050   0.82770   0.47682   0.00000  Uiso   1.00
C497   C     0.02217   0.79622   0.27024   0.00000  Uiso   1.00
C498   C     0.31148   0.87143   0.23139   0.00000  Uiso   1.00
C499   C     0.31312   0.79285   0.26448   0.00000  Uiso   1.00
C500   C     0.02072   0.87269   0.23352   0.00000  Uiso   1.00
C501   C     0.29075   0.83199   0.24777   0.00000  Uiso   1.00
C502   C     0.04275   0.83441   0.25159   0.00000  Uiso   1.00
C503   C     0.14407   0.69204   0.21972   0.00000  Uiso   1.00
C504   C     0.18940   0.97462   0.28016   0.00000  Uiso   1.00
C505   C     0.18936   0.69087   0.28018   0.00000  Uiso   1.00
C506   C     0.14419   0.97579   0.21963   0.00000  Uiso   1.00
C507   C     0.16679   0.83340   0.16448   0.00000  Uiso   1.00
C508   C     0.16667   0.83322   0.33548   0.00000  Uiso   1.00
C509   C     0.20123   0.81988   0.40696   0.00000  Uiso   1.00
C510   C     0.13040   0.84638   0.09361   0.00000  Uiso   1.00
C511   C     0.16588   0.83333   0.38371   0.00000  Uiso   1.00
C512   C     0.16631   0.83346   0.11622   0.00000  Uiso   1.00
C513   C     0.13018   0.84810   0.40578   0.00000  Uiso   1.00
C514   C     0.20186   0.82109   0.09292   0.00000  Uiso   1.00
C515   C     0.12912   0.84678   0.45284   0.00000  Uiso   1.00
C516   C     0.20299   0.82805   0.04662   0.00000  Uiso   1.00
C517   C     0.16605   0.83674   0.47633   0.00000  Uiso   1.00
C518   C     0.16601   0.83596   0.02329   0.00000  Uiso   1.00
C519   C     0.20310   0.82739   0.45308   0.00000  Uiso   1.00
C520   C     0.12899   0.84227   0.04699   0.00000  Uiso   1.00
C521   C     0.09251   0.85360   0.47738   0.00000  Uiso   1.00
C522   C     0.24021   0.82981   0.02323   0.00000  Uiso   1.00
Cu523  Cu    0.16667   0.88022   0.25000   0.00000  Uiso   1.00
Cu524  Cu    0.16667   0.78645   0.25000   0.00000  Uiso   1.00
H525   H     0.12582   0.71116   0.19556   0.00000  Uiso   1.00
H526   H     0.20771   0.95549   0.30427   0.00000  Uiso   1.00
H527   H     0.20765   0.70906   0.30428   0.00000  Uiso   1.00
H528   H     0.12616   0.95758   0.19531   0.00000  Uiso   1.00
N529   N     0.16667   0.95069   0.25000   0.00000  Uiso   1.00
N530   N     0.16667   0.71598   0.25000   0.00000  Uiso   1.00
O531   O     0.10655   0.87291   0.24999   0.00000  Uiso   1.00
O532   O     0.22679   0.79375   0.25000   0.00000  Uiso   1.00
O533   O     0.22679   0.87291   0.25000   0.00000  Uiso   1.00
O534   O     0.10655   0.79375   0.24999   0.00000  Uiso   1.00
O535   O     0.16666   0.87293   0.18513   0.00000  Uiso   1.00
O536   O     0.16668   0.79373   0.31487   0.00000  Uiso   1.00
O537   O     0.16668   0.87293   0.31487   0.00000  Uiso   1.00
O538   O     0.16666   0.79373   0.18513   0.00000  Uiso   1.00
Br539  Br    0.24240   0.78354   0.37540   0.00000  Uiso   1.00
Br540  Br    0.08679   0.87653   0.12679   0.00000  Uiso   1.00
Br541  Br    0.08339   0.86543   0.36901   0.00000  Uiso   1.00
Br542  Br    0.24695   0.79115   0.12442   0.00000  Uiso   1.00
O543   O     0.05582   0.86404   0.45674   0.00000  Uiso   1.00
C544   C     0.04590   0.91157   0.46472   0.00000  Uiso   1.00
H545   H     0.01843   0.92130   0.44495   0.00000  Uiso   1.00
H546   H     0.03838   0.91754   0.00027   0.00000  Uiso   1.00
H547   H     0.07097   0.93509   0.45398   0.00000  Uiso   1.00
O548   O     0.27650   0.83789   0.04522   0.00000  Uiso   1.00
C549   C     0.27900   0.88642   0.05357   0.00000  Uiso   1.00
H550   H     0.25400   0.89871   0.07588   0.00000  Uiso   1.00
H551   H     0.27859   0.90720   0.02218   0.00000  Uiso   1.00
H552   H     0.30836   0.89333   0.07045   0.00000  Uiso   1.00
Br553  Br    0.04134   0.82349   0.04776   0.00000  Uiso   1.00
Br554  Br    0.29298   0.83634   0.44881   0.00000  Uiso   1.00
O555   O     0.04210   0.76886   0.30201   0.00000  Uiso   1.00
C556   C     0.05097   0.72381   0.28565   0.00000  Uiso   1.00
H557   H     0.07953   0.71074   0.30161   0.00000  Uiso   1.00
H558   H     0.05623   0.72317   0.24910   0.00000  Uiso   1.00
H559   H     0.02637   0.69957   0.29547   0.00000  Uiso   1.00
O560   O     0.29030   0.91061   0.21601   0.00000  Uiso   1.00
C561   C     0.28596   0.90753   0.16964   0.00000  Uiso   1.00
H562   H     0.27400   0.94158   0.15691   0.00000  Uiso   1.00
H563   H     0.26332   0.88056   0.16115   0.00000  Uiso   1.00
H564   H     0.31561   0.90035   0.15264   0.00000  Uiso   1.00
O565   O     0.29351   0.75325   0.27963   0.00000  Uiso   1.00
C566   C     0.29097   0.72102   0.24422   0.00000  Uiso   1.00
H567   H     0.26952   0.73338   0.21799   0.00000  Uiso   1.00
H568   H     0.27941   0.68740   0.25745   0.00000  Uiso   1.00
H569   H     0.32104   0.71369   0.22840   0.00000  Uiso   1.00
O570   O     0.04084   0.91050   0.21540   0.00000  Uiso   1.00
C571   C     0.04022   0.94733   0.24629   0.00000  Uiso   1.00
H572   H     0.05770   0.97658   0.23191   0.00000  Uiso   1.00
H573   H     0.05508   0.93690   0.27817   0.00000  Uiso   1.00
H574   H     0.00869   0.96055   0.25264   0.00000  Uiso   1.00
C575   C     0.42073   0.83372   0.25087   0.00000  Uiso   1.00
C576   C     0.57934   0.83291   0.24923   0.00000  Uiso   1.00
C577   C     0.42547   0.84512   0.02316   0.00000  Uiso   1.00
C578   C     0.57383   0.82770   0.47682   0.00000  Uiso   1.00
C579   C     0.35550   0.79622   0.27024   0.00000  Uiso   1.00
C580   C     0.64481   0.87143   0.23139   0.00000  Uiso   1.00
C581   C     0.64645   0.79285   0.26448   0.00000  Uiso   1.00
C582   C     0.35406   0.87269   0.23352   0.00000  Uiso   1.00
C583   C     0.62408   0.83199   0.24777   0.00000  Uiso   1.00
C584   C     0.37608   0.83441   0.25159   0.00000  Uiso   1.00
C585   C     0.47741   0.69204   0.21972   0.00000  Uiso   1.00
C586   C     0.52273   0.97462   0.28016   0.00000  Uiso   1.00
C587   C     0.52270   0.69087   0.28018   0.00000  Uiso   1.00
C588   C     0.47752   0.97579   0.21963   0.00000  Uiso   1.00
C589   C     0.50012   0.83340   0.16448   0.00000  Uiso   1.00
C590   C     0.50000   0.83322   0.33548   0.00000  Uiso   1.00
C591   C     0.53456   0.81988   0.40696   0.00000  Uiso   1.00
C592   C     0.46373   0.84638   0.09361   0.00000  Uiso   1.00
C593   C     0.49922   0.83333   0.38371   0.00000  Uiso   1.00
C594   C     0.49964   0.83346   0.11622   0.00000  Uiso   1.00
C595   C     0.46352   0.84810   0.40578   0.00000  Uiso   1.00
C596   C     0.53520   0.82109   0.09292   0.00000  Uiso   1.00
C597   C     0.46246   0.84678   0.45284   0.00000  Uiso   1.00
C598   C     0.53632   0.82805   0.04662   0.00000  Uiso   1.00
C599   C     0.49938   0.83674   0.47633   0.00000  Uiso   1.00
C600   C     0.49934   0.83596   0.02329   0.00000  Uiso   1.00
C601   C     0.53643   0.82739   0.45308   0.00000  Uiso   1.00
C602   C     0.46233   0.84227   0.04699   0.00000  Uiso   1.00
C603   C     0.42584   0.85360   0.47738   0.00000  Uiso   1.00
C604   C     0.57354   0.82981   0.02323   0.00000  Uiso   1.00
Cu605  Cu    0.50000   0.88022   0.25000   0.00000  Uiso   1.00
Cu606  Cu    0.50000   0.78645   0.25000   0.00000  Uiso   1.00
H607   H     0.45915   0.71116   0.19556   0.00000  Uiso   1.00
H608   H     0.54105   0.95549   0.30427   0.00000  Uiso   1.00
H609   H     0.54098   0.70906   0.30428   0.00000  Uiso   1.00
H610   H     0.45950   0.95758   0.19531   0.00000  Uiso   1.00
N611   N     0.50000   0.95069   0.25000   0.00000  Uiso   1.00
N612   N     0.50000   0.71598   0.25000   0.00000  Uiso   1.00
O613   O     0.43988   0.87291   0.24999   0.00000  Uiso   1.00
O614   O     0.56012   0.79375   0.25000   0.00000  Uiso   1.00
O615   O     0.56012   0.87291   0.25000   0.00000  Uiso   1.00
O616   O     0.43988   0.79375   0.24999   0.00000  Uiso   1.00
O617   O     0.49999   0.87293   0.18513   0.00000  Uiso   1.00
O618   O     0.50001   0.79373   0.31487   0.00000  Uiso   1.00
O619   O     0.50001   0.87293   0.31487   0.00000  Uiso   1.00
O620   O     0.49999   0.79373   0.18513   0.00000  Uiso   1.00
Br621  Br    0.57574   0.78354   0.37540   0.00000  Uiso   1.00
Br622  Br    0.42013   0.87653   0.12679   0.00000  Uiso   1.00
Br623  Br    0.41673   0.86543   0.36901   0.00000  Uiso   1.00
Br624  Br    0.58029   0.79115   0.12442   0.00000  Uiso   1.00
O625   O     0.38915   0.86404   0.45674   0.00000  Uiso   1.00
C626   C     0.37923   0.91157   0.46472   0.00000  Uiso   1.00
H627   H     0.35177   0.92130   0.44495   0.00000  Uiso   1.00
H628   H     0.37171   0.91754   0.00027   0.00000  Uiso   1.00
H629   H     0.40430   0.93509   0.45398   0.00000  Uiso   1.00
O630   O     0.60983   0.83789   0.04522   0.00000  Uiso   1.00
C631   C     0.61233   0.88642   0.05357   0.00000  Uiso   1.00
H632   H     0.58734   0.89871   0.07588   0.00000  Uiso   1.00
H633   H     0.61193   0.90720   0.02218   0.00000  Uiso   1.00
H634   H     0.64169   0.89333   0.07045   0.00000  Uiso   1.00
Br635  Br    0.37467   0.82349   0.04776   0.00000  Uiso   1.00
Br636  Br    0.62631   0.83634   0.44881   0.00000  Uiso   1.00
O637   O     0.37544   0.76886   0.30201   0.00000  Uiso   1.00
C638   C     0.38430   0.72381   0.28565   0.00000  Uiso   1.00
H639   H     0.41286   0.71074   0.30161   0.00000  Uiso   1.00
H640   H     0.38956   0.72317   0.24910   0.00000  Uiso   1.00
H641   H     0.35970   0.69957   0.29547   0.00000  Uiso   1.00
O642   O     0.62364   0.91061   0.21601   0.00000  Uiso   1.00
C643   C     0.61930   0.90753   0.16964   0.00000  Uiso   1.00
H644   H     0.60733   0.94158   0.15691   0.00000  Uiso   1.00
H645   H     0.59665   0.88056   0.16115   0.00000  Uiso   1.00
H646   H     0.64895   0.90035   0.15264   0.00000  Uiso   1.00
O647   O     0.62684   0.75325   0.27963   0.00000  Uiso   1.00
C648   C     0.62431   0.72102   0.24422   0.00000  Uiso   1.00
H649   H     0.60285   0.73338   0.21799   0.00000  Uiso   1.00
H650   H     0.61275   0.68740   0.25745   0.00000  Uiso   1.00
H651   H     0.65437   0.71369   0.22840   0.00000  Uiso   1.00
O652   O     0.37417   0.91050   0.21540   0.00000  Uiso   1.00
C653   C     0.37356   0.94733   0.24629   0.00000  Uiso   1.00
H654   H     0.39103   0.97658   0.23191   0.00000  Uiso   1.00
H655   H     0.38841   0.93690   0.27817   0.00000  Uiso   1.00
H656   H     0.34203   0.96055   0.25264   0.00000  Uiso   1.00
C657   C     0.75406   0.83372   0.25087   0.00000  Uiso   1.00
C658   C     0.91267   0.83291   0.24923   0.00000  Uiso   1.00
C659   C     0.75881   0.84512   0.02316   0.00000  Uiso   1.00
C660   C     0.90717   0.82770   0.47682   0.00000  Uiso   1.00
C661   C     0.68883   0.79622   0.27024   0.00000  Uiso   1.00
C662   C     0.97814   0.87143   0.23139   0.00000  Uiso   1.00
C663   C     0.97978   0.79285   0.26448   0.00000  Uiso   1.00
C664   C     0.68739   0.87269   0.23352   0.00000  Uiso   1.00
C665   C     0.95741   0.83199   0.24777   0.00000  Uiso   1.00
C666   C     0.70942   0.83441   0.25159   0.00000  Uiso   1.00
C667   C     0.81074   0.69204   0.21972   0.00000  Uiso   1.00
C668   C     0.85606   0.97462   0.28016   0.00000  Uiso   1.00
C669   C     0.85603   0.69087   0.28018   0.00000  Uiso   1.00
C670   C     0.81086   0.97579   0.21963   0.00000  Uiso   1.00
C671   C     0.83346   0.83340   0.16448   0.00000  Uiso   1.00
C672   C     0.83333   0.83322   0.33548   0.00000  Uiso   1.00
C673   C     0.86789   0.81988   0.40696   0.00000  Uiso   1.00
C674   C     0.79706   0.84638   0.09361   0.00000  Uiso   1.00
C675   C     0.83255   0.83333   0.38371   0.00000  Uiso   1.00
C676   C     0.83297   0.83346   0.11622   0.00000  Uiso   1.00
C677   C     0.79685   0.84810   0.40578   0.00000  Uiso   1.00
C678   C     0.86853   0.82109   0.09292   0.00000  Uiso   1.00
C679   C     0.79579   0.84678   0.45284   0.00000  Uiso   1.00
C680   C     0.86965   0.82805   0.04662   0.00000  Uiso   1.00
C681   C     0.83271   0.83674   0.47633   0.00000  Uiso   1.00
C682   C     0.83268   0.83596   0.02329   0.00000  Uiso   1.00
C683   C     0.86977   0.82739   0.45308   0.00000  Uiso   1.00
C684   C     0.79566   0.84227   0.04699   0.00000  Uiso   1.00
C685   C     0.75918   0.85360   0.47738   0.00000  Uiso   1.00
C686   C     0.90688   0.82981   0.02323   0.00000  Uiso   1.00
Cu687  Cu    0.83333   0.88022   0.25000   0.00000  Uiso   1.00
Cu688  Cu    0.83333   0.78645   0.25000   0.00000  Uiso   1.00
H689   H     0.79249   0.71116   0.19556   0.00000  Uiso   1.00
H690   H     0.87438   0.95549   0.30427   0.00000  Uiso   1.00
H691   H     0.87431   0.70906   0.30428   0.00000  Uiso   1.00
H692   H     0.79283   0.95758   0.19531   0.00000  Uiso   1.00
N693   N     0.83333   0.95069   0.25000   0.00000  Uiso   1.00
N694   N     0.83333   0.71598   0.25000   0.00000  Uiso   1.00
O695   O     0.77321   0.87291   0.24999   0.00000  Uiso   1.00
O696   O     0.89345   0.79375   0.25000   0.00000  Uiso   1.00
O697   O     0.89345   0.87291   0.25000   0.00000  Uiso   1.00
O698   O     0.77321   0.79375   0.24999   0.00000  Uiso   1.00
O699   O     0.83332   0.87293   0.18513   0.00000  Uiso   1.00
O700   O     0.83334   0.79373   0.31487   0.00000  Uiso   1.00
O701   O     0.83334   0.87293   0.31487   0.00000  Uiso   1.00
O702   O     0.83332   0.79373   0.18513   0.00000  Uiso   1.00
Br703  Br    0.90907   0.78354   0.37540   0.00000  Uiso   1.00
Br704  Br    0.75346   0.87653   0.12679   0.00000  Uiso   1.00
Br705  Br    0.75006   0.86543   0.36901   0.00000  Uiso   1.00
Br706  Br    0.91362   0.79115   0.12442   0.00000  Uiso   1.00
O707   O     0.72249   0.86404   0.45674   0.00000  Uiso   1.00
C708   C     0.71257   0.91157   0.46472   0.00000  Uiso   1.00
H709   H     0.68510   0.92130   0.44495   0.00000  Uiso   1.00
H710   H     0.70504   0.91754   0.00027   0.00000  Uiso   1.00
H711   H     0.73764   0.93509   0.45398   0.00000  Uiso   1.00
O712   O     0.94317   0.83789   0.04522   0.00000  Uiso   1.00
C713   C     0.94566   0.88642   0.05357   0.00000  Uiso   1.00
H714   H     0.92067   0.89871   0.07588   0.00000  Uiso   1.00
H715   H     0.94526   0.90720   0.02218   0.00000  Uiso   1.00
H716   H     0.97503   0.89333   0.07045   0.00000  Uiso   1.00
Br717  Br    0.70800   0.82349   0.04776   0.00000  Uiso   1.00
Br718  Br    0.95964   0.83634   0.44881   0.00000  Uiso   1.00
O719   O     0.70877   0.76886   0.30201   0.00000  Uiso   1.00
C720   C     0.71763   0.72381   0.28565   0.00000  Uiso   1.00
H721   H     0.74619   0.71074   0.30161   0.00000  Uiso   1.00
H722   H     0.72289   0.72317   0.24910   0.00000  Uiso   1.00
H723   H     0.69303   0.69957   0.29547   0.00000  Uiso   1.00
O724   O     0.95697   0.91061   0.21601   0.00000  Uiso   1.00
C725   C     0.95263   0.90753   0.16964   0.00000  Uiso   1.00
H726   H     0.94066   0.94158   0.15691   0.00000  Uiso   1.00
H727   H     0.92999   0.88056   0.16115   0.00000  Uiso   1.00
H728   H     0.98228   0.90035   0.15264   0.00000  Uiso   1.00
O729   O     0.96017   0.75325   0.27963   0.00000  Uiso   1.00
C730   C     0.95764   0.72102   0.24422   0.00000  Uiso   1.00
H731   H     0.93618   0.73338   0.21799   0.00000  Uiso   1.00
H732   H     0.94608   0.68740   0.25745   0.00000  Uiso   1.00
H733   H     0.98771   0.71369   0.22840   0.00000  Uiso   1.00
O734   O     0.70750   0.91050   0.21540   0.00000  Uiso   1.00
C735   C     0.70689   0.94733   0.24629   0.00000  Uiso   1.00
H736   H     0.72437   0.97658   0.23191   0.00000  Uiso   1.00
H737   H     0.72174   0.93690   0.27817   0.00000  Uiso   1.00
H738   H     0.67536   0.96055   0.25264   0.00000  Uiso   1.00
C739   C     0.08739   0.16705   0.75087   0.00000  Uiso   1.00
C740   C     0.24600   0.16624   0.74923   0.00000  Uiso   1.00
C741   C     0.09214   0.17846   0.52316   0.00000  Uiso   1.00
C742   C     0.24050   0.16104   0.97682   0.00000  Uiso   1.00
C743   C     0.02217   0.12956   0.77024   0.00000  Uiso   1.00
C744   C     0.31148   0.20476   0.73139   0.00000  Uiso   1.00
C745   C     0.31312   0.12619   0.76448   0.00000  Uiso   1.00
C746   C     0.02072   0.20602   0.73352   0.00000  Uiso   1.00
C747   C     0.29075   0.16532   0.74777   0.00000  Uiso   1.00
C748   C     0.04275   0.16775   0.75159   0.00000  Uiso   1.00
C749   C     0.14407   0.02538   0.71972   0.00000  Uiso   1.00
C750   C     0.18940   0.30795   0.78016   0.00000  Uiso   1.00
C751   C     0.18936   0.02421   0.78018   0.00000  Uiso   1.00
C752   C     0.14419   0.30912   0.71963   0.00000  Uiso   1.00
C753   C     0.16679   0.16673   0.66448   0.00000  Uiso   1.00
C754   C     0.16667   0.16655   0.83548   0.00000  Uiso   1.00
C755   C     0.20123   0.15322   0.90696   0.00000  Uiso   1.00
C756   C     0.13040   0.17972   0.59361   0.00000  Uiso   1.00
C757   C     0.16588   0.16667   0.88371   0.00000  Uiso   1.00
C758   C     0.16631   0.16679   0.61622   0.00000  Uiso   1.00
C759   C     0.13018   0.18143   0.90578   0.00000  Uiso   1.00
C760   C     0.20186   0.15443   0.59292   0.00000  Uiso   1.00
C761   C     0.12912   0.18011   0.95284   0.00000  Uiso   1.00
C762   C     0.20299   0.16138   0.54662   0.00000  Uiso   1.00
C763   C     0.16605   0.17007   0.97633   0.00000  Uiso   1.00
C764   C     0.16601   0.16930   0.52329   0.00000  Uiso   1.00
C765   C     0.20310   0.16073   0.95308   0.00000  Uiso   1.00
C766   C     0.12899   0.17560   0.54699   0.00000  Uiso   1.00
C767   C     0.09251   0.18693   0.97738   0.00000  Uiso   1.00
C768   C     0.24021   0.16315   0.52323   0.00000  Uiso   1.00
Cu769  Cu    0.16667   0.21355   0.75000   0.00000  Uiso   1.00
Cu770  Cu    0.16667   0.11978   0.75000   0.00000  Uiso   1.00
H771   H     0.12582   0.04449   0.69556   0.00000  Uiso   1.00
H772   H     0.20771   0.28883   0.80427   0.00000  Uiso   1.00
H773   H     0.20765   0.04239   0.80428   0.00000  Uiso   1.00
H774   H     0.12616   0.29091   0.69531   0.00000  Uiso   1.00
N775   N     0.16667   0.28402   0.75000   0.00000  Uiso   1.00
N776   N     0.16667   0.04931   0.75000   0.00000  Uiso   1.00
O777   O     0.10655   0.20625   0.74999   0.00000  Uiso   1.00
O778   O     0.22679   0.12709   0.75000   0.00000  Uiso   1.00
O779   O     0.22679   0.20625   0.75000   0.00000  Uiso   1.00
O780   O     0.10655   0.12709   0.74999   0.00000  Uiso   1.00
O781   O     0.16666   0.20627   0.68513   0.00000  Uiso   1.00
O782   O     0.16668   0.12707   0.81487   0.00000  Uiso   1.00
O783   O     0.16668   0.20627   0.81487   0.00000  Uiso   1.00
O784   O     0.16666   0.12707   0.68513   0.00000  Uiso   1.00
Br785  Br    0.24240   0.11688   0.87540   0.00000  Uiso   1.00
Br786  Br    0.08679   0.20987   0.62679   0.00000  Uiso   1.00
Br787  Br    0.08339   0.19877   0.86901   0.00000  Uiso   1.00
Br788  Br    0.24695   0.12448   0.62442   0.00000  Uiso   1.00
O789   O     0.05582   0.19737   0.95674   0.00000  Uiso   1.00
C790   C     0.04590   0.24490   0.96472   0.00000  Uiso   1.00
H791   H     0.01843   0.25463   0.94495   0.00000  Uiso   1.00
H792   H     0.03838   0.25087   0.50027   0.00000  Uiso   1.00
H793   H     0.07097   0.26842   0.95398   0.00000  Uiso   1.00
O794   O     0.27650   0.17123   0.54522   0.00000  Uiso   1.00
C795   C     0.27900   0.21975   0.55357   0.00000  Uiso   1.00
H796   H     0.25400   0.23204   0.57588   0.00000  Uiso   1.00
H797   H     0.27859   0.24054   0.52218   0.00000  Uiso   1.00
H798   H     0.30836   0.22667   0.57045   0.00000  Uiso   1.00
Br799  Br    0.04134   0.15682   0.54776   0.00000  Uiso   1.00
Br800  Br    0.29298   0.16967   0.94881   0.00000  Uiso   1.00
O801   O     0.04210   0.10220   0.80201   0.00000  Uiso   1.00
C802   C     0.05097   0.05715   0.78565   0.00000  Uiso   1.00
H803   H     0.07953   0.04408   0.80161   0.00000  Uiso   1.00
H804   H     0.05623   0.05650   0.74910   0.00000  Uiso   1.00
H805   H     0.02637   0.03291   0.79547   0.00000  Uiso   1.00
O806   O     0.29030   0.24394   0.71601   0.00000  Uiso   1.00
C807   C     0.28596   0.24086   0.66964   0.00000  Uiso   1.00
H808   H     0.27400   0.27491   0.65691   0.00000  Uiso   1.00
H809   H     0.26332   0.21389   0.66115   0.00000  Uiso   1.00
H810   H     0.31561   0.23369   0.65264   0.00000  Uiso   1.00
O811   O     0.29351   0.08659   0.77963   0.00000  Uiso   1.00
C812   C     0.29097   0.05435   0.74422   0.00000  Uiso   1.00
H813   H     0.26952   0.06671   0.71799   0.00000  Uiso   1.00
H814   H     0.27941   0.02073   0.75745   0.00000  Uiso   1.00
H815   H     0.32104   0.04703   0.72840   0.00000  Uiso   1.00
O816   O     0.04084   0.24383   0.71540   0.00000  Uiso   1.00
C817   C     0.04022   0.28066   0.74629   0.00000  Uiso   1.00
H818   H     0.05770   0.30991   0.73191   0.00000  Uiso   1.00
H819   H     0.05508   0.27024   0.77817   0.00000  Uiso   1.00
H820   H     0.00869   0.29388   0.75264   0.00000  Uiso   1.00
C821   C     0.42073   0.16705   0.75087   0.00000  Uiso   1.00
C822   C     0.57934   0.16624   0.74923   0.00000  Uiso   1.00
C823   C     0.42547   0.17846   0.52316   0.00000  Uiso   1.00
C824   C     0.57383   0.16104   0.97682   0.00000  Uiso   1.00
C825   C     0.35550   0.12956   0.77024   0.00000  Uiso   1.00
C826   C     0.64481   0.20476   0.73139   0.00000  Uiso   1.00
C827   C     0.64645   0.12619   0.76448   0.00000  Uiso   1.00
C828   C     0.35406   0.20602   0.73352   0.00000  Uiso   1.00
C829   C     0.62408   0.16532   0.74777   0.00000  Uiso   1.00
C830   C     0.37608   0.16775   0.75159   0.00000  Uiso   1.00
C831   C     0.47741   0.02538   0.71972   0.00000  Uiso   1.00
C832   C     0.52273   0.30795   0.78016   0.00000  Uiso   1.00
C833   C     0.52270   0.02421   0.78018   0.00000  Uiso   1.00
C834   C     0.47752   0.30912   0.71963   0.00000  Uiso   1.00
C835   C     0.50012   0.16673   0.66448   0.00000  Uiso   1.00
C836   C     0.50000   0.16655   0.83548   0.00000  Uiso   1.00
C837   C     0.53456   0.15322   0.90696   0.00000  Uiso   1.00
C838   C     0.46373   0.17972   0.59361   0.00000  Uiso   1.00
C839   C     0.49922   0.16667   0.88371   0.00000  Uiso   1.00
C840   C     0.49964   0.16679   0.61622   0.00000  Uiso   1.00
C841   C     0.46352   0.18143   0.90578   0.00000  Uiso   1.00
C842   C     0.53520   0.15443   0.59292   0.00000  Uiso   1.00
C843   C     0.46246   0.18011   0.95284   0.00000  Uiso   1.00
C844   C     0.53632   0.16138   0.54662   0.00000  Uiso   1.00
C845   C     0.49938   0.17007   0.97633   0.00000  Uiso   1.00
C846   C     0.49934   0.16930   0.52329   0.00000  Uiso   1.00
C847   C     0.53643   0.16073   0.95308   0.00000  Uiso   1.00
C848   C     0.46233   0.17560   0.54699   0.00000  Uiso   1.00
C849   C     0.42584   0.18693   0.97738   0.00000  Uiso   1.00
C850   C     0.57354   0.16315   0.52323   0.00000  Uiso   1.00
Cu851  Cu    0.50000   0.21355   0.75000   0.00000  Uiso   1.00
Cu852  Cu    0.50000   0.11978   0.75000   0.00000  Uiso   1.00
H853   H     0.45915   0.04449   0.69556   0.00000  Uiso   1.00
H854   H     0.54105   0.28883   0.80427   0.00000  Uiso   1.00
H855   H     0.54098   0.04239   0.80428   0.00000  Uiso   1.00
H856   H     0.45950   0.29091   0.69531   0.00000  Uiso   1.00
N857   N     0.50000   0.28402   0.75000   0.00000  Uiso   1.00
N858   N     0.50000   0.04931   0.75000   0.00000  Uiso   1.00
O859   O     0.43988   0.20625   0.74999   0.00000  Uiso   1.00
O860   O     0.56012   0.12709   0.75000   0.00000  Uiso   1.00
O861   O     0.56012   0.20625   0.75000   0.00000  Uiso   1.00
O862   O     0.43988   0.12709   0.74999   0.00000  Uiso   1.00
O863   O     0.49999   0.20627   0.68513   0.00000  Uiso   1.00
O864   O     0.50001   0.12707   0.81487   0.00000  Uiso   1.00
O865   O     0.50001   0.20627   0.81487   0.00000  Uiso   1.00
O866   O     0.49999   0.12707   0.68513   0.00000  Uiso   1.00
Br867  Br    0.57574   0.11688   0.87540   0.00000  Uiso   1.00
Br868  Br    0.42013   0.20987   0.62679   0.00000  Uiso   1.00
Br869  Br    0.41673   0.19877   0.86901   0.00000  Uiso   1.00
Br870  Br    0.58029   0.12448   0.62442   0.00000  Uiso   1.00
O871   O     0.38915   0.19737   0.95674   0.00000  Uiso   1.00
C872   C     0.37923   0.24490   0.96472   0.00000  Uiso   1.00
H873   H     0.35177   0.25463   0.94495   0.00000  Uiso   1.00
H874   H     0.37171   0.25087   0.50027   0.00000  Uiso   1.00
H875   H     0.40430   0.26842   0.95398   0.00000  Uiso   1.00
O876   O     0.60983   0.17123   0.54522   0.00000  Uiso   1.00
C877   C     0.61233   0.21975   0.55357   0.00000  Uiso   1.00
H878   H     0.58734   0.23204   0.57588   0.00000  Uiso   1.00
H879   H     0.61193   0.24054   0.52218   0.00000  Uiso   1.00
H880   H     0.64169   0.22667   0.57045   0.00000  Uiso   1.00
Br881  Br    0.37467   0.15682   0.54776   0.00000  Uiso   1.00
Br882  Br    0.62631   0.16967   0.94881   0.00000  Uiso   1.00
O883   O     0.37544   0.10220   0.80201   0.00000  Uiso   1.00
C884   C     0.38430   0.05715   0.78565   0.00000  Uiso   1.00
H885   H     0.41286   0.04408   0.80161   0.00000  Uiso   1.00
H886   H     0.38956   0.05650   0.74910   0.00000  Uiso   1.00
H887   H     0.35970   0.03291   0.79547   0.00000  Uiso   1.00
O888   O     0.62364   0.24394   0.71601   0.00000  Uiso   1.00
C889   C     0.61930   0.24086   0.66964   0.00000  Uiso   1.00
H890   H     0.60733   0.27491   0.65691   0.00000  Uiso   1.00
H891   H     0.59665   0.21389   0.66115   0.00000  Uiso   1.00
H892   H     0.64895   0.23369   0.65264   0.00000  Uiso   1.00
O893   O     0.62684   0.08659   0.77963   0.00000  Uiso   1.00
C894   C     0.62431   0.05435   0.74422   0.00000  Uiso   1.00
H895   H     0.60285   0.06671   0.71799   0.00000  Uiso   1.00
H896   H     0.61275   0.02073   0.75745   0.00000  Uiso   1.00
H897   H     0.65437   0.04703   0.72840   0.00000  Uiso   1.00
O898   O     0.37417   0.24383   0.71540   0.00000  Uiso   1.00
C899   C     0.37356   0.28066   0.74629   0.00000  Uiso   1.00
H900   H     0.39103   0.30991   0.73191   0.00000  Uiso   1.00
H901   H     0.38841   0.27024   0.77817   0.00000  Uiso   1.00
H902   H     0.34203   0.29388   0.75264   0.00000  Uiso   1.00
C903   C     0.75406   0.16705   0.75087   0.00000  Uiso   1.00
C904   C     0.91267   0.16624   0.74923   0.00000  Uiso   1.00
C905   C     0.75881   0.17846   0.52316   0.00000  Uiso   1.00
C906   C     0.90717   0.16104   0.97682   0.00000  Uiso   1.00
C907   C     0.68883   0.12956   0.77024   0.00000  Uiso   1.00
C908   C     0.97814   0.20476   0.73139   0.00000  Uiso   1.00
C909   C     0.97978   0.12619   0.76448   0.00000  Uiso   1.00
C910   C     0.68739   0.20602   0.73352   0.00000  Uiso   1.00
C911   C     0.95741   0.16532   0.74777   0.00000  Uiso   1.00
C912   C     0.70942   0.16775   0.75159   0.00000  Uiso   1.00
C913   C     0.81074   0.02538   0.71972   0.00000  Uiso   1.00
C914   C     0.85606   0.30795   0.78016   0.00000  Uiso   1.00
C915   C     0.85603   0.02421   0.78018   0.00000  Uiso   1.00
C916   C     0.81086   0.30912   0.71963   0.00000  Uiso   1.00
C917   C     0.83346   0.16673   0.66448   0.00000  Uiso   1.00
C918   C     0.83333   0.16655   0.83548   0.00000  Uiso   1.00
C919   C     0.86789   0.15322   0.90696   0.00000  Uiso   1.00
C920   C     0.79706   0.17972   0.59361   0.00000  Uiso   1.00
C921   C     0.83255   0.16667   0.88371   0.00000  Uiso   1.00
C922   C     0.83297   0.16679   0.61622   0.00000  Uiso   1.00
C923   C     0.79685   0.18143   0.90578   0.00000  Uiso   1.00
C924   C     0.86853   0.15443   0.59292   0.00000  Uiso   1.00
C925   C     0.79579   0.18011   0.95284   0.00000  Uiso   1.00
C926   C     0.86965   0.16138   0.54662   0.00000  Uiso   1.00
C927   C     0.83271   0.17007   0.97633   0.00000  Uiso   1.00
C928   C     0.83268   0.16930   0.52329   0.00000  Uiso   1.00
C929   C     0.86977   0.16073   0.95308   0.00000  Uiso   1.00
C930   C     0.79566   0.17560   0.54699   0.00000  Uiso   1.00
C931   C     0.75918   0.18693   0.97738   0.00000  Uiso   1.00
C932   C     0.90688   0.16315   0.52323   0.00000  Uiso   1.00
Cu933  Cu    0.83333   0.21355   0.75000   0.00000  Uiso   1.00
Cu934  Cu    0.83333   0.11978   0.75000   0.00000  Uiso   1.00
H935   H     0.79249   0.04449   0.69556   0.00000  Uiso   1.00
H936   H     0.87438   0.28883   0.80427   0.00000  Uiso   1.00
H937   H     0.87431   0.04239   0.80428   0.00000  Uiso   1.00
H938   H     0.79283   0.29091   0.69531   0.00000  Uiso   1.00
N939   N     0.83333   0.28402   0.75000   0.00000  Uiso   1.00
N940   N     0.83333   0.04931   0.75000   0.00000  Uiso   1.00
O941   O     0.77321   0.20625   0.74999   0.00000  Uiso   1.00
O942   O     0.89345   0.12709   0.75000   0.00000  Uiso   1.00
O943   O     0.89345   0.20625   0.75000   0.00000  Uiso   1.00
O944   O     0.77321   0.12709   0.74999   0.00000  Uiso   1.00
O945   O     0.83332   0.20627   0.68513   0.00000  Uiso   1.00
O946   O     0.83334   0.12707   0.81487   0.00000  Uiso   1.00
O947   O     0.83334   0.20627   0.81487   0.00000  Uiso   1.00
O948   O     0.83332   0.12707   0.68513   0.00000  Uiso   1.00
Br949  Br    0.90907   0.11688   0.87540   0.00000  Uiso   1.00
Br950  Br    0.75346   0.20987   0.62679   0.00000  Uiso   1.00
Br951  Br    0.75006   0.19877   0.86901   0.00000  Uiso   1.00
Br952  Br    0.91362   0.12448   0.62442   0.00000  Uiso   1.00
O953   O     0.72249   0.19737   0.95674   0.00000  Uiso   1.00
C954   C     0.71257   0.24490   0.96472   0.00000  Uiso   1.00
H955   H     0.68510   0.25463   0.94495   0.00000  Uiso   1.00
H956   H     0.70504   0.25087   0.50027   0.00000  Uiso   1.00
H957   H     0.73764   0.26842   0.95398   0.00000  Uiso   1.00
O958   O     0.94317   0.17123   0.54522   0.00000  Uiso   1.00
C959   C     0.94566   0.21975   0.55357   0.00000  Uiso   1.00
H960   H     0.92067   0.23204   0.57588   0.00000  Uiso   1.00
H961   H     0.94526   0.24054   0.52218   0.00000  Uiso   1.00
H962   H     0.97503   0.22667   0.57045   0.00000  Uiso   1.00
Br963  Br    0.70800   0.15682   0.54776   0.00000  Uiso   1.00
Br964  Br    0.95964   0.16967   0.94881   0.00000  Uiso   1.00
O965   O     0.70877   0.10220   0.80201   0.00000  Uiso   1.00
C966   C     0.71763   0.05715   0.78565   0.00000  Uiso   1.00
H967   H     0.74619   0.04408   0.80161   0.00000  Uiso   1.00
H968   H     0.72289   0.05650   0.74910   0.00000  Uiso   1.00
H969   H     0.69303   0.03291   0.79547   0.00000  Uiso   1.00
O970   O     0.95697   0.24394   0.71601   0.00000  Uiso   1.00
C971   C     0.95263   0.24086   0.66964   0.00000  Uiso   1.00
H972   H     0.94066   0.27491   0.65691   0.00000  Uiso   1.00
H973   H     0.92999   0.21389   0.66115   0.00000  Uiso   1.00
H974   H     0.98228   0.23369   0.65264   0.00000  Uiso   1.00
O975   O     0.96017   0.08659   0.77963   0.00000  Uiso   1.00
C976   C     0.95764   0.05435   0.74422   0.00000  Uiso   1.00
H977   H     0.93618   0.06671   0.71799   0.00000  Uiso   1.00
H978   H     0.94608   0.02073   0.75745   0.00000  Uiso   1.00
H979   H     0.98771   0.04703   0.72840   0.00000  Uiso   1.00
O980   O     0.70750   0.24383   0.71540   0.00000  Uiso   1.00
C981   C     0.70689   0.28066   0.74629   0.00000  Uiso   1.00
H982   H     0.72437   0.30991   0.73191   0.00000  Uiso   1.00
H983   H     0.72174   0.27024   0.77817   0.00000  Uiso   1.00
H984   H     0.67536   0.29388   0.75264   0.00000  Uiso   1.00
C985   C     0.08739   0.50039   0.75087   0.00000  Uiso   1.00
C986   C     0.24600   0.49958   0.74923   0.00000  Uiso   1.00
C987   C     0.09214   0.51179   0.52316   0.00000  Uiso   1.00
C988   C     0.24050   0.49437   0.97682   0.00000  Uiso   1.00
C989   C     0.02217   0.46289   0.77024   0.00000  Uiso   1.00
C990   C     0.31148   0.53809   0.73139   0.00000  Uiso   1.00
C991   C     0.31312   0.45952   0.76448   0.00000  Uiso   1.00
C992   C     0.02072   0.53936   0.73352   0.00000  Uiso   1.00
C993   C     0.29075   0.49865   0.74777   0.00000  Uiso   1.00
C994   C     0.04275   0.50108   0.75159   0.00000  Uiso   1.00
C995   C     0.14407   0.35871   0.71972   0.00000  Uiso   1.00
C996   C     0.18940   0.64129   0.78016   0.00000  Uiso   1.00
C997   C     0.18936   0.35754   0.78018   0.00000  Uiso   1.00
C998   C     0.14419   0.64245   0.71963   0.00000  Uiso   1.00
C999   C     0.16679   0.50007   0.66448   0.00000  Uiso   1.00
C1000  C     0.16667   0.49988   0.83548   0.00000  Uiso   1.00
C1001  C     0.20123   0.48655   0.90696   0.00000  Uiso   1.00
C1002  C     0.13040   0.51305   0.59361   0.00000  Uiso   1.00
C1003  C     0.16588   0.50000   0.88371   0.00000  Uiso   1.00
C1004  C     0.16631   0.50012   0.61622   0.00000  Uiso   1.00
C1005  C     0.13018   0.51477   0.90578   0.00000  Uiso   1.00
C1006  C     0.20186   0.48776   0.59292   0.00000  Uiso   1.00
C1007  C     0.12912   0.51344   0.95284   0.00000  Uiso   1.00
C1008  C     0.20299   0.49472   0.54662   0.00000  Uiso   1.00
C1009  C     0.16605   0.50341   0.97633   0.00000  Uiso   1.00
C1010  C     0.16601   0.50263   0.52329   0.00000  Uiso   1.00
C1011  C     0.20310   0.49406   0.95308   0.00000  Uiso   1.00
C1012  C     0.12899   0.50894   0.54699   0.00000  Uiso   1.00
C1013  C     0.09251   0.52027   0.97738   0.00000  Uiso   1.00
C1014  C     0.24021   0.49648   0.52323   0.00000  Uiso   1.00
Cu1015 Cu    0.16667   0.54689   0.75000   0.00000  Uiso   1.00
Cu1016 Cu    0.16667   0.45311   0.75000   0.00000  Uiso   1.00
H1017  H     0.12582   0.37783   0.69556   0.00000  Uiso   1.00
H1018  H     0.20771   0.62216   0.80427   0.00000  Uiso   1.00
H1019  H     0.20765   0.37573   0.80428   0.00000  Uiso   1.00
H1020  H     0.12616   0.62425   0.69531   0.00000  Uiso   1.00
N1021  N     0.16667   0.61736   0.75000   0.00000  Uiso   1.00
N1022  N     0.16667   0.38264   0.75000   0.00000  Uiso   1.00
O1023  O     0.10655   0.53958   0.74999   0.00000  Uiso   1.00
O1024  O     0.22679   0.46042   0.75000   0.00000  Uiso   1.00
O1025  O     0.22679   0.53958   0.75000   0.00000  Uiso   1.00
O1026  O     0.10655   0.46042   0.74999   0.00000  Uiso   1.00
O1027  O     0.16666   0.53960   0.68513   0.00000  Uiso   1.00
O1028  O     0.16668   0.46040   0.81487   0.00000  Uiso   1.00
O1029  O     0.16668   0.53960   0.81487   0.00000  Uiso   1.00
O1030  O     0.16666   0.46040   0.68513   0.00000  Uiso   1.00
Br1031 Br    0.24240   0.45021   0.87540   0.00000  Uiso   1.00
Br1032 Br    0.08679   0.54320   0.62679   0.00000  Uiso   1.00
Br1033 Br    0.08339   0.53210   0.86901   0.00000  Uiso   1.00
Br1034 Br    0.24695   0.45782   0.62442   0.00000  Uiso   1.00
O1035  O     0.05582   0.53071   0.95674   0.00000  Uiso   1.00
C1036  C     0.04590   0.57824   0.96472   0.00000  Uiso   1.00
H1037  H     0.01843   0.58797   0.94495   0.00000  Uiso   1.00
H1038  H     0.03838   0.58421   0.50027   0.00000  Uiso   1.00
H1039  H     0.07097   0.60176   0.95398   0.00000  Uiso   1.00
O1040  O     0.27650   0.50456   0.54522   0.00000  Uiso   1.00
C1041  C     0.27900   0.55308   0.55357   0.00000  Uiso   1.00
H1042  H     0.25400   0.56537   0.57588   0.00000  Uiso   1.00
H1043  H     0.27859   0.57387   0.52218   0.00000  Uiso   1.00
H1044  H     0.30836   0.56000   0.57045   0.00000  Uiso   1.00
Br1045 Br    0.04134   0.49016   0.54776   0.00000  Uiso   1.00
Br1046 Br    0.29298   0.50300   0.94881   0.00000  Uiso   1.00
O1047  O     0.04210   0.43553   0.80201   0.00000  Uiso   1.00
C1048  C     0.05097   0.39048   0.78565   0.00000  Uiso   1.00
H1049  H     0.07953   0.37741   0.80161   0.00000  Uiso   1.00
H1050  H     0.05623   0.38983   0.74910   0.00000  Uiso   1.00
H1051  H     0.02637   0.36624   0.79547   0.00000  Uiso   1.00
O1052  O     0.29030   0.57728   0.71601   0.00000  Uiso   1.00
C1053  C     0.28596   0.57420   0.66964   0.00000  Uiso   1.00
H1054  H     0.27400   0.60825   0.65691   0.00000  Uiso   1.00
H1055  H     0.26332   0.54722   0.66115   0.00000  Uiso   1.00
H1056  H     0.31561   0.56702   0.65264   0.00000  Uiso   1.00
O1057  O     0.29351   0.41992   0.77963   0.00000  Uiso   1.00
C1058  C     0.29097   0.38768   0.74422   0.00000  Uiso   1.00
H1059  H     0.26952   0.40004   0.71799   0.00000  Uiso   1.00
H1060  H     0.27941   0.35406   0.75745   0.00000  Uiso   1.00
H1061  H     0.32104   0.38036   0.72840   0.00000  Uiso   1.00
O1062  O     0.04084   0.57717   0.71540   0.00000  Uiso   1.00
C1063  C     0.04022   0.61400   0.74629   0.00000  Uiso   1.00
H1064  H     0.05770   0.64325   0.73191   0.00000  Uiso   1.00
H1065  H     0.05508   0.60357   0.77817   0.00000  Uiso   1.00
H1066  H     0.00869   0.62722   0.75264   0.00000  Uiso   1.00
C1067  C     0.42073   0.50039   0.75087   0.00000  Uiso   1.00
C1068  C     0.57934   0.49958   0.74923   0.00000  Uiso   1.00
C1069  C     0.42547   0.51179   0.52316   0.00000  Uiso   1.00
C1070  C     0.57383   0.49437   0.97682   0.00000  Uiso   1.00
C1071  C     0.35550   0.46289   0.77024   0.00000  Uiso   1.00
C1072  C     0.64481   0.53809   0.73139   0.00000  Uiso   1.00
C1073  C     0.64645   0.45952   0.76448   0.00000  Uiso   1.00
C1074  C     0.35406   0.53936   0.73352   0.00000  Uiso   1.00
C1075  C     0.62408   0.49865   0.74777   0.00000  Uiso   1.00
C1076  C     0.37608   0.50108   0.75159   0.00000  Uiso   1.00
C1077  C     0.47741   0.35871   0.71972   0.00000  Uiso   1.00
C1078  C     0.52273   0.64129   0.78016   0.00000  Uiso   1.00
C1079  C     0.52270   0.35754   0.78018   0.00000  Uiso   1.00
C1080  C     0.47752   0.64245   0.71963   0.00000  Uiso   1.00
C1081  C     0.50012   0.50007   0.66448   0.00000  Uiso   1.00
C1082  C     0.50000   0.49988   0.83548   0.00000  Uiso   1.00
C1083  C     0.53456   0.48655   0.90696   0.00000  Uiso   1.00
C1084  C     0.46373   0.51305   0.59361   0.00000  Uiso   1.00
C1085  C     0.49922   0.50000   0.88371   0.00000  Uiso   1.00
C1086  C     0.49964   0.50012   0.61622   0.00000  Uiso   1.00
C1087  C     0.46352   0.51477   0.90578   0.00000  Uiso   1.00
C1088  C     0.53520   0.48776   0.59292   0.00000  Uiso   1.00
C1089  C     0.46246   0.51344   0.95284   0.00000  Uiso   1.00
C1090  C     0.53632   0.49472   0.54662   0.00000  Uiso   1.00
C1091  C     0.49938   0.50341   0.97633   0.00000  Uiso   1.00
C1092  C     0.49934   0.50263   0.52329   0.00000  Uiso   1.00
C1093  C     0.53643   0.49406   0.95308   0.00000  Uiso   1.00
C1094  C     0.46233   0.50894   0.54699   0.00000  Uiso   1.00
C1095  C     0.42584   0.52027   0.97738   0.00000  Uiso   1.00
C1096  C     0.57354   0.49648   0.52323   0.00000  Uiso   1.00
Cu1097 Cu    0.50000   0.54689   0.75000   0.00000  Uiso   1.00
Cu1098 Cu    0.50000   0.45311   0.75000   0.00000  Uiso   1.00
H1099  H     0.45915   0.37783   0.69556   0.00000  Uiso   1.00
H1100  H     0.54105   0.62216   0.80427   0.00000  Uiso   1.00
H1101  H     0.54098   0.37573   0.80428   0.00000  Uiso   1.00
H1102  H     0.45950   0.62425   0.69531   0.00000  Uiso   1.00
N1103  N     0.50000   0.61736   0.75000   0.00000  Uiso   1.00
N1104  N     0.50000   0.38264   0.75000   0.00000  Uiso   1.00
O1105  O     0.43988   0.53958   0.74999   0.00000  Uiso   1.00
O1106  O     0.56012   0.46042   0.75000   0.00000  Uiso   1.00
O1107  O     0.56012   0.53958   0.75000   0.00000  Uiso   1.00
O1108  O     0.43988   0.46042   0.74999   0.00000  Uiso   1.00
O1109  O     0.49999   0.53960   0.68513   0.00000  Uiso   1.00
O1110  O     0.50001   0.46040   0.81487   0.00000  Uiso   1.00
O1111  O     0.50001   0.53960   0.81487   0.00000  Uiso   1.00
O1112  O     0.49999   0.46040   0.68513   0.00000  Uiso   1.00
Br1113 Br    0.57574   0.45021   0.87540   0.00000  Uiso   1.00
Br1114 Br    0.42013   0.54320   0.62679   0.00000  Uiso   1.00
Br1115 Br    0.41673   0.53210   0.86901   0.00000  Uiso   1.00
Br1116 Br    0.58029   0.45782   0.62442   0.00000  Uiso   1.00
O1117  O     0.38915   0.53071   0.95674   0.00000  Uiso   1.00
C1118  C     0.37923   0.57824   0.96472   0.00000  Uiso   1.00
H1119  H     0.35177   0.58797   0.94495   0.00000  Uiso   1.00
H1120  H     0.37171   0.58421   0.50027   0.00000  Uiso   1.00
H1121  H     0.40430   0.60176   0.95398   0.00000  Uiso   1.00
O1122  O     0.60983   0.50456   0.54522   0.00000  Uiso   1.00
C1123  C     0.61233   0.55308   0.55357   0.00000  Uiso   1.00
H1124  H     0.58734   0.56537   0.57588   0.00000  Uiso   1.00
H1125  H     0.61193   0.57387   0.52218   0.00000  Uiso   1.00
H1126  H     0.64169   0.56000   0.57045   0.00000  Uiso   1.00
Br1127 Br    0.37467   0.49016   0.54776   0.00000  Uiso   1.00
Br1128 Br    0.62631   0.50300   0.94881   0.00000  Uiso   1.00
O1129  O     0.37544   0.43553   0.80201   0.00000  Uiso   1.00
C1130  C     0.38430   0.39048   0.78565   0.00000  Uiso   1.00
H1131  H     0.41286   0.37741   0.80161   0.00000  Uiso   1.00
H1132  H     0.38956   0.38983   0.74910   0.00000  Uiso   1.00
H1133  H     0.35970   0.36624   0.79547   0.00000  Uiso   1.00
O1134  O     0.62364   0.57728   0.71601   0.00000  Uiso   1.00
C1135  C     0.61930   0.57420   0.66964   0.00000  Uiso   1.00
H1136  H     0.60733   0.60825   0.65691   0.00000  Uiso   1.00
H1137  H     0.59665   0.54722   0.66115   0.00000  Uiso   1.00
H1138  H     0.64895   0.56702   0.65264   0.00000  Uiso   1.00
O1139  O     0.62684   0.41992   0.77963   0.00000  Uiso   1.00
C1140  C     0.62431   0.38768   0.74422   0.00000  Uiso   1.00
H1141  H     0.60285   0.40004   0.71799   0.00000  Uiso   1.00
H1142  H     0.61275   0.35406   0.75745   0.00000  Uiso   1.00
H1143  H     0.65437   0.38036   0.72840   0.00000  Uiso   1.00
O1144  O     0.37417   0.57717   0.71540   0.00000  Uiso   1.00
C1145  C     0.37356   0.61400   0.74629   0.00000  Uiso   1.00
H1146  H     0.39103   0.64325   0.73191   0.00000  Uiso   1.00
H1147  H     0.38841   0.60357   0.77817   0.00000  Uiso   1.00
H1148  H     0.34203   0.62722   0.75264   0.00000  Uiso   1.00
C1149  C     0.75406   0.50039   0.75087   0.00000  Uiso   1.00
C1150  C     0.91267   0.49958   0.74923   0.00000  Uiso   1.00
C1151  C     0.75881   0.51179   0.52316   0.00000  Uiso   1.00
C1152  C     0.90717   0.49437   0.97682   0.00000  Uiso   1.00
C1153  C     0.68883   0.46289   0.77024   0.00000  Uiso   1.00
C1154  C     0.97814   0.53809   0.73139   0.00000  Uiso   1.00
C1155  C     0.97978   0.45952   0.76448   0.00000  Uiso   1.00
C1156  C     0.68739   0.53936   0.73352   0.00000  Uiso   1.00
C1157  C     0.95741   0.49865   0.74777   0.00000  Uiso   1.00
C1158  C     0.70942   0.50108   0.75159   0.00000  Uiso   1.00
C1159  C     0.81074   0.35871   0.71972   0.00000  Uiso   1.00
C1160  C     0.85606   0.64129   0.78016   0.00000  Uiso   1.00
C1161  C     0.85603   0.35754   0.78018   0.00000  Uiso   1.00
C1162  C     0.81086   0.64245   0.71963   0.00000  Uiso   1.00
C1163  C     0.83346   0.50007   0.66448   0.00000  Uiso   1.00
C1164  C     0.83333   0.49988   0.83548   0.00000  Uiso   1.00
C1165  C     0.86789   0.48655   0.90696   0.00000  Uiso   1.00
C1166  C     0.79706   0.51305   0.59361   0.00000  Uiso   1.00
C1167  C     0.83255   0.50000   0.88371   0.00000  Uiso   1.00
C1168  C     0.83297   0.50012   0.61622   0.00000  Uiso   1.00
C1169  C     0.79685   0.51477   0.90578   0.00000  Uiso   1.00
C1170  C     0.86853   0.48776   0.59292   0.00000  Uiso   1.00
C1171  C     0.79579   0.51344   0.95284   0.00000  Uiso   1.00
C1172  C     0.86965   0.49472   0.54662   0.00000  Uiso   1.00
C1173  C     0.83271   0.50341   0.97633   0.00000  Uiso   1.00
C1174  C     0.83268   0.50263   0.52329   0.00000  Uiso   1.00
C1175  C     0.86977   0.49406   0.95308   0.00000  Uiso   1.00
C1176  C     0.79566   0.50894   0.54699   0.00000  Uiso   1.00
C1177  C     0.75918   0.52027   0.97738   0.00000  Uiso   1.00
C1178  C     0.90688   0.49648   0.52323   0.00000  Uiso   1.00
Cu1179 Cu    0.83333   0.54689   0.75000   0.00000  Uiso   1.00
Cu1180 Cu    0.83333   0.45311   0.75000   0.00000  Uiso   1.00
H1181  H     0.79249   0.37783   0.69556   0.00000  Uiso   1.00
H1182  H     0.87438   0.62216   0.80427   0.00000  Uiso   1.00
H1183  H     0.87431   0.37573   0.80428   0.00000  Uiso   1.00
H1184  H     0.79283   0.62425   0.69531   0.00000  Uiso   1.00
N1185  N     0.83333   0.61736   0.75000   0.00000  Uiso   1.00
N1186  N     0.83333   0.38264   0.75000   0.00000  Uiso   1.00
O1187  O     0.77321   0.53958   0.74999   0.00000  Uiso   1.00
O1188  O     0.89345   0.46042   0.75000   0.00000  Uiso   1.00
O1189  O     0.89345   0.53958   0.75000   0.00000  Uiso   1.00
O1190  O     0.77321   0.46042   0.74999   0.00000  Uiso   1.00
O1191  O     0.83332   0.53960   0.68513   0.00000  Uiso   1.00
O1192  O     0.83334   0.46040   0.81487   0.00000  Uiso   1.00
O1193  O     0.83334   0.53960   0.81487   0.00000  Uiso   1.00
O1194  O     0.83332   0.46040   0.68513   0.00000  Uiso   1.00
Br1195 Br    0.90907   0.45021   0.87540   0.00000  Uiso   1.00
Br1196 Br    0.75346   0.54320   0.62679   0.00000  Uiso   1.00
Br1197 Br    0.75006   0.53210   0.86901   0.00000  Uiso   1.00
Br1198 Br    0.91362   0.45782   0.62442   0.00000  Uiso   1.00
O1199  O     0.72249   0.53071   0.95674   0.00000  Uiso   1.00
C1200  C     0.71257   0.57824   0.96472   0.00000  Uiso   1.00
H1201  H     0.68510   0.58797   0.94495   0.00000  Uiso   1.00
H1202  H     0.70504   0.58421   0.50027   0.00000  Uiso   1.00
H1203  H     0.73764   0.60176   0.95398   0.00000  Uiso   1.00
O1204  O     0.94317   0.50456   0.54522   0.00000  Uiso   1.00
C1205  C     0.94566   0.55308   0.55357   0.00000  Uiso   1.00
H1206  H     0.92067   0.56537   0.57588   0.00000  Uiso   1.00
H1207  H     0.94526   0.57387   0.52218   0.00000  Uiso   1.00
H1208  H     0.97503   0.56000   0.57045   0.00000  Uiso   1.00
Br1209 Br    0.70800   0.49016   0.54776   0.00000  Uiso   1.00
Br1210 Br    0.95964   0.50300   0.94881   0.00000  Uiso   1.00
O1211  O     0.70877   0.43553   0.80201   0.00000  Uiso   1.00
C1212  C     0.71763   0.39048   0.78565   0.00000  Uiso   1.00
H1213  H     0.74619   0.37741   0.80161   0.00000  Uiso   1.00
H1214  H     0.72289   0.38983   0.74910   0.00000  Uiso   1.00
H1215  H     0.69303   0.36624   0.79547   0.00000  Uiso   1.00
O1216  O     0.95697   0.57728   0.71601   0.00000  Uiso   1.00
C1217  C     0.95263   0.57420   0.66964   0.00000  Uiso   1.00
H1218  H     0.94066   0.60825   0.65691   0.00000  Uiso   1.00
H1219  H     0.92999   0.54722   0.66115   0.00000  Uiso   1.00
H1220  H     0.98228   0.56702   0.65264   0.00000  Uiso   1.00
O1221  O     0.96017   0.41992   0.77963   0.00000  Uiso   1.00
C1222  C     0.95764   0.38768   0.74422   0.00000  Uiso   1.00
H1223  H     0.93618   0.40004   0.71799   0.00000  Uiso   1.00
H1224  H     0.94608   0.35406   0.75745   0.00000  Uiso   1.00
H1225  H     0.98771   0.38036   0.72840   0.00000  Uiso   1.00
O1226  O     0.70750   0.57717   0.71540   0.00000  Uiso   1.00
C1227  C     0.70689   0.61400   0.74629   0.00000  Uiso   1.00
H1228  H     0.72437   0.64325   0.73191   0.00000  Uiso   1.00
H1229  H     0.72174   0.60357   0.77817   0.00000  Uiso   1.00
H1230  H     0.67536   0.62722   0.75264   0.00000  Uiso   1.00
C1231  C     0.08739   0.83372   0.75087   0.00000  Uiso   1.00
C1232  C     0.24600   0.83291   0.74923   0.00000  Uiso   1.00
C1233  C     0.09214   0.84512   0.52316   0.00000  Uiso   1.00
C1234  C     0.24050   0.82770   0.97682   0.00000  Uiso   1.00
C1235  C     0.02217   0.79622   0.77024   0.00000  Uiso   1.00
C1236  C     0.31148   0.87143   0.73139   0.00000  Uiso   1.00
C1237  C     0.31312   0.79285   0.76448   0.00000  Uiso   1.00
C1238  C     0.02072   0.87269   0.73352   0.00000  Uiso   1.00
C1239  C     0.29075   0.83199   0.74777   0.00000  Uiso   1.00
C1240  C     0.04275   0.83441   0.75159   0.00000  Uiso   1.00
C1241  C     0.14407   0.69204   0.71972   0.00000  Uiso   1.00
C1242  C     0.18940   0.97462   0.78016   0.00000  Uiso   1.00
C1243  C     0.18936   0.69087   0.78018   0.00000  Uiso   1.00
C1244  C     0.14419   0.97579   0.71963   0.00000  Uiso   1.00
C1245  C     0.16679   0.83340   0.66448   0.00000  Uiso   1.00
C1246  C     0.16667   0.83322   0.83548   0.00000  Uiso   1.00
C1247  C     0.20123   0.81988   0.90696   0.00000  Uiso   1.00
C1248  C     0.13040   0.84638   0.59361   0.00000  Uiso   1.00
C1249  C     0.16588   0.83333   0.88371   0.00000  Uiso   1.00
C1250  C     0.16631   0.83346   0.61622   0.00000  Uiso   1.00
C1251  C     0.13018   0.84810   0.90578   0.00000  Uiso   1.00
C1252  C     0.20186   0.82109   0.59292   0.00000  Uiso   1.00
C1253  C     0.12912   0.84678   0.95284   0.00000  Uiso   1.00
C1254  C     0.20299   0.82805   0.54662   0.00000  Uiso   1.00
C1255  C     0.16605   0.83674   0.97633   0.00000  Uiso   1.00
C1256  C     0.16601   0.83596   0.52329   0.00000  Uiso   1.00
C1257  C     0.20310   0.82739   0.95308   0.00000  Uiso   1.00
C1258  C     0.12899   0.84227   0.54699   0.00000  Uiso   1.00
C1259  C     0.09251   0.85360   0.97738   0.00000  Uiso   1.00
C1260  C     0.24021   0.82981   0.52323   0.00000  Uiso   1.00
Cu1261 Cu    0.16667   0.88022   0.75000   0.00000  Uiso   1.00
Cu1262 Cu    0.16667   0.78645   0.75000   0.00000  Uiso   1.00
H1263  H     0.12582   0.71116   0.69556   0.00000  Uiso   1.00
H1264  H     0.20771   0.95549   0.80427   0.00000  Uiso   1.00
H1265  H     0.20765   0.70906   0.80428   0.00000  Uiso   1.00
H1266  H     0.12616   0.95758   0.69531   0.00000  Uiso   1.00
N1267  N     0.16667   0.95069   0.75000   0.00000  Uiso   1.00
N1268  N     0.16667   0.71598   0.75000   0.00000  Uiso   1.00
O1269  O     0.10655   0.87291   0.74999   0.00000  Uiso   1.00
O1270  O     0.22679   0.79375   0.75000   0.00000  Uiso   1.00
O1271  O     0.22679   0.87291   0.75000   0.00000  Uiso   1.00
O1272  O     0.10655   0.79375   0.74999   0.00000  Uiso   1.00
O1273  O     0.16666   0.87293   0.68513   0.00000  Uiso   1.00
O1274  O     0.16668   0.79373   0.81487   0.00000  Uiso   1.00
O1275  O     0.16668   0.87293   0.81487   0.00000  Uiso   1.00
O1276  O     0.16666   0.79373   0.68513   0.00000  Uiso   1.00
Br1277 Br    0.24240   0.78354   0.87540   0.00000  Uiso   1.00
Br1278 Br    0.08679   0.87653   0.62679   0.00000  Uiso   1.00
Br1279 Br    0.08339   0.86543   0.86901   0.00000  Uiso   1.00
Br1280 Br    0.24695   0.79115   0.62442   0.00000  Uiso   1.00
O1281  O     0.05582   0.86404   0.95674   0.00000  Uiso   1.00
C1282  C     0.04590   0.91157   0.96472   0.00000  Uiso   1.00
H1283  H     0.01843   0.92130   0.94495   0.00000  Uiso   1.00
H1284  H     0.03838   0.91754   0.50027   0.00000  Uiso   1.00
H1285  H     0.07097   0.93509   0.95398   0.00000  Uiso   1.00
O1286  O     0.27650   0.83789   0.54522   0.00000  Uiso   1.00
C1287  C     0.27900   0.88642   0.55357   0.00000  Uiso   1.00
H1288  H     0.25400   0.89871   0.57588   0.00000  Uiso   1.00
H1289  H     0.27859   0.90720   0.52218   0.00000  Uiso   1.00
H1290  H     0.30836   0.89333   0.57045   0.00000  Uiso   1.00
Br1291 Br    0.04134   0.82349   0.54776   0.00000  Uiso   1.00
Br1292 Br    0.29298   0.83634   0.94881   0.00000  Uiso   1.00
O1293  O     0.04210   0.76886   0.80201   0.00000  Uiso   1.00
C1294  C     0.05097   0.72381   0.78565   0.00000  Uiso   1.00
H1295  H     0.07953   0.71074   0.80161   0.00000  Uiso   1.00
H1296  H     0.05623   0.72317   0.74910   0.00000  Uiso   1.00
H1297  H     0.02637   0.69957   0.79547   0.00000  Uiso   1.00
O1298  O     0.29030   0.91061   0.71601   0.00000  Uiso   1.00
C1299  C     0.28596   0.90753   0.66964   0.00000  Uiso   1.00
H1300  H     0.27400   0.94158   0.65691   0.00000  Uiso   1.00
H1301  H     0.26332   0.88056   0.66115   0.00000  Uiso   1.00
H1302  H     0.31561   0.90035   0.65264   0.00000  Uiso   1.00
O1303  O     0.29351   0.75325   0.77963   0.00000  Uiso   1.00
C1304  C     0.29097   0.72102   0.74422   0.00000  Uiso   1.00
H1305  H     0.26952   0.73338   0.71799   0.00000  Uiso   1.00
H1306  H     0.27941   0.68740   0.75745   0.00000  Uiso   1.00
H1307  H     0.32104   0.71369   0.72840   0.00000  Uiso   1.00
O1308  O     0.04084   0.91050   0.71540   0.00000  Uiso   1.00
C1309  C     0.04022   0.94733   0.74629   0.00000  Uiso   1.00
H1310  H     0.05770   0.97658   0.73191   0.00000  Uiso   1.00
H1311  H     0.05508   0.93690   0.77817   0.00000  Uiso   1.00
H1312  H     0.00869   0.96055   0.75264   0.00000  Uiso   1.00
C1313  C     0.42073   0.83372   0.75087   0.00000  Uiso   1.00
C1314  C     0.57934   0.83291   0.74923   0.00000  Uiso   1.00
C1315  C     0.42547   0.84512   0.52316   0.00000  Uiso   1.00
C1316  C     0.57383   0.82770   0.97682   0.00000  Uiso   1.00
C1317  C     0.35550   0.79622   0.77024   0.00000  Uiso   1.00
C1318  C     0.64481   0.87143   0.73139   0.00000  Uiso   1.00
C1319  C     0.64645   0.79285   0.76448   0.00000  Uiso   1.00
C1320  C     0.35406   0.87269   0.73352   0.00000  Uiso   1.00
C1321  C     0.62408   0.83199   0.74777   0.00000  Uiso   1.00
C1322  C     0.37608   0.83441   0.75159   0.00000  Uiso   1.00
C1323  C     0.47741   0.69204   0.71972   0.00000  Uiso   1.00
C1324  C     0.52273   0.97462   0.78016   0.00000  Uiso   1.00
C1325  C     0.52270   0.69087   0.78018   0.00000  Uiso   1.00
C1326  C     0.47752   0.97579   0.71963   0.00000  Uiso   1.00
C1327  C     0.50012   0.83340   0.66448   0.00000  Uiso   1.00
C1328  C     0.50000   0.83322   0.83548   0.00000  Uiso   1.00
C1329  C     0.53456   0.81988   0.90696   0.00000  Uiso   1.00
C1330  C     0.46373   0.84638   0.59361   0.00000  Uiso   1.00
C1331  C     0.49922   0.83333   0.88371   0.00000  Uiso   1.00
C1332  C     0.49964   0.83346   0.61622   0.00000  Uiso   1.00
C1333  C     0.46352   0.84810   0.90578   0.00000  Uiso   1.00
C1334  C     0.53520   0.82109   0.59292   0.00000  Uiso   1.00
C1335  C     0.46246   0.84678   0.95284   0.00000  Uiso   1.00
C1336  C     0.53632   0.82805   0.54662   0.00000  Uiso   1.00
C1337  C     0.49938   0.83674   0.97633   0.00000  Uiso   1.00
C1338  C     0.49934   0.83596   0.52329   0.00000  Uiso   1.00
C1339  C     0.53643   0.82739   0.95308   0.00000  Uiso   1.00
C1340  C     0.46233   0.84227   0.54699   0.00000  Uiso   1.00
C1341  C     0.42584   0.85360   0.97738   0.00000  Uiso   1.00
C1342  C     0.57354   0.82981   0.52323   0.00000  Uiso   1.00
Cu1343 Cu    0.50000   0.88022   0.75000   0.00000  Uiso   1.00
Cu1344 Cu    0.50000   0.78645   0.75000   0.00000  Uiso   1.00
H1345  H     0.45915   0.71116   0.69556   0.00000  Uiso   1.00
H1346  H     0.54105   0.95549   0.80427   0.00000  Uiso   1.00
H1347  H     0.54098   0.70906   0.80428   0.00000  Uiso   1.00
H1348  H     0.45950   0.95758   0.69531   0.00000  Uiso   1.00
N1349  N     0.50000   0.95069   0.75000   0.00000  Uiso   1.00
N1350  N     0.50000   0.71598   0.75000   0.00000  Uiso   1.00
O1351  O     0.43988   0.87291   0.74999   0.00000  Uiso   1.00
O1352  O     0.56012   0.79375   0.75000   0.00000  Uiso   1.00
O1353  O     0.56012   0.87291   0.75000   0.00000  Uiso   1.00
O1354  O     0.43988   0.79375   0.74999   0.00000  Uiso   1.00
O1355  O     0.49999   0.87293   0.68513   0.00000  Uiso   1.00
O1356  O     0.50001   0.79373   0.81487   0.00000  Uiso   1.00
O1357  O     0.50001   0.87293   0.81487   0.00000  Uiso   1.00
O1358  O     0.49999   0.79373   0.68513   0.00000  Uiso   1.00
Br1359 Br    0.57574   0.78354   0.87540   0.00000  Uiso   1.00
Br1360 Br    0.42013   0.87653   0.62679   0.00000  Uiso   1.00
Br1361 Br    0.41673   0.86543   0.86901   0.00000  Uiso   1.00
Br1362 Br    0.58029   0.79115   0.62442   0.00000  Uiso   1.00
O1363  O     0.38915   0.86404   0.95674   0.00000  Uiso   1.00
C1364  C     0.37923   0.91157   0.96472   0.00000  Uiso   1.00
H1365  H     0.35177   0.92130   0.94495   0.00000  Uiso   1.00
H1366  H     0.37171   0.91754   0.50027   0.00000  Uiso   1.00
H1367  H     0.40430   0.93509   0.95398   0.00000  Uiso   1.00
O1368  O     0.60983   0.83789   0.54522   0.00000  Uiso   1.00
C1369  C     0.61233   0.88642   0.55357   0.00000  Uiso   1.00
H1370  H     0.58734   0.89871   0.57588   0.00000  Uiso   1.00
H1371  H     0.61193   0.90720   0.52218   0.00000  Uiso   1.00
H1372  H     0.64169   0.89333   0.57045   0.00000  Uiso   1.00
Br1373 Br    0.37467   0.82349   0.54776   0.00000  Uiso   1.00
Br1374 Br    0.62631   0.83634   0.94881   0.00000  Uiso   1.00
O1375  O     0.37544   0.76886   0.80201   0.00000  Uiso   1.00
C1376  C     0.38430   0.72381   0.78565   0.00000  Uiso   1.00
H1377  H     0.41286   0.71074   0.80161   0.00000  Uiso   1.00
H1378  H     0.38956   0.72317   0.74910   0.00000  Uiso   1.00
H1379  H     0.35970   0.69957   0.79547   0.00000  Uiso   1.00
O1380  O     0.62364   0.91061   0.71601   0.00000  Uiso   1.00
C1381  C     0.61930   0.90753   0.66964   0.00000  Uiso   1.00
H1382  H     0.60733   0.94158   0.65691   0.00000  Uiso   1.00
H1383  H     0.59665   0.88056   0.66115   0.00000  Uiso   1.00
H1384  H     0.64895   0.90035   0.65264   0.00000  Uiso   1.00
O1385  O     0.62684   0.75325   0.77963   0.00000  Uiso   1.00
C1386  C     0.62431   0.72102   0.74422   0.00000  Uiso   1.00
H1387  H     0.60285   0.73338   0.71799   0.00000  Uiso   1.00
H1388  H     0.61275   0.68740   0.75745   0.00000  Uiso   1.00
H1389  H     0.65437   0.71369   0.72840   0.00000  Uiso   1.00
O1390  O     0.37417   0.91050   0.71540   0.00000  Uiso   1.00
C1391  C     0.37356   0.94733   0.74629   0.00000  Uiso   1.00
H1392  H     0.39103   0.97658   0.73191   0.00000  Uiso   1.00
H1393  H     0.38841   0.93690   0.77817   0.00000  Uiso   1.00
H1394  H     0.34203   0.96055   0.75264   0.00000  Uiso   1.00
C1395  C     0.75406   0.83372   0.75087   0.00000  Uiso   1.00
C1396  C     0.91267   0.83291   0.74923   0.00000  Uiso   1.00
C1397  C     0.75881   0.84512   0.52316   0.00000  Uiso   1.00
C1398  C     0.90717   0.82770   0.97682   0.00000  Uiso   1.00
C1399  C     0.68883   0.79622   0.77024   0.00000  Uiso   1.00
C1400  C     0.97814   0.87143   0.73139   0.00000  Uiso   1.00
C1401  C     0.97978   0.79285   0.76448   0.00000  Uiso   1.00
C1402  C     0.68739   0.87269   0.73352   0.00000  Uiso   1.00
C1403  C     0.95741   0.83199   0.74777   0.00000  Uiso   1.00
C1404  C     0.70942   0.83441   0.75159   0.00000  Uiso   1.00
C1405  C     0.81074   0.69204   0.71972   0.00000  Uiso   1.00
C1406  C     0.85606   0.97462   0.78016   0.00000  Uiso   1.00
C1407  C     0.85603   0.69087   0.78018   0.00000  Uiso   1.00
C1408  C     0.81086   0.97579   0.71963   0.00000  Uiso   1.00
C1409  C     0.83346   0.83340   0.66448   0.00000  Uiso   1.00
C1410  C     0.83333   0.83322   0.83548   0.00000  Uiso   1.00
C1411  C     0.86789   0.81988   0.90696   0.00000  Uiso   1.00
C1412  C     0.79706   0.84638   0.59361   0.00000  Uiso   1.00
C1413  C     0.83255   0.83333   0.88371   0.00000  Uiso   1.00
C1414  C     0.83297   0.83346   0.61622   0.00000  Uiso   1.00
C1415  C     0.79685   0.84810   0.90578   0.00000  Uiso   1.00
C1416  C     0.86853   0.82109   0.59292   0.00000  Uiso   1.00
C1417  C     0.79579   0.84678   0.95284   0.00000  Uiso   1.00
C1418  C     0.86965   0.82805   0.54662   0.00000  Uiso   1.00
C1419  C     0.83271   0.83674   0.97633   0.00000  Uiso   1.00
C1420  C     0.83268   0.83596   0.52329   0.00000  Uiso   1.00
C1421  C     0.86977   0.82739   0.95308   0.00000  Uiso   1.00
C1422  C     0.79566   0.84227   0.54699   0.00000  Uiso   1.00
C1423  C     0.75918   0.85360   0.97738   0.00000  Uiso   1.00
C1424  C     0.90688   0.82981   0.52323   0.00000  Uiso   1.00
Cu1425 Cu    0.83333   0.88022   0.75000   0.00000  Uiso   1.00
Cu1426 Cu    0.83333   0.78645   0.75000   0.00000  Uiso   1.00
H1427  H     0.79249   0.71116   0.69556   0.00000  Uiso   1.00
H1428  H     0.87438   0.95549   0.80427   0.00000  Uiso   1.00
H1429  H     0.87431   0.70906   0.80428   0.00000  Uiso   1.00
H1430  H     0.79283   0.95758   0.69531   0.00000  Uiso   1.00
N1431  N     0.83333   0.95069   0.75000   0.00000  Uiso   1.00
N1432  N     0.83333   0.71598   0.75000   0.00000  Uiso   1.00
O1433  O     0.77321   0.87291   0.74999   0.00000  Uiso   1.00
O1434  O     0.89345   0.79375   0.75000   0.00000  Uiso   1.00
O1435  O     0.89345   0.87291   0.75000   0.00000  Uiso   1.00
O1436  O     0.77321   0.79375   0.74999   0.00000  Uiso   1.00
O1437  O     0.83332   0.87293   0.68513   0.00000  Uiso   1.00
O1438  O     0.83334   0.79373   0.81487   0.00000  Uiso   1.00
O1439  O     0.83334   0.87293   0.81487   0.00000  Uiso   1.00
O1440  O     0.83332   0.79373   0.68513   0.00000  Uiso   1.00
Br1441 Br    0.90907   0.78354   0.87540   0.00000  Uiso   1.00
Br1442 Br    0.75346   0.87653   0.62679   0.00000  Uiso   1.00
Br1443 Br    0.75006   0.86543   0.86901   0.00000  Uiso   1.00
Br1444 Br    0.91362   0.79115   0.62442   0.00000  Uiso   1.00
O1445  O     0.72249   0.86404   0.95674   0.00000  Uiso   1.00
C1446  C     0.71257   0.91157   0.96472   0.00000  Uiso   1.00
H1447  H     0.68510   0.92130   0.94495   0.00000  Uiso   1.00
H1448  H     0.70504   0.91754   0.50027   0.00000  Uiso   1.00
H1449  H     0.73764   0.93509   0.95398   0.00000  Uiso   1.00
O1450  O     0.94317   0.83789   0.54522   0.00000  Uiso   1.00
C1451  C     0.94566   0.88642   0.55357   0.00000  Uiso   1.00
H1452  H     0.92067   0.89871   0.57588   0.00000  Uiso   1.00
H1453  H     0.94526   0.90720   0.52218   0.00000  Uiso   1.00
H1454  H     0.97503   0.89333   0.57045   0.00000  Uiso   1.00
Br1455 Br    0.70800   0.82349   0.54776   0.00000  Uiso   1.00
Br1456 Br    0.95964   0.83634   0.94881   0.00000  Uiso   1.00
O1457  O     0.70877   0.76886   0.80201   0.00000  Uiso   1.00
C1458  C     0.71763   0.72381   0.78565   0.00000  Uiso   1.00
H1459  H     0.74619   0.71074   0.80161   0.00000  Uiso   1.00
H1460  H     0.72289   0.72317   0.74910   0.00000  Uiso   1.00
H1461  H     0.69303   0.69957   0.79547   0.00000  Uiso   1.00
O1462  O     0.95697   0.91061   0.71601   0.00000  Uiso   1.00
C1463  C     0.95263   0.90753   0.66964   0.00000  Uiso   1.00
H1464  H     0.94066   0.94158   0.65691   0.00000  Uiso   1.00
H1465  H     0.92999   0.88056   0.66115   0.00000  Uiso   1.00
H1466  H     0.98228   0.90035   0.65264   0.00000  Uiso   1.00
O1467  O     0.96017   0.75325   0.77963   0.00000  Uiso   1.00
C1468  C     0.95764   0.72102   0.74422   0.00000  Uiso   1.00
H1469  H     0.93618   0.73338   0.71799   0.00000  Uiso   1.00
H1470  H     0.94608   0.68740   0.75745   0.00000  Uiso   1.00
H1471  H     0.98771   0.71369   0.72840   0.00000  Uiso   1.00
O1472  O     0.70750   0.91050   0.71540   0.00000  Uiso   1.00
C1473  C     0.70689   0.94733   0.74629   0.00000  Uiso   1.00
H1474  H     0.72437   0.97658   0.73191   0.00000  Uiso   1.00
H1475  H     0.72174   0.93690   0.77817   0.00000  Uiso   1.00
H1476  H     0.67536   0.96055   0.75264   0.00000  Uiso   1.00
loop_
_geom_bond_atom_site_label_1
_geom_bond_atom_site_label_2
_geom_bond_distance
_geom_bond_site_symmetry_2
_ccdc_geom_bond_type
C1     C10     1.460   .     S
C1     O39     1.291   .     A
C1     O42     1.295   .     A
C2     O41     1.297   .     A
C2     O40     1.291   .     A
C2     C9      1.464   .     S
C3     C28     1.404   .     A
C3     Br61    1.928   .     S
C3     C767    1.398   1_554 S
C4     Br62    1.931   .     S
C4     C27     1.417   .     A
C4     C768    1.399   .     S
C5     O63     1.388   .     S
C5     C10     1.404   .     A
C5     C171    1.402   1_455 S
C6     C9      1.410   .     A
C6     O68     1.385   .     S
C6     C90     1.395   .     S
C7     O73     1.384   .     S
C7     C9      1.417   .     A
C7     C87     1.402   .     S
C8     O78     1.382   .     S
C8     C10     1.407   .     A
C8     C170    1.395   1_455 S
C11    N38     1.367   .     A
C11    H33     1.082   .     S
C11    C506    1.417   1_545 S
C12    N37     1.367   .     A
C12    H34     1.082   .     S
C12    C259    1.417   .     S
C13    H35     1.081   .     S
C13    N38     1.367   .     A
C13    C504    1.417   1_545 S
C14    H36     1.081   .     S
C14    N37     1.367   .     A
C14    C257    1.417   .     S
C15    C20     1.453   .     S
C15    O43     1.293   .     A
C15    O46     1.289   .     A
C16    O44     1.291   .     A
C16    O45     1.290   .     A
C16    C19     1.453   .     S
C17    C27     1.408   .     A
C17    Br47    1.941   .     S
C17    C19     1.400   .     A
C18    C28     1.411   .     A
C18    Br48    1.936   .     S
C18    C20     1.402   .     A
C19    C21     1.404   .     A
C20    C22     1.400   .     A
C21    Br49    1.946   .     S
C21    C23     1.418   .     A
C22    Br50    1.939   .     S
C22    C24     1.408   .     A
C23    C29     1.419   .     A
C23    C25     1.424   .     A
C24    C26     1.414   .     A
C24    C30     1.408   .     A
C25    C27     1.422   .     A
C25    C764    1.415   .     S
C26    C28     1.415   .     A
C26    C763    1.415   1_554 S
C29    O51     1.380   .     S
C29    C741    1.398   .     S
C30    O56     1.383   .     S
C30    C742    1.399   1_554 S
Cu31   O43     1.966   .     S
Cu31   N37     2.013   .     S
Cu31   Cu32    2.679   .     S
Cu31   O41     1.975   .     S
Cu31   O39     1.981   .     S
Cu31   O45     1.963   .     S
Cu32   N38     2.013   .     S
Cu32   O44     1.966   .     S
Cu32   O46     1.963   .     S
Cu32   O40     1.981   .     S
Cu32   O42     1.975   .     S
O51    C52     1.414   .     S
C52    H55     1.114   .     S
C52    H53     1.109   .     S
C52    H792    1.112   .     S
H54    C790    1.112   1_554 S
O56    C57     1.414   .     S
C57    H59     1.113   .     S
C57    H60     1.108   .     S
C57    H58     1.112   .     S
O63    C64     1.407   .     S
C64    H67     1.108   .     S
C64    H66     1.114   .     S
C64    H65     1.109   .     S
O68    C69     1.407   .     S
C69    H71     1.108   .     S
C69    H72     1.114   .     S
C69    H70     1.109   .     S
O73    C74     1.417   .     S
C74    H77     1.110   .     S
C74    H75     1.109   .     S
C74    H76     1.109   .     S
O78    C79     1.409   .     S
C79    H81     1.113   .     S
C79    H82     1.110   .     S
C79    H80     1.105   .     S
C83    C92     1.460   .     S
C83    O121    1.291   .     A
C83    O124    1.295   .     A
C84    O123    1.297   .     A
C84    O122    1.291   .     A
C84    C91     1.464   .     S
C85    C110    1.404   .     A
C85    Br143   1.928   .     S
C85    C849    1.398   1_554 S
C86    Br144   1.931   .     S
C86    C109    1.417   .     A
C86    C850    1.399   .     S
C87    O145    1.388   .     S
C87    C92     1.404   .     A
C88    C91     1.410   .     A
C88    O150    1.385   .     S
C88    C172    1.395   .     S
C89    O155    1.384   .     S
C89    C91     1.417   .     A
C89    C169    1.402   .     S
C90    O160    1.382   .     S
C90    C92     1.407   .     A
C93    N120    1.367   .     A
C93    H115    1.082   .     S
C93    C588    1.417   1_545 S
C94    N119    1.367   .     A
C94    H116    1.082   .     S
C94    C341    1.417   .     S
C95    H117    1.081   .     S
C95    N120    1.367   .     A
C95    C586    1.417   1_545 S
C96    H118    1.081   .     S
C96    N119    1.367   .     A
C96    C339    1.417   .     S
C97    C102    1.453   .     S
C97    O125    1.293   .     A
C97    O128    1.289   .     A
C98    O126    1.291   .     A
C98    O127    1.290   .     A
C98    C101    1.453   .     S
C99    C109    1.408   .     A
C99    Br129   1.941   .     S
C99    C101    1.400   .     A
C100   C110    1.411   .     A
C100   Br130   1.936   .     S
C100   C102    1.402   .     A
C101   C103    1.404   .     A
C102   C104    1.400   .     A
C103   Br131   1.946   .     S
C103   C105    1.418   .     A
C104   Br132   1.939   .     S
C104   C106    1.408   .     A
C105   C111    1.419   .     A
C105   C107    1.424   .     A
C106   C108    1.414   .     A
C106   C112    1.408   .     A
C107   C109    1.422   .     A
C107   C846    1.415   .     S
C108   C110    1.415   .     A
C108   C845    1.415   1_554 S
C111   O133    1.380   .     S
C111   C823    1.398   .     S
C112   O138    1.383   .     S
C112   C824    1.399   1_554 S
Cu113  O125    1.966   .     S
Cu113  N119    2.013   .     S
Cu113  Cu114   2.679   .     S
Cu113  O123    1.975   .     S
Cu113  O121    1.981   .     S
Cu113  O127    1.963   .     S
Cu114  N120    2.013   .     S
Cu114  O126    1.966   .     S
Cu114  O128    1.963   .     S
Cu114  O122    1.981   .     S
Cu114  O124    1.975   .     S
O133   C134    1.414   .     S
C134   H137    1.114   .     S
C134   H135    1.109   .     S
C134   H874    1.112   .     S
H136   C872    1.112   1_554 S
O138   C139    1.414   .     S
C139   H141    1.113   .     S
C139   H142    1.108   .     S
C139   H140    1.112   .     S
O145   C146    1.407   .     S
C146   H149    1.108   .     S
C146   H148    1.114   .     S
C146   H147    1.109   .     S
O150   C151    1.407   .     S
C151   H153    1.108   .     S
C151   H154    1.114   .     S
C151   H152    1.109   .     S
O155   C156    1.417   .     S
C156   H159    1.110   .     S
C156   H157    1.109   .     S
C156   H158    1.109   .     S
O160   C161    1.409   .     S
C161   H163    1.113   .     S
C161   H164    1.110   .     S
C161   H162    1.105   .     S
C165   C174    1.460   .     S
C165   O203    1.291   .     A
C165   O206    1.295   .     A
C166   O205    1.297   .     A
C166   O204    1.291   .     A
C166   C173    1.464   .     S
C167   C192    1.404   .     A
C167   Br225   1.928   .     S
C167   C931    1.398   1_554 S
C168   Br226   1.931   .     S
C168   C191    1.417   .     A
C168   C932    1.399   .     S
C169   O227    1.388   .     S
C169   C174    1.404   .     A
C170   C173    1.410   .     A
C170   O232    1.385   .     S
C170   C8      1.395   1_655 S
C171   O237    1.384   .     S
C171   C173    1.417   .     A
C171   C5      1.402   1_655 S
C172   O242    1.382   .     S
C172   C174    1.407   .     A
C175   N202    1.367   .     A
C175   H197    1.082   .     S
C175   C670    1.417   1_545 S
C176   N201    1.367   .     A
C176   H198    1.082   .     S
C176   C423    1.417   .     S
C177   H199    1.081   .     S
C177   N202    1.367   .     A
C177   C668    1.417   1_545 S
C178   H200    1.081   .     S
C178   N201    1.367   .     A
C178   C421    1.417   .     S
C179   C184    1.453   .     S
C179   O207    1.293   .     A
C179   O210    1.289   .     A
C180   O208    1.291   .     A
C180   O209    1.290   .     A
C180   C183    1.453   .     S
C181   C191    1.408   .     A
C181   Br211   1.941   .     S
C181   C183    1.400   .     A
C182   C192    1.411   .     A
C182   Br212   1.936   .     S
C182   C184    1.402   .     A
C183   C185    1.404   .     A
C184   C186    1.400   .     A
C185   Br213   1.946   .     S
C185   C187    1.418   .     A
C186   Br214   1.939   .     S
C186   C188    1.408   .     A
C187   C193    1.419   .     A
C187   C189    1.424   .     A
C188   C190    1.414   .     A
C188   C194    1.408   .     A
C189   C191    1.422   .     A
C189   C928    1.415   .     S
C190   C192    1.415   .     A
C190   C927    1.415   1_554 S
C193   O215    1.380   .     S
C193   C905    1.398   .     S
C194   O220    1.383   .     S
C194   C906    1.399   1_554 S
Cu195  O207    1.966   .     S
Cu195  N201    2.013   .     S
Cu195  Cu196   2.679   .     S
Cu195  O205    1.975   .     S
Cu195  O203    1.981   .     S
Cu195  O209    1.963   .     S
Cu196  N202    2.013   .     S
Cu196  O208    1.966   .     S
Cu196  O210    1.963   .     S
Cu196  O204    1.981   .     S
Cu196  O206    1.975   .     S
O215   C216    1.414   .     S
C216   H219    1.114   .     S
C216   H217    1.109   .     S
C216   H956    1.112   .     S
H218   C954    1.112   1_554 S
O220   C221    1.414   .     S
C221   H223    1.113   .     S
C221   H224    1.108   .     S
C221   H222    1.112   .     S
O227   C228    1.407   .     S
C228   H231    1.108   .     S
C228   H230    1.114   .     S
C228   H229    1.109   .     S
O232   C233    1.407   .     S
C233   H235    1.108   .     S
C233   H236    1.114   .     S
C233   H234    1.109   .     S
O237   C238    1.417   .     S
C238   H241    1.110   .     S
C238   H239    1.109   .     S
C238   H240    1.109   .     S
O242   C243    1.409   .     S
C243   H245    1.113   .     S
C243   H246    1.110   .     S
C243   H244    1.105   .     S
C247   C256    1.460   .     S
C247   O285    1.291   .     A
C247   O288    1.295   .     A
C248   O287    1.297   .     A
C248   O286    1.291   .     A
C248   C255    1.464   .     S
C249   C274    1.404   .     A
C249   Br307   1.928   .     S
C249   C1013   1.398   1_554 S
C250   Br308   1.931   .     S
C250   C273    1.417   .     A
C250   C1014   1.399   .     S
C251   O309    1.388   .     S
C251   C256    1.404   .     A
C251   C417    1.402   1_455 S
C252   C255    1.410   .     A
C252   O314    1.385   .     S
C252   C336    1.395   .     S
C253   O319    1.384   .     S
C253   C255    1.417   .     A
C253   C333    1.402   .     S
C254   O324    1.382   .     S
C254   C256    1.407   .     A
C254   C416    1.395   1_455 S
C257   N284    1.367   .     A
C257   H279    1.082   .     S
C258   N283    1.367   .     A
C258   H280    1.082   .     S
C258   C505    1.417   .     S
C259   H281    1.081   .     S
C259   N284    1.367   .     A
C260   H282    1.081   .     S
C260   N283    1.367   .     A
C260   C503    1.417   .     S
C261   C266    1.453   .     S
C261   O289    1.293   .     A
C261   O292    1.289   .     A
C262   O290    1.291   .     A
C262   O291    1.290   .     A
C262   C265    1.453   .     S
C263   C273    1.408   .     A
C263   Br293   1.941   .     S
C263   C265    1.400   .     A
C264   C274    1.411   .     A
C264   Br294   1.936   .     S
C264   C266    1.402   .     A
C265   C267    1.404   .     A
C266   C268    1.400   .     A
C267   Br295   1.946   .     S
C267   C269    1.418   .     A
C268   Br296   1.939   .     S
C268   C270    1.408   .     A
C269   C275    1.419   .     A
C269   C271    1.424   .     A
C270   C272    1.414   .     A
C270   C276    1.408   .     A
C271   C273    1.422   .     A
C271   C1010   1.415   .     S
C272   C274    1.415   .     A
C272   C1009   1.415   1_554 S
C275   O297    1.380   .     S
C275   C987    1.398   .     S
C276   O302    1.383   .     S
C276   C988    1.399   1_554 S
Cu277  O289    1.966   .     S
Cu277  N283    2.013   .     S
Cu277  Cu278   2.679   .     S
Cu277  O287    1.975   .     S
Cu277  O285    1.981   .     S
Cu277  O291    1.963   .     S
Cu278  N284    2.013   .     S
Cu278  O290    1.966   .     S
Cu278  O292    1.963   .     S
Cu278  O286    1.981   .     S
Cu278  O288    1.975   .     S
O297   C298    1.414   .     S
C298   H301    1.114   .     S
C298   H299    1.109   .     S
C298   H1038   1.112   .     S
H300   C1036   1.112   1_554 S
O302   C303    1.414   .     S
C303   H305    1.113   .     S
C303   H306    1.108   .     S
C303   H304    1.112   .     S
O309   C310    1.407   .     S
C310   H313    1.108   .     S
C310   H312    1.114   .     S
C310   H311    1.109   .     S
O314   C315    1.407   .     S
C315   H317    1.108   .     S
C315   H318    1.114   .     S
C315   H316    1.109   .     S
O319   C320    1.417   .     S
C320   H323    1.110   .     S
C320   H321    1.109   .     S
C320   H322    1.109   .     S
O324   C325    1.409   .     S
C325   H327    1.113   .     S
C325   H328    1.110   .     S
C325   H326    1.105   .     S
C329   C338    1.460   .     S
C329   O367    1.291   .     A
C329   O370    1.295   .     A
C330   O369    1.297   .     A
C330   O368    1.291   .     A
C330   C337    1.464   .     S
C331   C356    1.404   .     A
C331   Br389   1.928   .     S
C331   C1095   1.398   1_554 S
C332   Br390   1.931   .     S
C332   C355    1.417   .     A
C332   C1096   1.399   .     S
C333   O391    1.388   .     S
C333   C338    1.404   .     A
C334   C337    1.410   .     A
C334   O396    1.385   .     S
C334   C418    1.395   .     S
C335   O401    1.384   .     S
C335   C337    1.417   .     A
C335   C415    1.402   .     S
C336   O406    1.382   .     S
C336   C338    1.407   .     A
C339   N366    1.367   .     A
C339   H361    1.082   .     S
C340   N365    1.367   .     A
C340   H362    1.082   .     S
C340   C587    1.417   .     S
C341   H363    1.081   .     S
C341   N366    1.367   .     A
C342   H364    1.081   .     S
C342   N365    1.367   .     A
C342   C585    1.417   .     S
C343   C348    1.453   .     S
C343   O371    1.293   .     A
C343   O374    1.289   .     A
C344   O372    1.291   .     A
C344   O373    1.290   .     A
C344   C347    1.453   .     S
C345   C355    1.408   .     A
C345   Br375   1.941   .     S
C345   C347    1.400   .     A
C346   C356    1.411   .     A
C346   Br376   1.936   .     S
C346   C348    1.402   .     A
C347   C349    1.404   .     A
C348   C350    1.400   .     A
C349   Br377   1.946   .     S
C349   C351    1.418   .     A
C350   Br378   1.939   .     S
C350   C352    1.408   .     A
C351   C357    1.419   .     A
C351   C353    1.424   .     A
C352   C354    1.414   .     A
C352   C358    1.408   .     A
C353   C355    1.422   .     A
C353   C1092   1.415   .     S
C354   C356    1.415   .     A
C354   C1091   1.415   1_554 S
C357   O379    1.380   .     S
C357   C1069   1.398   .     S
C358   O384    1.383   .     S
C358   C1070   1.399   1_554 S
Cu359  O371    1.966   .     S
Cu359  N365    2.013   .     S
Cu359  Cu360   2.679   .     S
Cu359  O369    1.975   .     S
Cu359  O367    1.981   .     S
Cu359  O373    1.963   .     S
Cu360  N366    2.013   .     S
Cu360  O372    1.966   .     S
Cu360  O374    1.963   .     S
Cu360  O368    1.981   .     S
Cu360  O370    1.975   .     S
O379   C380    1.414   .     S
C380   H383    1.114   .     S
C380   H381    1.109   .     S
C380   H1120   1.112   .     S
H382   C1118   1.112   1_554 S
O384   C385    1.414   .     S
C385   H387    1.113   .     S
C385   H388    1.108   .     S
C385   H386    1.112   .     S
O391   C392    1.407   .     S
C392   H395    1.108   .     S
C392   H394    1.114   .     S
C392   H393    1.109   .     S
O396   C397    1.407   .     S
C397   H399    1.108   .     S
C397   H400    1.114   .     S
C397   H398    1.109   .     S
O401   C402    1.417   .     S
C402   H405    1.110   .     S
C402   H403    1.109   .     S
C402   H404    1.109   .     S
O406   C407    1.409   .     S
C407   H409    1.113   .     S
C407   H410    1.110   .     S
C407   H408    1.105   .     S
C411   C420    1.460   .     S
C411   O449    1.291   .     A
C411   O452    1.295   .     A
C412   O451    1.297   .     A
C412   O450    1.291   .     A
C412   C419    1.464   .     S
C413   C438    1.404   .     A
C413   Br471   1.928   .     S
C413   C1177   1.398   1_554 S
C414   Br472   1.931   .     S
C414   C437    1.417   .     A
C414   C1178   1.399   .     S
C415   O473    1.388   .     S
C415   C420    1.404   .     A
C416   C419    1.410   .     A
C416   O478    1.385   .     S
C416   C254    1.395   1_655 S
C417   O483    1.384   .     S
C417   C419    1.417   .     A
C417   C251    1.402   1_655 S
C418   O488    1.382   .     S
C418   C420    1.407   .     A
C421   N448    1.367   .     A
C421   H443    1.082   .     S
C422   N447    1.367   .     A
C422   H444    1.082   .     S
C422   C669    1.417   .     S
C423   H445    1.081   .     S
C423   N448    1.367   .     A
C424   H446    1.081   .     S
C424   N447    1.367   .     A
C424   C667    1.417   .     S
C425   C430    1.453   .     S
C425   O453    1.293   .     A
C425   O456    1.289   .     A
C426   O454    1.291   .     A
C426   O455    1.290   .     A
C426   C429    1.453   .     S
C427   C437    1.408   .     A
C427   Br457   1.941   .     S
C427   C429    1.400   .     A
C428   C438    1.411   .     A
C428   Br458   1.936   .     S
C428   C430    1.402   .     A
C429   C431    1.404   .     A
C430   C432    1.400   .     A
C431   Br459   1.946   .     S
C431   C433    1.418   .     A
C432   Br460   1.939   .     S
C432   C434    1.408   .     A
C433   C439    1.419   .     A
C433   C435    1.424   .     A
C434   C436    1.414   .     A
C434   C440    1.408   .     A
C435   C437    1.422   .     A
C435   C1174   1.415   .     S
C436   C438    1.415   .     A
C436   C1173   1.415   1_554 S
C439   O461    1.380   .     S
C439   C1151   1.398   .     S
C440   O466    1.383   .     S
C440   C1152   1.399   1_554 S
Cu441  O453    1.966   .     S
Cu441  N447    2.013   .     S
Cu441  Cu442   2.679   .     S
Cu441  O451    1.975   .     S
Cu441  O449    1.981   .     S
Cu441  O455    1.963   .     S
Cu442  N448    2.013   .     S
Cu442  O454    1.966   .     S
Cu442  O456    1.963   .     S
Cu442  O450    1.981   .     S
Cu442  O452    1.975   .     S
O461   C462    1.414   .     S
C462   H465    1.114   .     S
C462   H463    1.109   .     S
C462   H1202   1.112   .     S
H464   C1200   1.112   1_554 S
O466   C467    1.414   .     S
C467   H469    1.113   .     S
C467   H470    1.108   .     S
C467   H468    1.112   .     S
O473   C474    1.407   .     S
C474   H477    1.108   .     S
C474   H476    1.114   .     S
C474   H475    1.109   .     S
O478   C479    1.407   .     S
C479   H481    1.108   .     S
C479   H482    1.114   .     S
C479   H480    1.109   .     S
O483   C484    1.417   .     S
C484   H487    1.110   .     S
C484   H485    1.109   .     S
C484   H486    1.109   .     S
O488   C489    1.409   .     S
C489   H491    1.113   .     S
C489   H492    1.110   .     S
C489   H490    1.105   .     S
C493   C502    1.460   .     S
C493   O531    1.291   .     A
C493   O534    1.295   .     A
C494   O533    1.297   .     A
C494   O532    1.291   .     A
C494   C501    1.464   .     S
C495   C520    1.404   .     A
C495   Br553   1.928   .     S
C495   C1259   1.398   1_554 S
C496   Br554   1.931   .     S
C496   C519    1.417   .     A
C496   C1260   1.399   .     S
C497   O555    1.388   .     S
C497   C502    1.404   .     A
C497   C663    1.402   1_455 S
C498   C501    1.410   .     A
C498   O560    1.385   .     S
C498   C582    1.395   .     S
C499   O565    1.384   .     S
C499   C501    1.417   .     A
C499   C579    1.402   .     S
C500   O570    1.382   .     S
C500   C502    1.407   .     A
C500   C662    1.395   1_455 S
C503   N530    1.367   .     A
C503   H525    1.082   .     S
C504   N529    1.367   .     A
C504   H526    1.082   .     S
C504   C13     1.417   1_565 S
C505   H527    1.081   .     S
C505   N530    1.367   .     A
C506   H528    1.081   .     S
C506   N529    1.367   .     A
C506   C11     1.417   1_565 S
C507   C512    1.453   .     S
C507   O535    1.293   .     A
C507   O538    1.289   .     A
C508   O536    1.291   .     A
C508   O537    1.290   .     A
C508   C511    1.453   .     S
C509   C519    1.408   .     A
C509   Br539   1.941   .     S
C509   C511    1.400   .     A
C510   C520    1.411   .     A
C510   Br540   1.936   .     S
C510   C512    1.402   .     A
C511   C513    1.404   .     A
C512   C514    1.400   .     A
C513   Br541   1.946   .     S
C513   C515    1.418   .     A
C514   Br542   1.939   .     S
C514   C516    1.408   .     A
C515   C521    1.419   .     A
C515   C517    1.424   .     A
C516   C518    1.414   .     A
C516   C522    1.408   .     A
C517   C519    1.422   .     A
C517   C1256   1.415   .     S
C518   C520    1.415   .     A
C518   C1255   1.415   1_554 S
C521   O543    1.380   .     S
C521   C1233   1.398   .     S
C522   O548    1.383   .     S
C522   C1234   1.399   1_554 S
Cu523  O535    1.966   .     S
Cu523  N529    2.013   .     S
Cu523  Cu524   2.679   .     S
Cu523  O533    1.975   .     S
Cu523  O531    1.981   .     S
Cu523  O537    1.963   .     S
Cu524  N530    2.013   .     S
Cu524  O536    1.966   .     S
Cu524  O538    1.963   .     S
Cu524  O532    1.981   .     S
Cu524  O534    1.975   .     S
O543   C544    1.414   .     S
C544   H547    1.114   .     S
C544   H545    1.109   .     S
C544   H1284   1.112   .     S
H546   C1282   1.112   1_554 S
O548   C549    1.414   .     S
C549   H551    1.113   .     S
C549   H552    1.108   .     S
C549   H550    1.112   .     S
O555   C556    1.407   .     S
C556   H559    1.108   .     S
C556   H558    1.114   .     S
C556   H557    1.109   .     S
O560   C561    1.407   .     S
C561   H563    1.108   .     S
C561   H564    1.114   .     S
C561   H562    1.109   .     S
O565   C566    1.417   .     S
C566   H569    1.110   .     S
C566   H567    1.109   .     S
C566   H568    1.109   .     S
O570   C571    1.409   .     S
C571   H573    1.113   .     S
C571   H574    1.110   .     S
C571   H572    1.105   .     S
C575   C584    1.460   .     S
C575   O613    1.291   .     A
C575   O616    1.295   .     A
C576   O615    1.297   .     A
C576   O614    1.291   .     A
C576   C583    1.464   .     S
C577   C602    1.404   .     A
C577   Br635   1.928   .     S
C577   C1341   1.398   1_554 S
C578   Br636   1.931   .     S
C578   C601    1.417   .     A
C578   C1342   1.399   .     S
C579   O637    1.388   .     S
C579   C584    1.404   .     A
C580   C583    1.410   .     A
C580   O642    1.385   .     S
C580   C664    1.395   .     S
C581   O647    1.384   .     S
C581   C583    1.417   .     A
C581   C661    1.402   .     S
C582   O652    1.382   .     S
C582   C584    1.407   .     A
C585   N612    1.367   .     A
C585   H607    1.082   .     S
C586   N611    1.367   .     A
C586   H608    1.082   .     S
C586   C95     1.417   1_565 S
C587   H609    1.081   .     S
C587   N612    1.367   .     A
C588   H610    1.081   .     S
C588   N611    1.367   .     A
C588   C93     1.417   1_565 S
C589   C594    1.453   .     S
C589   O617    1.293   .     A
C589   O620    1.289   .     A
C590   O618    1.291   .     A
C590   O619    1.290   .     A
C590   C593    1.453   .     S
C591   C601    1.408   .     A
C591   Br621   1.941   .     S
C591   C593    1.400   .     A
C592   C602    1.411   .     A
C592   Br622   1.936   .     S
C592   C594    1.402   .     A
C593   C595    1.404   .     A
C594   C596    1.400   .     A
C595   Br623   1.946   .     S
C595   C597    1.418   .     A
C596   Br624   1.939   .     S
C596   C598    1.408   .     A
C597   C603    1.419   .     A
C597   C599    1.424   .     A
C598   C600    1.414   .     A
C598   C604    1.408   .     A
C599   C601    1.422   .     A
C599   C1338   1.415   .     S
C600   C602    1.415   .     A
C600   C1337   1.415   1_554 S
C603   O625    1.380   .     S
C603   C1315   1.398   .     S
C604   O630    1.383   .     S
C604   C1316   1.399   1_554 S
Cu605  O617    1.966   .     S
Cu605  N611    2.013   .     S
Cu605  Cu606   2.679   .     S
Cu605  O615    1.975   .     S
Cu605  O613    1.981   .     S
Cu605  O619    1.963   .     S
Cu606  N612    2.013   .     S
Cu606  O618    1.966   .     S
Cu606  O620    1.963   .     S
Cu606  O614    1.981   .     S
Cu606  O616    1.975   .     S
O625   C626    1.414   .     S
C626   H629    1.114   .     S
C626   H627    1.109   .     S
C626   H1366   1.112   .     S
H628   C1364   1.112   1_554 S
O630   C631    1.414   .     S
C631   H633    1.113   .     S
C631   H634    1.108   .     S
C631   H632    1.112   .     S
O637   C638    1.407   .     S
C638   H641    1.108   .     S
C638   H640    1.114   .     S
C638   H639    1.109   .     S
O642   C643    1.407   .     S
C643   H645    1.108   .     S
C643   H646    1.114   .     S
C643   H644    1.109   .     S
O647   C648    1.417   .     S
C648   H651    1.110   .     S
C648   H649    1.109   .     S
C648   H650    1.109   .     S
O652   C653    1.409   .     S
C653   H655    1.113   .     S
C653   H656    1.110   .     S
C653   H654    1.105   .     S
C657   C666    1.460   .     S
C657   O695    1.291   .     A
C657   O698    1.295   .     A
C658   O697    1.297   .     A
C658   O696    1.291   .     A
C658   C665    1.464   .     S
C659   C684    1.404   .     A
C659   Br717   1.928   .     S
C659   C1423   1.398   1_554 S
C660   Br718   1.931   .     S
C660   C683    1.417   .     A
C660   C1424   1.399   .     S
C661   O719    1.388   .     S
C661   C666    1.404   .     A
C662   C665    1.410   .     A
C662   O724    1.385   .     S
C662   C500    1.395   1_655 S
C663   O729    1.384   .     S
C663   C665    1.417   .     A
C663   C497    1.402   1_655 S
C664   O734    1.382   .     S
C664   C666    1.407   .     A
C667   N694    1.367   .     A
C667   H689    1.082   .     S
C668   N693    1.367   .     A
C668   H690    1.082   .     S
C668   C177    1.417   1_565 S
C669   H691    1.081   .     S
C669   N694    1.367   .     A
C670   H692    1.081   .     S
C670   N693    1.367   .     A
C670   C175    1.417   1_565 S
C671   C676    1.453   .     S
C671   O699    1.293   .     A
C671   O702    1.289   .     A
C672   O700    1.291   .     A
C672   O701    1.290   .     A
C672   C675    1.453   .     S
C673   C683    1.408   .     A
C673   Br703   1.941   .     S
C673   C675    1.400   .     A
C674   C684    1.411   .     A
C674   Br704   1.936   .     S
C674   C676    1.402   .     A
C675   C677    1.404   .     A
C676   C678    1.400   .     A
C677   Br705   1.946   .     S
C677   C679    1.418   .     A
C678   Br706   1.939   .     S
C678   C680    1.408   .     A
C679   C685    1.419   .     A
C679   C681    1.424   .     A
C680   C682    1.414   .     A
C680   C686    1.408   .     A
C681   C683    1.422   .     A
C681   C1420   1.415   .     S
C682   C684    1.415   .     A
C682   C1419   1.415   1_554 S
C685   O707    1.380   .     S
C685   C1397   1.398   .     S
C686   O712    1.383   .     S
C686   C1398   1.399   1_554 S
Cu687  O699    1.966   .     S
Cu687  N693    2.013   .     S
Cu687  Cu688   2.679   .     S
Cu687  O697    1.975   .     S
Cu687  O695    1.981   .     S
Cu687  O701    1.963   .     S
Cu688  N694    2.013   .     S
Cu688  O700    1.966   .     S
Cu688  O702    1.963   .     S
Cu688  O696    1.981   .     S
Cu688  O698    1.975   .     S
O707   C708    1.414   .     S
C708   H711    1.114   .     S
C708   H709    1.109   .     S
C708   H1448   1.112   .     S
H710   C1446   1.112   1_554 S
O712   C713    1.414   .     S
C713   H715    1.113   .     S
C713   H716    1.108   .     S
C713   H714    1.112   .     S
O719   C720    1.407   .     S
C720   H723    1.108   .     S
C720   H722    1.114   .     S
C720   H721    1.109   .     S
O724   C725    1.407   .     S
C725   H727    1.108   .     S
C725   H728    1.114   .     S
C725   H726    1.109   .     S
O729   C730    1.417   .     S
C730   H733    1.110   .     S
C730   H731    1.109   .     S
C730   H732    1.109   .     S
O734   C735    1.409   .     S
C735   H737    1.113   .     S
C735   H738    1.110   .     S
C735   H736    1.105   .     S
C739   C748    1.460   .     S
C739   O777    1.291   .     A
C739   O780    1.295   .     A
C740   O779    1.297   .     A
C740   O778    1.291   .     A
C740   C747    1.464   .     S
C741   C766    1.404   .     A
C741   Br799   1.928   .     S
C742   Br800   1.931   .     S
C742   C765    1.417   .     A
C742   C30     1.399   1_556 S
C743   O801    1.388   .     S
C743   C748    1.404   .     A
C743   C909    1.402   1_455 S
C744   C747    1.410   .     A
C744   O806    1.385   .     S
C744   C828    1.395   .     S
C745   O811    1.384   .     S
C745   C747    1.417   .     A
C745   C825    1.402   .     S
C746   O816    1.382   .     S
C746   C748    1.407   .     A
C746   C908    1.395   1_455 S
C749   N776    1.367   .     A
C749   H771    1.082   .     S
C749   C1244   1.417   1_545 S
C750   N775    1.367   .     A
C750   H772    1.082   .     S
C750   C997    1.417   .     S
C751   H773    1.081   .     S
C751   N776    1.367   .     A
C751   C1242   1.417   1_545 S
C752   H774    1.081   .     S
C752   N775    1.367   .     A
C752   C995    1.417   .     S
C753   C758    1.453   .     S
C753   O781    1.293   .     A
C753   O784    1.289   .     A
C754   O782    1.291   .     A
C754   O783    1.290   .     A
C754   C757    1.453   .     S
C755   C765    1.408   .     A
C755   Br785   1.941   .     S
C755   C757    1.400   .     A
C756   C766    1.411   .     A
C756   Br786   1.936   .     S
C756   C758    1.402   .     A
C757   C759    1.404   .     A
C758   C760    1.400   .     A
C759   Br787   1.946   .     S
C759   C761    1.418   .     A
C760   Br788   1.939   .     S
C760   C762    1.408   .     A
C761   C767    1.419   .     A
C761   C763    1.424   .     A
C762   C764    1.414   .     A
C762   C768    1.408   .     A
C763   C765    1.422   .     A
C763   C26     1.415   1_556 S
C764   C766    1.415   .     A
C767   O789    1.380   .     S
C767   C3      1.398   1_556 S
C768   O794    1.383   .     S
Cu769  O781    1.966   .     S
Cu769  N775    2.013   .     S
Cu769  Cu770   2.679   .     S
Cu769  O779    1.975   .     S
Cu769  O777    1.981   .     S
Cu769  O783    1.963   .     S
Cu770  N776    2.013   .     S
Cu770  O782    1.966   .     S
Cu770  O784    1.963   .     S
Cu770  O778    1.981   .     S
Cu770  O780    1.975   .     S
O789   C790    1.414   .     S
C790   H793    1.114   .     S
C790   H791    1.109   .     S
C790   H54     1.112   1_556 S
O794   C795    1.414   .     S
C795   H797    1.113   .     S
C795   H798    1.108   .     S
C795   H796    1.112   .     S
O801   C802    1.407   .     S
C802   H805    1.108   .     S
C802   H804    1.114   .     S
C802   H803    1.109   .     S
O806   C807    1.407   .     S
C807   H809    1.108   .     S
C807   H810    1.114   .     S
C807   H808    1.109   .     S
O811   C812    1.417   .     S
C812   H815    1.110   .     S
C812   H813    1.109   .     S
C812   H814    1.109   .     S
O816   C817    1.409   .     S
C817   H819    1.113   .     S
C817   H820    1.110   .     S
C817   H818    1.105   .     S
C821   C830    1.460   .     S
C821   O859    1.291   .     A
C821   O862    1.295   .     A
C822   O861    1.297   .     A
C822   O860    1.291   .     A
C822   C829    1.464   .     S
C823   C848    1.404   .     A
C823   Br881   1.928   .     S
C824   Br882   1.931   .     S
C824   C847    1.417   .     A
C824   C112    1.399   1_556 S
C825   O883    1.388   .     S
C825   C830    1.404   .     A
C826   C829    1.410   .     A
C826   O888    1.385   .     S
C826   C910    1.395   .     S
C827   O893    1.384   .     S
C827   C829    1.417   .     A
C827   C907    1.402   .     S
C828   O898    1.382   .     S
C828   C830    1.407   .     A
C831   N858    1.367   .     A
C831   H853    1.082   .     S
C831   C1326   1.417   1_545 S
C832   N857    1.367   .     A
C832   H854    1.082   .     S
C832   C1079   1.417   .     S
C833   H855    1.081   .     S
C833   N858    1.367   .     A
C833   C1324   1.417   1_545 S
C834   H856    1.081   .     S
C834   N857    1.367   .     A
C834   C1077   1.417   .     S
C835   C840    1.453   .     S
C835   O863    1.293   .     A
C835   O866    1.289   .     A
C836   O864    1.291   .     A
C836   O865    1.290   .     A
C836   C839    1.453   .     S
C837   C847    1.408   .     A
C837   Br867   1.941   .     S
C837   C839    1.400   .     A
C838   C848    1.411   .     A
C838   Br868   1.936   .     S
C838   C840    1.402   .     A
C839   C841    1.404   .     A
C840   C842    1.400   .     A
C841   Br869   1.946   .     S
C841   C843    1.418   .     A
C842   Br870   1.939   .     S
C842   C844    1.408   .     A
C843   C849    1.419   .     A
C843   C845    1.424   .     A
C844   C846    1.414   .     A
C844   C850    1.408   .     A
C845   C847    1.422   .     A
C845   C108    1.415   1_556 S
C846   C848    1.415   .     A
C849   O871    1.380   .     S
C849   C85     1.398   1_556 S
C850   O876    1.383   .     S
Cu851  O863    1.966   .     S
Cu851  N857    2.013   .     S
Cu851  Cu852   2.679   .     S
Cu851  O861    1.975   .     S
Cu851  O859    1.981   .     S
Cu851  O865    1.963   .     S
Cu852  N858    2.013   .     S
Cu852  O864    1.966   .     S
Cu852  O866    1.963   .     S
Cu852  O860    1.981   .     S
Cu852  O862    1.975   .     S
O871   C872    1.414   .     S
C872   H875    1.114   .     S
C872   H873    1.109   .     S
C872   H136    1.112   1_556 S
O876   C877    1.414   .     S
C877   H879    1.113   .     S
C877   H880    1.108   .     S
C877   H878    1.112   .     S
O883   C884    1.407   .     S
C884   H887    1.108   .     S
C884   H886    1.114   .     S
C884   H885    1.109   .     S
O888   C889    1.407   .     S
C889   H891    1.108   .     S
C889   H892    1.114   .     S
C889   H890    1.109   .     S
O893   C894    1.417   .     S
C894   H897    1.110   .     S
C894   H895    1.109   .     S
C894   H896    1.109   .     S
O898   C899    1.409   .     S
C899   H901    1.113   .     S
C899   H902    1.110   .     S
C899   H900    1.105   .     S
C903   C912    1.460   .     S
C903   O941    1.291   .     A
C903   O944    1.295   .     A
C904   O943    1.297   .     A
C904   O942    1.291   .     A
C904   C911    1.464   .     S
C905   C930    1.404   .     A
C905   Br963   1.928   .     S
C906   Br964   1.931   .     S
C906   C929    1.417   .     A
C906   C194    1.399   1_556 S
C907   O965    1.388   .     S
C907   C912    1.404   .     A
C908   C911    1.410   .     A
C908   O970    1.385   .     S
C908   C746    1.395   1_655 S
C909   O975    1.384   .     S
C909   C911    1.417   .     A
C909   C743    1.402   1_655 S
C910   O980    1.382   .     S
C910   C912    1.407   .     A
C913   N940    1.367   .     A
C913   H935    1.082   .     S
C913   C1408   1.417   1_545 S
C914   N939    1.367   .     A
C914   H936    1.082   .     S
C914   C1161   1.417   .     S
C915   H937    1.081   .     S
C915   N940    1.367   .     A
C915   C1406   1.417   1_545 S
C916   H938    1.081   .     S
C916   N939    1.367   .     A
C916   C1159   1.417   .     S
C917   C922    1.453   .     S
C917   O945    1.293   .     A
C917   O948    1.289   .     A
C918   O946    1.291   .     A
C918   O947    1.290   .     A
C918   C921    1.453   .     S
C919   C929    1.408   .     A
C919   Br949   1.941   .     S
C919   C921    1.400   .     A
C920   C930    1.411   .     A
C920   Br950   1.936   .     S
C920   C922    1.402   .     A
C921   C923    1.404   .     A
C922   C924    1.400   .     A
C923   Br951   1.946   .     S
C923   C925    1.418   .     A
C924   Br952   1.939   .     S
C924   C926    1.408   .     A
C925   C931    1.419   .     A
C925   C927    1.424   .     A
C926   C928    1.414   .     A
C926   C932    1.408   .     A
C927   C929    1.422   .     A
C927   C190    1.415   1_556 S
C928   C930    1.415   .     A
C931   O953    1.380   .     S
C931   C167    1.398   1_556 S
C932   O958    1.383   .     S
Cu933  O945    1.966   .     S
Cu933  N939    2.013   .     S
Cu933  Cu934   2.679   .     S
Cu933  O943    1.975   .     S
Cu933  O941    1.981   .     S
Cu933  O947    1.963   .     S
Cu934  N940    2.013   .     S
Cu934  O946    1.966   .     S
Cu934  O948    1.963   .     S
Cu934  O942    1.981   .     S
Cu934  O944    1.975   .     S
O953   C954    1.414   .     S
C954   H957    1.114   .     S
C954   H955    1.109   .     S
C954   H218    1.112   1_556 S
O958   C959    1.414   .     S
C959   H961    1.113   .     S
C959   H962    1.108   .     S
C959   H960    1.112   .     S
O965   C966    1.407   .     S
C966   H969    1.108   .     S
C966   H968    1.114   .     S
C966   H967    1.109   .     S
O970   C971    1.407   .     S
C971   H973    1.108   .     S
C971   H974    1.114   .     S
C971   H972    1.109   .     S
O975   C976    1.417   .     S
C976   H979    1.110   .     S
C976   H977    1.109   .     S
C976   H978    1.109   .     S
O980   C981    1.409   .     S
C981   H983    1.113   .     S
C981   H984    1.110   .     S
C981   H982    1.105   .     S
C985   C994    1.460   .     S
C985   O1023   1.291   .     A
C985   O1026   1.295   .     A
C986   O1025   1.297   .     A
C986   O1024   1.291   .     A
C986   C993    1.464   .     S
C987   C1012   1.404   .     A
C987   Br1045  1.928   .     S
C988   Br1046  1.931   .     S
C988   C1011   1.417   .     A
C988   C276    1.399   1_556 S
C989   O1047   1.388   .     S
C989   C994    1.404   .     A
C989   C1155   1.402   1_455 S
C990   C993    1.410   .     A
C990   O1052   1.385   .     S
C990   C1074   1.395   .     S
C991   O1057   1.384   .     S
C991   C993    1.417   .     A
C991   C1071   1.402   .     S
C992   O1062   1.382   .     S
C992   C994    1.407   .     A
C992   C1154   1.395   1_455 S
C995   N1022   1.367   .     A
C995   H1017   1.082   .     S
C996   N1021   1.367   .     A
C996   H1018   1.082   .     S
C996   C1243   1.417   .     S
C997   H1019   1.081   .     S
C997   N1022   1.367   .     A
C998   H1020   1.081   .     S
C998   N1021   1.367   .     A
C998   C1241   1.417   .     S
C999   C1004   1.453   .     S
C999   O1027   1.293   .     A
C999   O1030   1.289   .     A
C1000  O1028   1.291   .     A
C1000  O1029   1.290   .     A
C1000  C1003   1.453   .     S
C1001  C1011   1.408   .     A
C1001  Br1031  1.941   .     S
C1001  C1003   1.400   .     A
C1002  C1012   1.411   .     A
C1002  Br1032  1.936   .     S
C1002  C1004   1.402   .     A
C1003  C1005   1.404   .     A
C1004  C1006   1.400   .     A
C1005  Br1033  1.946   .     S
C1005  C1007   1.418   .     A
C1006  Br1034  1.939   .     S
C1006  C1008   1.408   .     A
C1007  C1013   1.419   .     A
C1007  C1009   1.424   .     A
C1008  C1010   1.414   .     A
C1008  C1014   1.408   .     A
C1009  C1011   1.422   .     A
C1009  C272    1.415   1_556 S
C1010  C1012   1.415   .     A
C1013  O1035   1.380   .     S
C1013  C249    1.398   1_556 S
C1014  O1040   1.383   .     S
Cu1015 O1027   1.966   .     S
Cu1015 N1021   2.013   .     S
Cu1015 Cu1016  2.679   .     S
Cu1015 O1025   1.975   .     S
Cu1015 O1023   1.981   .     S
Cu1015 O1029   1.963   .     S
Cu1016 N1022   2.013   .     S
Cu1016 O1028   1.966   .     S
Cu1016 O1030   1.963   .     S
Cu1016 O1024   1.981   .     S
Cu1016 O1026   1.975   .     S
O1035  C1036   1.414   .     S
C1036  H1039   1.114   .     S
C1036  H1037   1.109   .     S
C1036  H300    1.112   1_556 S
O1040  C1041   1.414   .     S
C1041  H1043   1.113   .     S
C1041  H1044   1.108   .     S
C1041  H1042   1.112   .     S
O1047  C1048   1.407   .     S
C1048  H1051   1.108   .     S
C1048  H1050   1.114   .     S
C1048  H1049   1.109   .     S
O1052  C1053   1.407   .     S
C1053  H1055   1.108   .     S
C1053  H1056   1.114   .     S
C1053  H1054   1.109   .     S
O1057  C1058   1.417   .     S
C1058  H1061   1.110   .     S
C1058  H1059   1.109   .     S
C1058  H1060   1.109   .     S
O1062  C1063   1.409   .     S
C1063  H1065   1.113   .     S
C1063  H1066   1.110   .     S
C1063  H1064   1.105   .     S
C1067  C1076   1.460   .     S
C1067  O1105   1.291   .     A
C1067  O1108   1.295   .     A
C1068  O1107   1.297   .     A
C1068  O1106   1.291   .     A
C1068  C1075   1.464   .     S
C1069  C1094   1.404   .     A
C1069  Br1127  1.928   .     S
C1070  Br1128  1.931   .     S
C1070  C1093   1.417   .     A
C1070  C358    1.399   1_556 S
C1071  O1129   1.388   .     S
C1071  C1076   1.404   .     A
C1072  C1075   1.410   .     A
C1072  O1134   1.385   .     S
C1072  C1156   1.395   .     S
C1073  O1139   1.384   .     S
C1073  C1075   1.417   .     A
C1073  C1153   1.402   .     S
C1074  O1144   1.382   .     S
C1074  C1076   1.407   .     A
C1077  N1104   1.367   .     A
C1077  H1099   1.082   .     S
C1078  N1103   1.367   .     A
C1078  H1100   1.082   .     S
C1078  C1325   1.417   .     S
C1079  H1101   1.081   .     S
C1079  N1104   1.367   .     A
C1080  H1102   1.081   .     S
C1080  N1103   1.367   .     A
C1080  C1323   1.417   .     S
C1081  C1086   1.453   .     S
C1081  O1109   1.293   .     A
C1081  O1112   1.289   .     A
C1082  O1110   1.291   .     A
C1082  O1111   1.290   .     A
C1082  C1085   1.453   .     S
C1083  C1093   1.408   .     A
C1083  Br1113  1.941   .     S
C1083  C1085   1.400   .     A
C1084  C1094   1.411   .     A
C1084  Br1114  1.936   .     S
C1084  C1086   1.402   .     A
C1085  C1087   1.404   .     A
C1086  C1088   1.400   .     A
C1087  Br1115  1.946   .     S
C1087  C1089   1.418   .     A
C1088  Br1116  1.939   .     S
C1088  C1090   1.408   .     A
C1089  C1095   1.419   .     A
C1089  C1091   1.424   .     A
C1090  C1092   1.414   .     A
C1090  C1096   1.408   .     A
C1091  C1093   1.422   .     A
C1091  C354    1.415   1_556 S
C1092  C1094   1.415   .     A
C1095  O1117   1.380   .     S
C1095  C331    1.398   1_556 S
C1096  O1122   1.383   .     S
Cu1097 O1109   1.966   .     S
Cu1097 N1103   2.013   .     S
Cu1097 Cu1098  2.679   .     S
Cu1097 O1107   1.975   .     S
Cu1097 O1105   1.981   .     S
Cu1097 O1111   1.963   .     S
Cu1098 N1104   2.013   .     S
Cu1098 O1110   1.966   .     S
Cu1098 O1112   1.963   .     S
Cu1098 O1106   1.981   .     S
Cu1098 O1108   1.975   .     S
O1117  C1118   1.414   .     S
C1118  H1121   1.114   .     S
C1118  H1119   1.109   .     S
C1118  H382    1.112   1_556 S
O1122  C1123   1.414   .     S
C1123  H1125   1.113   .     S
C1123  H1126   1.108   .     S
C1123  H1124   1.112   .     S
O1129  C1130   1.407   .     S
C1130  H1133   1.108   .     S
C1130  H1132   1.114   .     S
C1130  H1131   1.109   .     S
O1134  C1135   1.407   .     S
C1135  H1137   1.108   .     S
C1135  H1138   1.114   .     S
C1135  H1136   1.109   .     S
O1139  C1140   1.417   .     S
C1140  H1143   1.110   .     S
C1140  H1141   1.109   .     S
C1140  H1142   1.109   .     S
O1144  C1145   1.409   .     S
C1145  H1147   1.113   .     S
C1145  H1148   1.110   .     S
C1145  H1146   1.105   .     S
C1149  C1158   1.460   .     S
C1149  O1187   1.291   .     A
C1149  O1190   1.295   .     A
C1150  O1189   1.297   .     A
C1150  O1188   1.291   .     A
C1150  C1157   1.464   .     S
C1151  C1176   1.404   .     A
C1151  Br1209  1.928   .     S
C1152  Br1210  1.931   .     S
C1152  C1175   1.417   .     A
C1152  C440    1.399   1_556 S
C1153  O1211   1.388   .     S
C1153  C1158   1.404   .     A
C1154  C1157   1.410   .     A
C1154  O1216   1.385   .     S
C1154  C992    1.395   1_655 S
C1155  O1221   1.384   .     S
C1155  C1157   1.417   .     A
C1155  C989    1.402   1_655 S
C1156  O1226   1.382   .     S
C1156  C1158   1.407   .     A
C1159  N1186   1.367   .     A
C1159  H1181   1.082   .     S
C1160  N1185   1.367   .     A
C1160  H1182   1.082   .     S
C1160  C1407   1.417   .     S
C1161  H1183   1.081   .     S
C1161  N1186   1.367   .     A
C1162  H1184   1.081   .     S
C1162  N1185   1.367   .     A
C1162  C1405   1.417   .     S
C1163  C1168   1.453   .     S
C1163  O1191   1.293   .     A
C1163  O1194   1.289   .     A
C1164  O1192   1.291   .     A
C1164  O1193   1.290   .     A
C1164  C1167   1.453   .     S
C1165  C1175   1.408   .     A
C1165  Br1195  1.941   .     S
C1165  C1167   1.400   .     A
C1166  C1176   1.411   .     A
C1166  Br1196  1.936   .     S
C1166  C1168   1.402   .     A
C1167  C1169   1.404   .     A
C1168  C1170   1.400   .     A
C1169  Br1197  1.946   .     S
C1169  C1171   1.418   .     A
C1170  Br1198  1.939   .     S
C1170  C1172   1.408   .     A
C1171  C1177   1.419   .     A
C1171  C1173   1.424   .     A
C1172  C1174   1.414   .     A
C1172  C1178   1.408   .     A
C1173  C1175   1.422   .     A
C1173  C436    1.415   1_556 S
C1174  C1176   1.415   .     A
C1177  O1199   1.380   .     S
C1177  C413    1.398   1_556 S
C1178  O1204   1.383   .     S
Cu1179 O1191   1.966   .     S
Cu1179 N1185   2.013   .     S
Cu1179 Cu1180  2.679   .     S
Cu1179 O1189   1.975   .     S
Cu1179 O1187   1.981   .     S
Cu1179 O1193   1.963   .     S
Cu1180 N1186   2.013   .     S
Cu1180 O1192   1.966   .     S
Cu1180 O1194   1.963   .     S
Cu1180 O1188   1.981   .     S
Cu1180 O1190   1.975   .     S
O1199  C1200   1.414   .     S
C1200  H1203   1.114   .     S
C1200  H1201   1.109   .     S
C1200  H464    1.112   1_556 S
O1204  C1205   1.414   .     S
C1205  H1207   1.113   .     S
C1205  H1208   1.108   .     S
C1205  H1206   1.112   .     S
O1211  C1212   1.407   .     S
C1212  H1215   1.108   .     S
C1212  H1214   1.114   .     S
C1212  H1213   1.109   .     S
O1216  C1217   1.407   .     S
C1217  H1219   1.108   .     S
C1217  H1220   1.114   .     S
C1217  H1218   1.109   .     S
O1221  C1222   1.417   .     S
C1222  H1225   1.110   .     S
C1222  H1223   1.109   .     S
C1222  H1224   1.109   .     S
O1226  C1227   1.409   .     S
C1227  H1229   1.113   .     S
C1227  H1230   1.110   .     S
C1227  H1228   1.105   .     S
C1231  C1240   1.460   .     S
C1231  O1269   1.291   .     A
C1231  O1272   1.295   .     A
C1232  O1271   1.297   .     A
C1232  O1270   1.291   .     A
C1232  C1239   1.464   .     S
C1233  C1258   1.404   .     A
C1233  Br1291  1.928   .     S
C1234  Br1292  1.931   .     S
C1234  C1257   1.417   .     A
C1234  C522    1.399   1_556 S
C1235  O1293   1.388   .     S
C1235  C1240   1.404   .     A
C1235  C1401   1.402   1_455 S
C1236  C1239   1.410   .     A
C1236  O1298   1.385   .     S
C1236  C1320   1.395   .     S
C1237  O1303   1.384   .     S
C1237  C1239   1.417   .     A
C1237  C1317   1.402   .     S
C1238  O1308   1.382   .     S
C1238  C1240   1.407   .     A
C1238  C1400   1.395   1_455 S
C1241  N1268   1.367   .     A
C1241  H1263   1.082   .     S
C1242  N1267   1.367   .     A
C1242  H1264   1.082   .     S
C1242  C751    1.417   1_565 S
C1243  H1265   1.081   .     S
C1243  N1268   1.367   .     A
C1244  H1266   1.081   .     S
C1244  N1267   1.367   .     A
C1244  C749    1.417   1_565 S
C1245  C1250   1.453   .     S
C1245  O1273   1.293   .     A
C1245  O1276   1.289   .     A
C1246  O1274   1.291   .     A
C1246  O1275   1.290   .     A
C1246  C1249   1.453   .     S
C1247  C1257   1.408   .     A
C1247  Br1277  1.941   .     S
C1247  C1249   1.400   .     A
C1248  C1258   1.411   .     A
C1248  Br1278  1.936   .     S
C1248  C1250   1.402   .     A
C1249  C1251   1.404   .     A
C1250  C1252   1.400   .     A
C1251  Br1279  1.946   .     S
C1251  C1253   1.418   .     A
C1252  Br1280  1.939   .     S
C1252  C1254   1.408   .     A
C1253  C1259   1.419   .     A
C1253  C1255   1.424   .     A
C1254  C1256   1.414   .     A
C1254  C1260   1.408   .     A
C1255  C1257   1.422   .     A
C1255  C518    1.415   1_556 S
C1256  C1258   1.415   .     A
C1259  O1281   1.380   .     S
C1259  C495    1.398   1_556 S
C1260  O1286   1.383   .     S
Cu1261 O1273   1.966   .     S
Cu1261 N1267   2.013   .     S
Cu1261 Cu1262  2.679   .     S
Cu1261 O1271   1.975   .     S
Cu1261 O1269   1.981   .     S
Cu1261 O1275   1.963   .     S
Cu1262 N1268   2.013   .     S
Cu1262 O1274   1.966   .     S
Cu1262 O1276   1.963   .     S
Cu1262 O1270   1.981   .     S
Cu1262 O1272   1.975   .     S
O1281  C1282   1.414   .     S
C1282  H1285   1.114   .     S
C1282  H1283   1.109   .     S
C1282  H546    1.112   1_556 S
O1286  C1287   1.414   .     S
C1287  H1289   1.113   .     S
C1287  H1290   1.108   .     S
C1287  H1288   1.112   .     S
O1293  C1294   1.407   .     S
C1294  H1297   1.108   .     S
C1294  H1296   1.114   .     S
C1294  H1295   1.109   .     S
O1298  C1299   1.407   .     S
C1299  H1301   1.108   .     S
C1299  H1302   1.114   .     S
C1299  H1300   1.109   .     S
O1303  C1304   1.417   .     S
C1304  H1307   1.110   .     S
C1304  H1305   1.109   .     S
C1304  H1306   1.109   .     S
O1308  C1309   1.409   .     S
C1309  H1311   1.113   .     S
C1309  H1312   1.110   .     S
C1309  H1310   1.105   .     S
C1313  C1322   1.460   .     S
C1313  O1351   1.291   .     A
C1313  O1354   1.295   .     A
C1314  O1353   1.297   .     A
C1314  O1352   1.291   .     A
C1314  C1321   1.464   .     S
C1315  C1340   1.404   .     A
C1315  Br1373  1.928   .     S
C1316  Br1374  1.931   .     S
C1316  C1339   1.417   .     A
C1316  C604    1.399   1_556 S
C1317  O1375   1.388   .     S
C1317  C1322   1.404   .     A
C1318  C1321   1.410   .     A
C1318  O1380   1.385   .     S
C1318  C1402   1.395   .     S
C1319  O1385   1.384   .     S
C1319  C1321   1.417   .     A
C1319  C1399   1.402   .     S
C1320  O1390   1.382   .     S
C1320  C1322   1.407   .     A
C1323  N1350   1.367   .     A
C1323  H1345   1.082   .     S
C1324  N1349   1.367   .     A
C1324  H1346   1.082   .     S
C1324  C833    1.417   1_565 S
C1325  H1347   1.081   .     S
C1325  N1350   1.367   .     A
C1326  H1348   1.081   .     S
C1326  N1349   1.367   .     A
C1326  C831    1.417   1_565 S
C1327  C1332   1.453   .     S
C1327  O1355   1.293   .     A
C1327  O1358   1.289   .     A
C1328  O1356   1.291   .     A
C1328  O1357   1.290   .     A
C1328  C1331   1.453   .     S
C1329  C1339   1.408   .     A
C1329  Br1359  1.941   .     S
C1329  C1331   1.400   .     A
C1330  C1340   1.411   .     A
C1330  Br1360  1.936   .     S
C1330  C1332   1.402   .     A
C1331  C1333   1.404   .     A
C1332  C1334   1.400   .     A
C1333  Br1361  1.946   .     S
C1333  C1335   1.418   .     A
C1334  Br1362  1.939   .     S
C1334  C1336   1.408   .     A
C1335  C1341   1.419   .     A
C1335  C1337   1.424   .     A
C1336  C1338   1.414   .     A
C1336  C1342   1.408   .     A
C1337  C1339   1.422   .     A
C1337  C600    1.415   1_556 S
C1338  C1340   1.415   .     A
C1341  O1363   1.380   .     S
C1341  C577    1.398   1_556 S
C1342  O1368   1.383   .     S
Cu1343 O1355   1.966   .     S
Cu1343 N1349   2.013   .     S
Cu1343 Cu1344  2.679   .     S
Cu1343 O1353   1.975   .     S
Cu1343 O1351   1.981   .     S
Cu1343 O1357   1.963   .     S
Cu1344 N1350   2.013   .     S
Cu1344 O1356   1.966   .     S
Cu1344 O1358   1.963   .     S
Cu1344 O1352   1.981   .     S
Cu1344 O1354   1.975   .     S
O1363  C1364   1.414   .     S
C1364  H1367   1.114   .     S
C1364  H1365   1.109   .     S
C1364  H628    1.112   1_556 S
O1368  C1369   1.414   .     S
C1369  H1371   1.113   .     S
C1369  H1372   1.108   .     S
C1369  H1370   1.112   .     S
O1375  C1376   1.407   .     S
C1376  H1379   1.108   .     S
C1376  H1378   1.114   .     S
C1376  H1377   1.109   .     S
O1380  C1381   1.407   .     S
C1381  H1383   1.108   .     S
C1381  H1384   1.114   .     S
C1381  H1382   1.109   .     S
O1385  C1386   1.417   .     S
C1386  H1389   1.110   .     S
C1386  H1387   1.109   .     S
C1386  H1388   1.109   .     S
O1390  C1391   1.409   .     S
C1391  H1393   1.113   .     S
C1391  H1394   1.110   .     S
C1391  H1392   1.105   .     S
C1395  C1404   1.460   .     S
C1395  O1433   1.291   .     A
C1395  O1436   1.295   .     A
C1396  O1435   1.297   .     A
C1396  O1434   1.291   .     A
C1396  C1403   1.464   .     S
C1397  C1422   1.404   .     A
C1397  Br1455  1.928   .     S
C1398  Br1456  1.931   .     S
C1398  C1421   1.417   .     A
C1398  C686    1.399   1_556 S
C1399  O1457   1.388   .     S
C1399  C1404   1.404   .     A
C1400  C1403   1.410   .     A
C1400  O1462   1.385   .     S
C1400  C1238   1.395   1_655 S
C1401  O1467   1.384   .     S
C1401  C1403   1.417   .     A
C1401  C1235   1.402   1_655 S
C1402  O1472   1.382   .     S
C1402  C1404   1.407   .     A
C1405  N1432   1.367   .     A
C1405  H1427   1.082   .     S
C1406  N1431   1.367   .     A
C1406  H1428   1.082   .     S
C1406  C915    1.417   1_565 S
C1407  H1429   1.081   .     S
C1407  N1432   1.367   .     A
C1408  H1430   1.081   .     S
C1408  N1431   1.367   .     A
C1408  C913    1.417   1_565 S
C1409  C1414   1.453   .     S
C1409  O1437   1.293   .     A
C1409  O1440   1.289   .     A
C1410  O1438   1.291   .     A
C1410  O1439   1.290   .     A
C1410  C1413   1.453   .     S
C1411  C1421   1.408   .     A
C1411  Br1441  1.941   .     S
C1411  C1413   1.400   .     A
C1412  C1422   1.411   .     A
C1412  Br1442  1.936   .     S
C1412  C1414   1.402   .     A
C1413  C1415   1.404   .     A
C1414  C1416   1.400   .     A
C1415  Br1443  1.946   .     S
C1415  C1417   1.418   .     A
C1416  Br1444  1.939   .     S
C1416  C1418   1.408   .     A
C1417  C1423   1.419   .     A
C1417  C1419   1.424   .     A
C1418  C1420   1.414   .     A
C1418  C1424   1.408   .     A
C1419  C1421   1.422   .     A
C1419  C682    1.415   1_556 S
C1420  C1422   1.415   .     A
C1423  O1445   1.380   .     S
C1423  C659    1.398   1_556 S
C1424  O1450   1.383   .     S
Cu1425 O1437   1.966   .     S
Cu1425 N1431   2.013   .     S
Cu1425 Cu1426  2.679   .     S
Cu1425 O1435   1.975   .     S
Cu1425 O1433   1.981   .     S
Cu1425 O1439   1.963   .     S
Cu1426 N1432   2.013   .     S
Cu1426 O1438   1.966   .     S
Cu1426 O1440   1.963   .     S
Cu1426 O1434   1.981   .     S
Cu1426 O1436   1.975   .     S
O1445  C1446   1.414   .     S
C1446  H1449   1.114   .     S
C1446  H1447   1.109   .     S
C1446  H710    1.112   1_556 S
O1450  C1451   1.414   .     S
C1451  H1453   1.113   .     S
C1451  H1454   1.108   .     S
C1451  H1452   1.112   .     S
O1457  C1458   1.407   .     S
C1458  H1461   1.108   .     S
C1458  H1460   1.114   .     S
C1458  H1459   1.109   .     S
O1462  C1463   1.407   .     S
C1463  H1465   1.108   .     S
C1463  H1466   1.114   .     S
C1463  H1464   1.109   .     S
O1467  C1468   1.417   .     S
C1468  H1471   1.110   .     S
C1468  H1469   1.109   .     S
C1468  H1470   1.109   .     S
O1472  C1473   1.409   .     S
C1473  H1475   1.113   .     S
C1473  H1476   1.110   .     S
C1473  H1474   1.105   .     S
