data_str_m2_o10_o18_pcu_sym.36
_audit_creation_date              2020-01-03
_audit_creation_method            'Materials Studio'
_symmetry_space_group_name_H-M    'P1'
_symmetry_Int_Tables_number       1
_symmetry_cell_setting            triclinic
loop_
_symmetry_equiv_pos_as_xyz
  x,y,z
_cell_length_a                    22.5174
_cell_length_b                    26.0235
_cell_length_c                    31.5276
_cell_angle_alpha                 94.1894
_cell_angle_beta                  75.7744
_cell_angle_gamma                 103.3266
loop_
_atom_site_label
_atom_site_type_symbol
_atom_site_fract_x
_atom_site_fract_y
_atom_site_fract_z
_atom_site_U_iso_or_equiv
_atom_site_adp_type
_atom_site_occupancy
C1     C     0.18159   0.26665   0.25151   0.00000  Uiso   1.00
C2     C     0.20500   0.17129   0.16694   0.00000  Uiso   1.00
C3     C     0.10370   0.15753   0.38187   0.00000  Uiso   1.00
C4     C     0.22729   0.18001   0.11935   0.00000  Uiso   1.00
C5     C     0.01776   0.14878   0.44731   0.00000  Uiso   1.00
C6     C     0.29308   0.23471   0.05885   0.00000  Uiso   1.00
C7     C     0.04186   0.16241   0.40309   0.00000  Uiso   1.00
C8     C     0.28200   0.21875   0.10181   0.00000  Uiso   1.00
C9     C     0.14201   0.14816   0.40854   0.00000  Uiso   1.00
C10    C     0.18651   0.15582   0.09220   0.00000  Uiso   1.00
C11    C     0.12320   0.15556   0.45403   0.00000  Uiso   1.00
C12    C     0.15161   0.06667   0.24873   0.00000  Uiso   1.00
C13    C     0.19362   0.17765   0.05088   0.00000  Uiso   1.00
C14    C     0.05895   0.14682   0.47354   0.00000  Uiso   1.00
C15    C     0.24978   0.21493   0.03351   0.00000  Uiso   1.00
C16    C     0.16630   0.17350   0.48030   0.00000  Uiso   1.00
C17    C     0.14749   0.16395   0.02569   0.00000  Uiso   1.00
C18    C     0.14422   0.10188   0.10450   0.00000  Uiso   1.00
C19    C     0.19400   0.11952   0.39093   0.00000  Uiso   1.00
C20    C     0.32195   0.29286   0.14560   0.00000  Uiso   1.00
C21    C     0.02411   0.23908   0.37364   0.00000  Uiso   1.00
C22    C     0.08243   0.14726   0.04462   0.00000  Uiso   1.00
C23    C     0.22359   0.20847   0.46332   0.00000  Uiso   1.00
C24    C     0.03848   0.14057   0.01888   0.00000  Uiso   1.00
C25    C     0.26296   0.23149   0.49042   0.00000  Uiso   1.00
C26    C     0.18988   0.32273   0.25224   0.00000  Uiso   1.00
C27    C     0.14321   0.01058   0.24819   0.00000  Uiso   1.00
C28    C     0.12809   0.16205   0.33337   0.00000  Uiso   1.00
Cu29   Cu    0.10737   0.16108   0.24516   0.00000  Uiso   1.00
Cu30   Cu    0.22596   0.17225   0.25483   0.00000  Uiso   1.00
H31    H     0.32216   0.13192   0.03450   0.00000  Uiso   1.00
H32    H     0.33179   0.12747   0.21591   0.00000  Uiso   1.00
H33    H     0.09933   0.10554   0.12747   0.00000  Uiso   1.00
H34    H     0.13428   0.07847   0.07518   0.00000  Uiso   1.00
H35    H     0.16798   0.07854   0.12044   0.00000  Uiso   1.00
H36    H     0.23189   0.14534   0.36871   0.00000  Uiso   1.00
H37    H     0.21287   0.10752   0.41716   0.00000  Uiso   1.00
H38    H     0.17646   0.08320   0.37285   0.00000  Uiso   1.00
H39    H     0.00540   0.21672   0.14513   0.00000  Uiso   1.00
H40    H     0.02724   0.30816   0.16245   0.00000  Uiso   1.00
H41    H     0.27631   0.28964   0.16984   0.00000  Uiso   1.00
H42    H     0.30541   0.26035   0.47713   0.00000  Uiso   1.00
H43    H     0.32540   0.32135   0.12005   0.00000  Uiso   1.00
H44    H     0.32866   0.16104   0.35463   0.00000  Uiso   1.00
H45    H     0.32143   0.25240   0.36132   0.00000  Uiso   1.00
H46    H     0.06938   0.24830   0.34880   0.00000  Uiso   1.00
H47    H     0.02973   0.26139   0.40427   0.00000  Uiso   1.00
H48    H     0.30156   0.14423   0.46182   0.00000  Uiso   1.00
H49    H     0.00257   0.26322   0.04529   0.00000  Uiso   1.00
H50    H     0.06452   0.14486   0.07963   0.00000  Uiso   1.00
H51    H     0.23575   0.22111   0.42977   0.00000  Uiso   1.00
H52    H     0.23482   0.01334   0.25596   0.00000  Uiso   1.00
H53    H     0.09828   0.31997   0.24443   0.00000  Uiso   1.00
H54    H     0.00174   0.20619   0.28379   0.00000  Uiso   1.00
N55    N     0.31506   0.18068   0.26212   0.00000  Uiso   1.00
N56    N     0.01827   0.15265   0.23788   0.00000  Uiso   1.00
N57    N     0.32759   0.24172   0.12596   0.00000  Uiso   1.00
N58    N     0.00422   0.18289   0.38164   0.00000  Uiso   1.00
O59    O     0.12815   0.23809   0.24686   0.00000  Uiso   1.00
O60    O     0.20518   0.09524   0.25314   0.00000  Uiso   1.00
O61    O     0.22829   0.24753   0.25502   0.00000  Uiso   1.00
O62    O     0.10504   0.08580   0.24497   0.00000  Uiso   1.00
O63    O     0.08851   0.15930   0.30854   0.00000  Uiso   1.00
O64    O     0.24482   0.17403   0.19145   0.00000  Uiso   1.00
O65    O     0.18866   0.16874   0.31671   0.00000  Uiso   1.00
O66    O     0.14468   0.16460   0.18329   0.00000  Uiso   1.00
C67    C     0.51493   0.26665   0.25151   0.00000  Uiso   1.00
C68    C     0.53833   0.17129   0.16694   0.00000  Uiso   1.00
C69    C     0.43703   0.15753   0.38187   0.00000  Uiso   1.00
C70    C     0.56062   0.18001   0.11935   0.00000  Uiso   1.00
C71    C     0.35109   0.14878   0.44731   0.00000  Uiso   1.00
C72    C     0.62641   0.23471   0.05885   0.00000  Uiso   1.00
C73    C     0.37520   0.16241   0.40309   0.00000  Uiso   1.00
C74    C     0.61533   0.21875   0.10181   0.00000  Uiso   1.00
C75    C     0.47535   0.14816   0.40854   0.00000  Uiso   1.00
C76    C     0.51984   0.15582   0.09220   0.00000  Uiso   1.00
C77    C     0.45653   0.15556   0.45403   0.00000  Uiso   1.00
C78    C     0.48494   0.06667   0.24873   0.00000  Uiso   1.00
C79    C     0.52695   0.17765   0.05088   0.00000  Uiso   1.00
C80    C     0.39228   0.14682   0.47354   0.00000  Uiso   1.00
C81    C     0.58311   0.21493   0.03351   0.00000  Uiso   1.00
C82    C     0.49963   0.17350   0.48030   0.00000  Uiso   1.00
C83    C     0.48082   0.16395   0.02569   0.00000  Uiso   1.00
C84    C     0.47755   0.10188   0.10450   0.00000  Uiso   1.00
C85    C     0.52734   0.11952   0.39093   0.00000  Uiso   1.00
C86    C     0.65528   0.29286   0.14560   0.00000  Uiso   1.00
C87    C     0.35744   0.23908   0.37364   0.00000  Uiso   1.00
C88    C     0.41576   0.14726   0.04462   0.00000  Uiso   1.00
C89    C     0.55692   0.20847   0.46332   0.00000  Uiso   1.00
C90    C     0.37182   0.14057   0.01888   0.00000  Uiso   1.00
C91    C     0.59629   0.23149   0.49042   0.00000  Uiso   1.00
C92    C     0.52321   0.32273   0.25224   0.00000  Uiso   1.00
C93    C     0.47654   0.01058   0.24819   0.00000  Uiso   1.00
C94    C     0.46142   0.16205   0.33337   0.00000  Uiso   1.00
Cu95   Cu    0.44071   0.16108   0.24516   0.00000  Uiso   1.00
Cu96   Cu    0.55929   0.17225   0.25483   0.00000  Uiso   1.00
H97    H     0.65549   0.13192   0.03450   0.00000  Uiso   1.00
H98    H     0.66512   0.12747   0.21591   0.00000  Uiso   1.00
H99    H     0.43266   0.10554   0.12747   0.00000  Uiso   1.00
H100   H     0.46761   0.07847   0.07518   0.00000  Uiso   1.00
H101   H     0.50131   0.07854   0.12044   0.00000  Uiso   1.00
H102   H     0.56523   0.14534   0.36871   0.00000  Uiso   1.00
H103   H     0.54621   0.10752   0.41716   0.00000  Uiso   1.00
H104   H     0.50980   0.08320   0.37285   0.00000  Uiso   1.00
H105   H     0.33873   0.21672   0.14513   0.00000  Uiso   1.00
H106   H     0.36057   0.30816   0.16245   0.00000  Uiso   1.00
H107   H     0.60964   0.28964   0.16984   0.00000  Uiso   1.00
H108   H     0.63874   0.26035   0.47713   0.00000  Uiso   1.00
H109   H     0.65873   0.32135   0.12005   0.00000  Uiso   1.00
H110   H     0.66199   0.16104   0.35463   0.00000  Uiso   1.00
H111   H     0.65476   0.25240   0.36132   0.00000  Uiso   1.00
H112   H     0.40271   0.24830   0.34880   0.00000  Uiso   1.00
H113   H     0.36307   0.26139   0.40427   0.00000  Uiso   1.00
H114   H     0.63490   0.14423   0.46182   0.00000  Uiso   1.00
H115   H     0.33591   0.26322   0.04529   0.00000  Uiso   1.00
H116   H     0.39786   0.14486   0.07963   0.00000  Uiso   1.00
H117   H     0.56908   0.22111   0.42977   0.00000  Uiso   1.00
H118   H     0.56815   0.01334   0.25596   0.00000  Uiso   1.00
H119   H     0.43162   0.31997   0.24443   0.00000  Uiso   1.00
H120   H     0.33507   0.20619   0.28379   0.00000  Uiso   1.00
N121   N     0.64839   0.18068   0.26212   0.00000  Uiso   1.00
N122   N     0.35161   0.15265   0.23788   0.00000  Uiso   1.00
N123   N     0.66092   0.24172   0.12596   0.00000  Uiso   1.00
N124   N     0.33756   0.18289   0.38164   0.00000  Uiso   1.00
O125   O     0.46148   0.23809   0.24686   0.00000  Uiso   1.00
O126   O     0.53852   0.09524   0.25314   0.00000  Uiso   1.00
O127   O     0.56163   0.24753   0.25502   0.00000  Uiso   1.00
O128   O     0.43837   0.08580   0.24497   0.00000  Uiso   1.00
O129   O     0.42185   0.15930   0.30854   0.00000  Uiso   1.00
O130   O     0.57815   0.17403   0.19145   0.00000  Uiso   1.00
O131   O     0.52199   0.16874   0.31671   0.00000  Uiso   1.00
O132   O     0.47801   0.16460   0.18329   0.00000  Uiso   1.00
C133   C     0.84826   0.26665   0.25151   0.00000  Uiso   1.00
C134   C     0.87167   0.17129   0.16694   0.00000  Uiso   1.00
C135   C     0.77037   0.15753   0.38187   0.00000  Uiso   1.00
C136   C     0.89395   0.18001   0.11935   0.00000  Uiso   1.00
C137   C     0.68442   0.14878   0.44731   0.00000  Uiso   1.00
C138   C     0.95975   0.23471   0.05885   0.00000  Uiso   1.00
C139   C     0.70853   0.16241   0.40309   0.00000  Uiso   1.00
C140   C     0.94867   0.21875   0.10181   0.00000  Uiso   1.00
C141   C     0.80868   0.14816   0.40854   0.00000  Uiso   1.00
C142   C     0.85317   0.15582   0.09220   0.00000  Uiso   1.00
C143   C     0.78987   0.15556   0.45403   0.00000  Uiso   1.00
C144   C     0.81828   0.06667   0.24873   0.00000  Uiso   1.00
C145   C     0.86028   0.17765   0.05088   0.00000  Uiso   1.00
C146   C     0.72561   0.14682   0.47354   0.00000  Uiso   1.00
C147   C     0.91644   0.21493   0.03351   0.00000  Uiso   1.00
C148   C     0.83296   0.17350   0.48030   0.00000  Uiso   1.00
C149   C     0.81415   0.16395   0.02569   0.00000  Uiso   1.00
C150   C     0.81089   0.10188   0.10450   0.00000  Uiso   1.00
C151   C     0.86067   0.11952   0.39093   0.00000  Uiso   1.00
C152   C     0.98862   0.29286   0.14560   0.00000  Uiso   1.00
C153   C     0.69077   0.23908   0.37364   0.00000  Uiso   1.00
C154   C     0.74909   0.14726   0.04462   0.00000  Uiso   1.00
C155   C     0.89025   0.20847   0.46332   0.00000  Uiso   1.00
C156   C     0.70515   0.14057   0.01888   0.00000  Uiso   1.00
C157   C     0.92962   0.23149   0.49042   0.00000  Uiso   1.00
C158   C     0.85655   0.32273   0.25224   0.00000  Uiso   1.00
C159   C     0.80987   0.01058   0.24819   0.00000  Uiso   1.00
C160   C     0.79476   0.16205   0.33337   0.00000  Uiso   1.00
Cu161  Cu    0.77404   0.16108   0.24516   0.00000  Uiso   1.00
Cu162  Cu    0.89263   0.17225   0.25483   0.00000  Uiso   1.00
H163   H     0.98883   0.13192   0.03450   0.00000  Uiso   1.00
H164   H     0.99845   0.12747   0.21591   0.00000  Uiso   1.00
H165   H     0.76600   0.10554   0.12747   0.00000  Uiso   1.00
H166   H     0.80094   0.07847   0.07518   0.00000  Uiso   1.00
H167   H     0.83465   0.07854   0.12044   0.00000  Uiso   1.00
H168   H     0.89856   0.14534   0.36871   0.00000  Uiso   1.00
H169   H     0.87954   0.10752   0.41716   0.00000  Uiso   1.00
H170   H     0.84313   0.08320   0.37285   0.00000  Uiso   1.00
H171   H     0.67207   0.21672   0.14513   0.00000  Uiso   1.00
H172   H     0.69391   0.30816   0.16245   0.00000  Uiso   1.00
H173   H     0.94298   0.28964   0.16984   0.00000  Uiso   1.00
H174   H     0.97207   0.26035   0.47713   0.00000  Uiso   1.00
H175   H     0.99206   0.32135   0.12005   0.00000  Uiso   1.00
H176   H     0.99533   0.16104   0.35463   0.00000  Uiso   1.00
H177   H     0.98810   0.25240   0.36132   0.00000  Uiso   1.00
H178   H     0.73604   0.24830   0.34880   0.00000  Uiso   1.00
H179   H     0.69640   0.26139   0.40427   0.00000  Uiso   1.00
H180   H     0.96823   0.14423   0.46182   0.00000  Uiso   1.00
H181   H     0.66924   0.26322   0.04529   0.00000  Uiso   1.00
H182   H     0.73119   0.14486   0.07963   0.00000  Uiso   1.00
H183   H     0.90242   0.22111   0.42977   0.00000  Uiso   1.00
H184   H     0.90148   0.01334   0.25596   0.00000  Uiso   1.00
H185   H     0.76495   0.31997   0.24443   0.00000  Uiso   1.00
H186   H     0.66840   0.20619   0.28379   0.00000  Uiso   1.00
N187   N     0.98173   0.18068   0.26212   0.00000  Uiso   1.00
N188   N     0.68494   0.15265   0.23788   0.00000  Uiso   1.00
N189   N     0.99425   0.24172   0.12596   0.00000  Uiso   1.00
N190   N     0.67089   0.18289   0.38164   0.00000  Uiso   1.00
O191   O     0.79482   0.23809   0.24686   0.00000  Uiso   1.00
O192   O     0.87185   0.09524   0.25314   0.00000  Uiso   1.00
O193   O     0.89496   0.24753   0.25502   0.00000  Uiso   1.00
O194   O     0.77171   0.08580   0.24497   0.00000  Uiso   1.00
O195   O     0.75518   0.15930   0.30854   0.00000  Uiso   1.00
O196   O     0.91149   0.17403   0.19145   0.00000  Uiso   1.00
O197   O     0.85532   0.16874   0.31671   0.00000  Uiso   1.00
O198   O     0.81134   0.16460   0.18329   0.00000  Uiso   1.00
C199   C     0.18159   0.59998   0.25151   0.00000  Uiso   1.00
C200   C     0.20500   0.50463   0.16694   0.00000  Uiso   1.00
C201   C     0.10370   0.49086   0.38187   0.00000  Uiso   1.00
C202   C     0.22729   0.51335   0.11935   0.00000  Uiso   1.00
C203   C     0.01776   0.48211   0.44731   0.00000  Uiso   1.00
C204   C     0.29308   0.56804   0.05885   0.00000  Uiso   1.00
C205   C     0.04186   0.49575   0.40309   0.00000  Uiso   1.00
C206   C     0.28200   0.55208   0.10181   0.00000  Uiso   1.00
C207   C     0.14201   0.48150   0.40854   0.00000  Uiso   1.00
C208   C     0.18651   0.48916   0.09220   0.00000  Uiso   1.00
C209   C     0.12320   0.48890   0.45403   0.00000  Uiso   1.00
C210   C     0.15161   0.40001   0.24873   0.00000  Uiso   1.00
C211   C     0.19362   0.51099   0.05088   0.00000  Uiso   1.00
C212   C     0.05895   0.48015   0.47354   0.00000  Uiso   1.00
C213   C     0.24978   0.54826   0.03351   0.00000  Uiso   1.00
C214   C     0.16630   0.50683   0.48030   0.00000  Uiso   1.00
C215   C     0.14749   0.49728   0.02569   0.00000  Uiso   1.00
C216   C     0.14422   0.43522   0.10450   0.00000  Uiso   1.00
C217   C     0.19400   0.45285   0.39093   0.00000  Uiso   1.00
C218   C     0.32195   0.62619   0.14560   0.00000  Uiso   1.00
C219   C     0.02411   0.57242   0.37364   0.00000  Uiso   1.00
C220   C     0.08243   0.48059   0.04462   0.00000  Uiso   1.00
C221   C     0.22359   0.54180   0.46332   0.00000  Uiso   1.00
C222   C     0.03848   0.47390   0.01888   0.00000  Uiso   1.00
C223   C     0.26296   0.56482   0.49042   0.00000  Uiso   1.00
C224   C     0.18988   0.65606   0.25224   0.00000  Uiso   1.00
C225   C     0.14321   0.34392   0.24819   0.00000  Uiso   1.00
C226   C     0.12809   0.49539   0.33337   0.00000  Uiso   1.00
Cu227  Cu    0.10737   0.49441   0.24516   0.00000  Uiso   1.00
Cu228  Cu    0.22596   0.50559   0.25483   0.00000  Uiso   1.00
H229   H     0.32216   0.46525   0.03450   0.00000  Uiso   1.00
H230   H     0.33179   0.46080   0.21591   0.00000  Uiso   1.00
H231   H     0.09933   0.43887   0.12747   0.00000  Uiso   1.00
H232   H     0.13428   0.41181   0.07518   0.00000  Uiso   1.00
H233   H     0.16798   0.41187   0.12044   0.00000  Uiso   1.00
H234   H     0.23189   0.47868   0.36871   0.00000  Uiso   1.00
H235   H     0.21287   0.44085   0.41716   0.00000  Uiso   1.00
H236   H     0.17646   0.41654   0.37285   0.00000  Uiso   1.00
H237   H     0.00540   0.55005   0.14513   0.00000  Uiso   1.00
H238   H     0.02724   0.64149   0.16245   0.00000  Uiso   1.00
H239   H     0.27631   0.62297   0.16984   0.00000  Uiso   1.00
H240   H     0.30541   0.59369   0.47713   0.00000  Uiso   1.00
H241   H     0.32540   0.65468   0.12005   0.00000  Uiso   1.00
H242   H     0.32866   0.49437   0.35463   0.00000  Uiso   1.00
H243   H     0.32143   0.58573   0.36132   0.00000  Uiso   1.00
H244   H     0.06938   0.58163   0.34880   0.00000  Uiso   1.00
H245   H     0.02973   0.59473   0.40427   0.00000  Uiso   1.00
H246   H     0.30156   0.47756   0.46182   0.00000  Uiso   1.00
H247   H     0.00257   0.59655   0.04529   0.00000  Uiso   1.00
H248   H     0.06452   0.47820   0.07963   0.00000  Uiso   1.00
H249   H     0.23575   0.55444   0.42977   0.00000  Uiso   1.00
H250   H     0.23482   0.34667   0.25596   0.00000  Uiso   1.00
H251   H     0.09828   0.65331   0.24443   0.00000  Uiso   1.00
H252   H     0.00174   0.53953   0.28379   0.00000  Uiso   1.00
N253   N     0.31506   0.51401   0.26212   0.00000  Uiso   1.00
N254   N     0.01827   0.48599   0.23788   0.00000  Uiso   1.00
N255   N     0.32759   0.57506   0.12596   0.00000  Uiso   1.00
N256   N     0.00422   0.51622   0.38164   0.00000  Uiso   1.00
O257   O     0.12815   0.57142   0.24686   0.00000  Uiso   1.00
O258   O     0.20518   0.42858   0.25314   0.00000  Uiso   1.00
O259   O     0.22829   0.58086   0.25502   0.00000  Uiso   1.00
O260   O     0.10504   0.41914   0.24497   0.00000  Uiso   1.00
O261   O     0.08851   0.49263   0.30854   0.00000  Uiso   1.00
O262   O     0.24482   0.50737   0.19145   0.00000  Uiso   1.00
O263   O     0.18866   0.50207   0.31671   0.00000  Uiso   1.00
O264   O     0.14468   0.49793   0.18329   0.00000  Uiso   1.00
C265   C     0.51493   0.59998   0.25151   0.00000  Uiso   1.00
C266   C     0.53833   0.50463   0.16694   0.00000  Uiso   1.00
C267   C     0.43703   0.49086   0.38187   0.00000  Uiso   1.00
C268   C     0.56062   0.51335   0.11935   0.00000  Uiso   1.00
C269   C     0.35109   0.48211   0.44731   0.00000  Uiso   1.00
C270   C     0.62641   0.56804   0.05885   0.00000  Uiso   1.00
C271   C     0.37520   0.49575   0.40309   0.00000  Uiso   1.00
C272   C     0.61533   0.55208   0.10181   0.00000  Uiso   1.00
C273   C     0.47535   0.48150   0.40854   0.00000  Uiso   1.00
C274   C     0.51984   0.48916   0.09220   0.00000  Uiso   1.00
C275   C     0.45653   0.48890   0.45403   0.00000  Uiso   1.00
C276   C     0.48494   0.40001   0.24873   0.00000  Uiso   1.00
C277   C     0.52695   0.51099   0.05088   0.00000  Uiso   1.00
C278   C     0.39228   0.48015   0.47354   0.00000  Uiso   1.00
C279   C     0.58311   0.54826   0.03351   0.00000  Uiso   1.00
C280   C     0.49963   0.50683   0.48030   0.00000  Uiso   1.00
C281   C     0.48082   0.49728   0.02569   0.00000  Uiso   1.00
C282   C     0.47755   0.43522   0.10450   0.00000  Uiso   1.00
C283   C     0.52734   0.45285   0.39093   0.00000  Uiso   1.00
C284   C     0.65528   0.62619   0.14560   0.00000  Uiso   1.00
C285   C     0.35744   0.57242   0.37364   0.00000  Uiso   1.00
C286   C     0.41576   0.48059   0.04462   0.00000  Uiso   1.00
C287   C     0.55692   0.54180   0.46332   0.00000  Uiso   1.00
C288   C     0.37182   0.47390   0.01888   0.00000  Uiso   1.00
C289   C     0.59629   0.56482   0.49042   0.00000  Uiso   1.00
C290   C     0.52321   0.65606   0.25224   0.00000  Uiso   1.00
C291   C     0.47654   0.34392   0.24819   0.00000  Uiso   1.00
C292   C     0.46142   0.49539   0.33337   0.00000  Uiso   1.00
Cu293  Cu    0.44071   0.49441   0.24516   0.00000  Uiso   1.00
Cu294  Cu    0.55929   0.50559   0.25483   0.00000  Uiso   1.00
H295   H     0.65549   0.46525   0.03450   0.00000  Uiso   1.00
H296   H     0.66512   0.46080   0.21591   0.00000  Uiso   1.00
H297   H     0.43266   0.43887   0.12747   0.00000  Uiso   1.00
H298   H     0.46761   0.41181   0.07518   0.00000  Uiso   1.00
H299   H     0.50131   0.41187   0.12044   0.00000  Uiso   1.00
H300   H     0.56523   0.47868   0.36871   0.00000  Uiso   1.00
H301   H     0.54621   0.44085   0.41716   0.00000  Uiso   1.00
H302   H     0.50980   0.41654   0.37285   0.00000  Uiso   1.00
H303   H     0.33873   0.55005   0.14513   0.00000  Uiso   1.00
H304   H     0.36057   0.64149   0.16245   0.00000  Uiso   1.00
H305   H     0.60964   0.62297   0.16984   0.00000  Uiso   1.00
H306   H     0.63874   0.59369   0.47713   0.00000  Uiso   1.00
H307   H     0.65873   0.65468   0.12005   0.00000  Uiso   1.00
H308   H     0.66199   0.49437   0.35463   0.00000  Uiso   1.00
H309   H     0.65476   0.58573   0.36132   0.00000  Uiso   1.00
H310   H     0.40271   0.58163   0.34880   0.00000  Uiso   1.00
H311   H     0.36307   0.59473   0.40427   0.00000  Uiso   1.00
H312   H     0.63490   0.47756   0.46182   0.00000  Uiso   1.00
H313   H     0.33591   0.59655   0.04529   0.00000  Uiso   1.00
H314   H     0.39786   0.47820   0.07963   0.00000  Uiso   1.00
H315   H     0.56908   0.55444   0.42977   0.00000  Uiso   1.00
H316   H     0.56815   0.34667   0.25596   0.00000  Uiso   1.00
H317   H     0.43162   0.65331   0.24443   0.00000  Uiso   1.00
H318   H     0.33507   0.53953   0.28379   0.00000  Uiso   1.00
N319   N     0.64839   0.51401   0.26212   0.00000  Uiso   1.00
N320   N     0.35161   0.48599   0.23788   0.00000  Uiso   1.00
N321   N     0.66092   0.57506   0.12596   0.00000  Uiso   1.00
N322   N     0.33756   0.51622   0.38164   0.00000  Uiso   1.00
O323   O     0.46148   0.57142   0.24686   0.00000  Uiso   1.00
O324   O     0.53852   0.42858   0.25314   0.00000  Uiso   1.00
O325   O     0.56163   0.58086   0.25502   0.00000  Uiso   1.00
O326   O     0.43837   0.41914   0.24497   0.00000  Uiso   1.00
O327   O     0.42185   0.49263   0.30854   0.00000  Uiso   1.00
O328   O     0.57815   0.50737   0.19145   0.00000  Uiso   1.00
O329   O     0.52199   0.50207   0.31671   0.00000  Uiso   1.00
O330   O     0.47801   0.49793   0.18329   0.00000  Uiso   1.00
C331   C     0.84826   0.59998   0.25151   0.00000  Uiso   1.00
C332   C     0.87167   0.50463   0.16694   0.00000  Uiso   1.00
C333   C     0.77037   0.49086   0.38187   0.00000  Uiso   1.00
C334   C     0.89395   0.51335   0.11935   0.00000  Uiso   1.00
C335   C     0.68442   0.48211   0.44731   0.00000  Uiso   1.00
C336   C     0.95975   0.56804   0.05885   0.00000  Uiso   1.00
C337   C     0.70853   0.49575   0.40309   0.00000  Uiso   1.00
C338   C     0.94867   0.55208   0.10181   0.00000  Uiso   1.00
C339   C     0.80868   0.48150   0.40854   0.00000  Uiso   1.00
C340   C     0.85317   0.48916   0.09220   0.00000  Uiso   1.00
C341   C     0.78987   0.48890   0.45403   0.00000  Uiso   1.00
C342   C     0.81828   0.40001   0.24873   0.00000  Uiso   1.00
C343   C     0.86028   0.51099   0.05088   0.00000  Uiso   1.00
C344   C     0.72561   0.48015   0.47354   0.00000  Uiso   1.00
C345   C     0.91644   0.54826   0.03351   0.00000  Uiso   1.00
C346   C     0.83296   0.50683   0.48030   0.00000  Uiso   1.00
C347   C     0.81415   0.49728   0.02569   0.00000  Uiso   1.00
C348   C     0.81089   0.43522   0.10450   0.00000  Uiso   1.00
C349   C     0.86067   0.45285   0.39093   0.00000  Uiso   1.00
C350   C     0.98862   0.62619   0.14560   0.00000  Uiso   1.00
C351   C     0.69077   0.57242   0.37364   0.00000  Uiso   1.00
C352   C     0.74909   0.48059   0.04462   0.00000  Uiso   1.00
C353   C     0.89025   0.54180   0.46332   0.00000  Uiso   1.00
C354   C     0.70515   0.47390   0.01888   0.00000  Uiso   1.00
C355   C     0.92962   0.56482   0.49042   0.00000  Uiso   1.00
C356   C     0.85655   0.65606   0.25224   0.00000  Uiso   1.00
C357   C     0.80987   0.34392   0.24819   0.00000  Uiso   1.00
C358   C     0.79476   0.49539   0.33337   0.00000  Uiso   1.00
Cu359  Cu    0.77404   0.49441   0.24516   0.00000  Uiso   1.00
Cu360  Cu    0.89263   0.50559   0.25483   0.00000  Uiso   1.00
H361   H     0.98883   0.46525   0.03450   0.00000  Uiso   1.00
H362   H     0.99845   0.46080   0.21591   0.00000  Uiso   1.00
H363   H     0.76600   0.43887   0.12747   0.00000  Uiso   1.00
H364   H     0.80094   0.41181   0.07518   0.00000  Uiso   1.00
H365   H     0.83465   0.41187   0.12044   0.00000  Uiso   1.00
H366   H     0.89856   0.47868   0.36871   0.00000  Uiso   1.00
H367   H     0.87954   0.44085   0.41716   0.00000  Uiso   1.00
H368   H     0.84313   0.41654   0.37285   0.00000  Uiso   1.00
H369   H     0.67207   0.55005   0.14513   0.00000  Uiso   1.00
H370   H     0.69391   0.64149   0.16245   0.00000  Uiso   1.00
H371   H     0.94298   0.62297   0.16984   0.00000  Uiso   1.00
H372   H     0.97207   0.59369   0.47713   0.00000  Uiso   1.00
H373   H     0.99206   0.65468   0.12005   0.00000  Uiso   1.00
H374   H     0.99533   0.49437   0.35463   0.00000  Uiso   1.00
H375   H     0.98810   0.58573   0.36132   0.00000  Uiso   1.00
H376   H     0.73604   0.58163   0.34880   0.00000  Uiso   1.00
H377   H     0.69640   0.59473   0.40427   0.00000  Uiso   1.00
H378   H     0.96823   0.47756   0.46182   0.00000  Uiso   1.00
H379   H     0.66924   0.59655   0.04529   0.00000  Uiso   1.00
H380   H     0.73119   0.47820   0.07963   0.00000  Uiso   1.00
H381   H     0.90242   0.55444   0.42977   0.00000  Uiso   1.00
H382   H     0.90148   0.34667   0.25596   0.00000  Uiso   1.00
H383   H     0.76495   0.65331   0.24443   0.00000  Uiso   1.00
H384   H     0.66840   0.53953   0.28379   0.00000  Uiso   1.00
N385   N     0.98173   0.51401   0.26212   0.00000  Uiso   1.00
N386   N     0.68494   0.48599   0.23788   0.00000  Uiso   1.00
N387   N     0.99425   0.57506   0.12596   0.00000  Uiso   1.00
N388   N     0.67089   0.51622   0.38164   0.00000  Uiso   1.00
O389   O     0.79482   0.57142   0.24686   0.00000  Uiso   1.00
O390   O     0.87185   0.42858   0.25314   0.00000  Uiso   1.00
O391   O     0.89496   0.58086   0.25502   0.00000  Uiso   1.00
O392   O     0.77171   0.41914   0.24497   0.00000  Uiso   1.00
O393   O     0.75518   0.49263   0.30854   0.00000  Uiso   1.00
O394   O     0.91149   0.50737   0.19145   0.00000  Uiso   1.00
O395   O     0.85532   0.50207   0.31671   0.00000  Uiso   1.00
O396   O     0.81134   0.49793   0.18329   0.00000  Uiso   1.00
C397   C     0.18159   0.93332   0.25151   0.00000  Uiso   1.00
C398   C     0.20500   0.83796   0.16694   0.00000  Uiso   1.00
C399   C     0.10370   0.82419   0.38187   0.00000  Uiso   1.00
C400   C     0.22729   0.84668   0.11935   0.00000  Uiso   1.00
C401   C     0.01776   0.81545   0.44731   0.00000  Uiso   1.00
C402   C     0.29308   0.90137   0.05885   0.00000  Uiso   1.00
C403   C     0.04186   0.82908   0.40309   0.00000  Uiso   1.00
C404   C     0.28200   0.88541   0.10181   0.00000  Uiso   1.00
C405   C     0.14201   0.81483   0.40854   0.00000  Uiso   1.00
C406   C     0.18651   0.82249   0.09220   0.00000  Uiso   1.00
C407   C     0.12320   0.82223   0.45403   0.00000  Uiso   1.00
C408   C     0.15161   0.73334   0.24873   0.00000  Uiso   1.00
C409   C     0.19362   0.84432   0.05088   0.00000  Uiso   1.00
C410   C     0.05895   0.81349   0.47354   0.00000  Uiso   1.00
C411   C     0.24978   0.88159   0.03351   0.00000  Uiso   1.00
C412   C     0.16630   0.84017   0.48030   0.00000  Uiso   1.00
C413   C     0.14749   0.83062   0.02569   0.00000  Uiso   1.00
C414   C     0.14422   0.76855   0.10450   0.00000  Uiso   1.00
C415   C     0.19400   0.78618   0.39093   0.00000  Uiso   1.00
C416   C     0.32195   0.95953   0.14560   0.00000  Uiso   1.00
C417   C     0.02411   0.90575   0.37364   0.00000  Uiso   1.00
C418   C     0.08243   0.81392   0.04462   0.00000  Uiso   1.00
C419   C     0.22359   0.87514   0.46332   0.00000  Uiso   1.00
C420   C     0.03848   0.80724   0.01888   0.00000  Uiso   1.00
C421   C     0.26296   0.89815   0.49042   0.00000  Uiso   1.00
C422   C     0.18988   0.98940   0.25224   0.00000  Uiso   1.00
C423   C     0.14321   0.67725   0.24819   0.00000  Uiso   1.00
C424   C     0.12809   0.82872   0.33337   0.00000  Uiso   1.00
Cu425  Cu    0.10737   0.82775   0.24516   0.00000  Uiso   1.00
Cu426  Cu    0.22596   0.83892   0.25483   0.00000  Uiso   1.00
H427   H     0.32216   0.79858   0.03450   0.00000  Uiso   1.00
H428   H     0.33179   0.79413   0.21591   0.00000  Uiso   1.00
H429   H     0.09933   0.77221   0.12747   0.00000  Uiso   1.00
H430   H     0.13428   0.74514   0.07518   0.00000  Uiso   1.00
H431   H     0.16798   0.74521   0.12044   0.00000  Uiso   1.00
H432   H     0.23189   0.81201   0.36871   0.00000  Uiso   1.00
H433   H     0.21287   0.77419   0.41716   0.00000  Uiso   1.00
H434   H     0.17646   0.74987   0.37285   0.00000  Uiso   1.00
H435   H     0.00540   0.88338   0.14513   0.00000  Uiso   1.00
H436   H     0.02724   0.97482   0.16245   0.00000  Uiso   1.00
H437   H     0.27631   0.95630   0.16984   0.00000  Uiso   1.00
H438   H     0.30541   0.92702   0.47713   0.00000  Uiso   1.00
H439   H     0.32540   0.98802   0.12005   0.00000  Uiso   1.00
H440   H     0.32866   0.82771   0.35463   0.00000  Uiso   1.00
H441   H     0.32143   0.91906   0.36132   0.00000  Uiso   1.00
H442   H     0.06938   0.91496   0.34880   0.00000  Uiso   1.00
H443   H     0.02973   0.92806   0.40427   0.00000  Uiso   1.00
H444   H     0.30156   0.81089   0.46182   0.00000  Uiso   1.00
H445   H     0.00257   0.92988   0.04529   0.00000  Uiso   1.00
H446   H     0.06452   0.81153   0.07963   0.00000  Uiso   1.00
H447   H     0.23575   0.88777   0.42977   0.00000  Uiso   1.00
H448   H     0.23482   0.68000   0.25596   0.00000  Uiso   1.00
H449   H     0.09828   0.98664   0.24443   0.00000  Uiso   1.00
H450   H     0.00174   0.87286   0.28379   0.00000  Uiso   1.00
N451   N     0.31506   0.84735   0.26212   0.00000  Uiso   1.00
N452   N     0.01827   0.81932   0.23788   0.00000  Uiso   1.00
N453   N     0.32759   0.90839   0.12596   0.00000  Uiso   1.00
N454   N     0.00422   0.84956   0.38164   0.00000  Uiso   1.00
O455   O     0.12815   0.90476   0.24686   0.00000  Uiso   1.00
O456   O     0.20518   0.76191   0.25314   0.00000  Uiso   1.00
O457   O     0.22829   0.91420   0.25502   0.00000  Uiso   1.00
O458   O     0.10504   0.75247   0.24497   0.00000  Uiso   1.00
O459   O     0.08851   0.82597   0.30854   0.00000  Uiso   1.00
O460   O     0.24482   0.84070   0.19145   0.00000  Uiso   1.00
O461   O     0.18866   0.83540   0.31671   0.00000  Uiso   1.00
O462   O     0.14468   0.83126   0.18329   0.00000  Uiso   1.00
C463   C     0.51493   0.93332   0.25151   0.00000  Uiso   1.00
C464   C     0.53833   0.83796   0.16694   0.00000  Uiso   1.00
C465   C     0.43703   0.82419   0.38187   0.00000  Uiso   1.00
C466   C     0.56062   0.84668   0.11935   0.00000  Uiso   1.00
C467   C     0.35109   0.81545   0.44731   0.00000  Uiso   1.00
C468   C     0.62641   0.90137   0.05885   0.00000  Uiso   1.00
C469   C     0.37520   0.82908   0.40309   0.00000  Uiso   1.00
C470   C     0.61533   0.88541   0.10181   0.00000  Uiso   1.00
C471   C     0.47535   0.81483   0.40854   0.00000  Uiso   1.00
C472   C     0.51984   0.82249   0.09220   0.00000  Uiso   1.00
C473   C     0.45653   0.82223   0.45403   0.00000  Uiso   1.00
C474   C     0.48494   0.73334   0.24873   0.00000  Uiso   1.00
C475   C     0.52695   0.84432   0.05088   0.00000  Uiso   1.00
C476   C     0.39228   0.81349   0.47354   0.00000  Uiso   1.00
C477   C     0.58311   0.88159   0.03351   0.00000  Uiso   1.00
C478   C     0.49963   0.84017   0.48030   0.00000  Uiso   1.00
C479   C     0.48082   0.83062   0.02569   0.00000  Uiso   1.00
C480   C     0.47755   0.76855   0.10450   0.00000  Uiso   1.00
C481   C     0.52734   0.78618   0.39093   0.00000  Uiso   1.00
C482   C     0.65528   0.95953   0.14560   0.00000  Uiso   1.00
C483   C     0.35744   0.90575   0.37364   0.00000  Uiso   1.00
C484   C     0.41576   0.81392   0.04462   0.00000  Uiso   1.00
C485   C     0.55692   0.87514   0.46332   0.00000  Uiso   1.00
C486   C     0.37182   0.80724   0.01888   0.00000  Uiso   1.00
C487   C     0.59629   0.89815   0.49042   0.00000  Uiso   1.00
C488   C     0.52321   0.98940   0.25224   0.00000  Uiso   1.00
C489   C     0.47654   0.67725   0.24819   0.00000  Uiso   1.00
C490   C     0.46142   0.82872   0.33337   0.00000  Uiso   1.00
Cu491  Cu    0.44071   0.82775   0.24516   0.00000  Uiso   1.00
Cu492  Cu    0.55929   0.83892   0.25483   0.00000  Uiso   1.00
H493   H     0.65549   0.79858   0.03450   0.00000  Uiso   1.00
H494   H     0.66512   0.79413   0.21591   0.00000  Uiso   1.00
H495   H     0.43266   0.77221   0.12747   0.00000  Uiso   1.00
H496   H     0.46761   0.74514   0.07518   0.00000  Uiso   1.00
H497   H     0.50131   0.74521   0.12044   0.00000  Uiso   1.00
H498   H     0.56523   0.81201   0.36871   0.00000  Uiso   1.00
H499   H     0.54621   0.77419   0.41716   0.00000  Uiso   1.00
H500   H     0.50980   0.74987   0.37285   0.00000  Uiso   1.00
H501   H     0.33873   0.88338   0.14513   0.00000  Uiso   1.00
H502   H     0.36057   0.97482   0.16245   0.00000  Uiso   1.00
H503   H     0.60964   0.95630   0.16984   0.00000  Uiso   1.00
H504   H     0.63874   0.92702   0.47713   0.00000  Uiso   1.00
H505   H     0.65873   0.98802   0.12005   0.00000  Uiso   1.00
H506   H     0.66199   0.82771   0.35463   0.00000  Uiso   1.00
H507   H     0.65476   0.91906   0.36132   0.00000  Uiso   1.00
H508   H     0.40271   0.91496   0.34880   0.00000  Uiso   1.00
H509   H     0.36307   0.92806   0.40427   0.00000  Uiso   1.00
H510   H     0.63490   0.81089   0.46182   0.00000  Uiso   1.00
H511   H     0.33591   0.92988   0.04529   0.00000  Uiso   1.00
H512   H     0.39786   0.81153   0.07963   0.00000  Uiso   1.00
H513   H     0.56908   0.88777   0.42977   0.00000  Uiso   1.00
H514   H     0.56815   0.68000   0.25596   0.00000  Uiso   1.00
H515   H     0.43162   0.98664   0.24443   0.00000  Uiso   1.00
H516   H     0.33507   0.87286   0.28379   0.00000  Uiso   1.00
N517   N     0.64839   0.84735   0.26212   0.00000  Uiso   1.00
N518   N     0.35161   0.81932   0.23788   0.00000  Uiso   1.00
N519   N     0.66092   0.90839   0.12596   0.00000  Uiso   1.00
N520   N     0.33756   0.84956   0.38164   0.00000  Uiso   1.00
O521   O     0.46148   0.90476   0.24686   0.00000  Uiso   1.00
O522   O     0.53852   0.76191   0.25314   0.00000  Uiso   1.00
O523   O     0.56163   0.91420   0.25502   0.00000  Uiso   1.00
O524   O     0.43837   0.75247   0.24497   0.00000  Uiso   1.00
O525   O     0.42185   0.82597   0.30854   0.00000  Uiso   1.00
O526   O     0.57815   0.84070   0.19145   0.00000  Uiso   1.00
O527   O     0.52199   0.83540   0.31671   0.00000  Uiso   1.00
O528   O     0.47801   0.83126   0.18329   0.00000  Uiso   1.00
C529   C     0.84826   0.93332   0.25151   0.00000  Uiso   1.00
C530   C     0.87167   0.83796   0.16694   0.00000  Uiso   1.00
C531   C     0.77037   0.82419   0.38187   0.00000  Uiso   1.00
C532   C     0.89395   0.84668   0.11935   0.00000  Uiso   1.00
C533   C     0.68442   0.81545   0.44731   0.00000  Uiso   1.00
C534   C     0.95975   0.90137   0.05885   0.00000  Uiso   1.00
C535   C     0.70853   0.82908   0.40309   0.00000  Uiso   1.00
C536   C     0.94867   0.88541   0.10181   0.00000  Uiso   1.00
C537   C     0.80868   0.81483   0.40854   0.00000  Uiso   1.00
C538   C     0.85317   0.82249   0.09220   0.00000  Uiso   1.00
C539   C     0.78987   0.82223   0.45403   0.00000  Uiso   1.00
C540   C     0.81828   0.73334   0.24873   0.00000  Uiso   1.00
C541   C     0.86028   0.84432   0.05088   0.00000  Uiso   1.00
C542   C     0.72561   0.81349   0.47354   0.00000  Uiso   1.00
C543   C     0.91644   0.88159   0.03351   0.00000  Uiso   1.00
C544   C     0.83296   0.84017   0.48030   0.00000  Uiso   1.00
C545   C     0.81415   0.83062   0.02569   0.00000  Uiso   1.00
C546   C     0.81089   0.76855   0.10450   0.00000  Uiso   1.00
C547   C     0.86067   0.78618   0.39093   0.00000  Uiso   1.00
C548   C     0.98862   0.95953   0.14560   0.00000  Uiso   1.00
C549   C     0.69077   0.90575   0.37364   0.00000  Uiso   1.00
C550   C     0.74909   0.81392   0.04462   0.00000  Uiso   1.00
C551   C     0.89025   0.87514   0.46332   0.00000  Uiso   1.00
C552   C     0.70515   0.80724   0.01888   0.00000  Uiso   1.00
C553   C     0.92962   0.89815   0.49042   0.00000  Uiso   1.00
C554   C     0.85655   0.98940   0.25224   0.00000  Uiso   1.00
C555   C     0.80987   0.67725   0.24819   0.00000  Uiso   1.00
C556   C     0.79476   0.82872   0.33337   0.00000  Uiso   1.00
Cu557  Cu    0.77404   0.82775   0.24516   0.00000  Uiso   1.00
Cu558  Cu    0.89263   0.83892   0.25483   0.00000  Uiso   1.00
H559   H     0.98883   0.79858   0.03450   0.00000  Uiso   1.00
H560   H     0.99845   0.79413   0.21591   0.00000  Uiso   1.00
H561   H     0.76600   0.77221   0.12747   0.00000  Uiso   1.00
H562   H     0.80094   0.74514   0.07518   0.00000  Uiso   1.00
H563   H     0.83465   0.74521   0.12044   0.00000  Uiso   1.00
H564   H     0.89856   0.81201   0.36871   0.00000  Uiso   1.00
H565   H     0.87954   0.77419   0.41716   0.00000  Uiso   1.00
H566   H     0.84313   0.74987   0.37285   0.00000  Uiso   1.00
H567   H     0.67207   0.88338   0.14513   0.00000  Uiso   1.00
H568   H     0.69391   0.97482   0.16245   0.00000  Uiso   1.00
H569   H     0.94298   0.95630   0.16984   0.00000  Uiso   1.00
H570   H     0.97207   0.92702   0.47713   0.00000  Uiso   1.00
H571   H     0.99206   0.98802   0.12005   0.00000  Uiso   1.00
H572   H     0.99533   0.82771   0.35463   0.00000  Uiso   1.00
H573   H     0.98810   0.91906   0.36132   0.00000  Uiso   1.00
H574   H     0.73604   0.91496   0.34880   0.00000  Uiso   1.00
H575   H     0.69640   0.92806   0.40427   0.00000  Uiso   1.00
H576   H     0.96823   0.81089   0.46182   0.00000  Uiso   1.00
H577   H     0.66924   0.92988   0.04529   0.00000  Uiso   1.00
H578   H     0.73119   0.81153   0.07963   0.00000  Uiso   1.00
H579   H     0.90242   0.88777   0.42977   0.00000  Uiso   1.00
H580   H     0.90148   0.68000   0.25596   0.00000  Uiso   1.00
H581   H     0.76495   0.98664   0.24443   0.00000  Uiso   1.00
H582   H     0.66840   0.87286   0.28379   0.00000  Uiso   1.00
N583   N     0.98173   0.84735   0.26212   0.00000  Uiso   1.00
N584   N     0.68494   0.81932   0.23788   0.00000  Uiso   1.00
N585   N     0.99425   0.90839   0.12596   0.00000  Uiso   1.00
N586   N     0.67089   0.84956   0.38164   0.00000  Uiso   1.00
O587   O     0.79482   0.90476   0.24686   0.00000  Uiso   1.00
O588   O     0.87185   0.76191   0.25314   0.00000  Uiso   1.00
O589   O     0.89496   0.91420   0.25502   0.00000  Uiso   1.00
O590   O     0.77171   0.75247   0.24497   0.00000  Uiso   1.00
O591   O     0.75518   0.82597   0.30854   0.00000  Uiso   1.00
O592   O     0.91149   0.84070   0.19145   0.00000  Uiso   1.00
O593   O     0.85532   0.83540   0.31671   0.00000  Uiso   1.00
O594   O     0.81134   0.83126   0.18329   0.00000  Uiso   1.00
C595   C     0.18159   0.26665   0.75151   0.00000  Uiso   1.00
C596   C     0.20500   0.17129   0.66694   0.00000  Uiso   1.00
C597   C     0.10370   0.15753   0.88187   0.00000  Uiso   1.00
C598   C     0.22729   0.18001   0.61935   0.00000  Uiso   1.00
C599   C     0.01776   0.14878   0.94731   0.00000  Uiso   1.00
C600   C     0.29308   0.23471   0.55885   0.00000  Uiso   1.00
C601   C     0.04186   0.16241   0.90309   0.00000  Uiso   1.00
C602   C     0.28200   0.21875   0.60181   0.00000  Uiso   1.00
C603   C     0.14201   0.14816   0.90854   0.00000  Uiso   1.00
C604   C     0.18651   0.15582   0.59220   0.00000  Uiso   1.00
C605   C     0.12320   0.15556   0.95403   0.00000  Uiso   1.00
C606   C     0.15161   0.06667   0.74873   0.00000  Uiso   1.00
C607   C     0.19362   0.17765   0.55088   0.00000  Uiso   1.00
C608   C     0.05895   0.14682   0.97354   0.00000  Uiso   1.00
C609   C     0.24978   0.21493   0.53351   0.00000  Uiso   1.00
C610   C     0.16630   0.17350   0.98030   0.00000  Uiso   1.00
C611   C     0.14749   0.16395   0.52569   0.00000  Uiso   1.00
C612   C     0.14422   0.10188   0.60450   0.00000  Uiso   1.00
C613   C     0.19400   0.11952   0.89093   0.00000  Uiso   1.00
C614   C     0.32195   0.29286   0.64560   0.00000  Uiso   1.00
C615   C     0.02411   0.23908   0.87364   0.00000  Uiso   1.00
C616   C     0.08243   0.14726   0.54462   0.00000  Uiso   1.00
C617   C     0.22359   0.20847   0.96332   0.00000  Uiso   1.00
C618   C     0.03848   0.14057   0.51888   0.00000  Uiso   1.00
C619   C     0.26296   0.23149   0.99042   0.00000  Uiso   1.00
C620   C     0.18988   0.32273   0.75224   0.00000  Uiso   1.00
C621   C     0.14321   0.01058   0.74819   0.00000  Uiso   1.00
C622   C     0.12809   0.16205   0.83337   0.00000  Uiso   1.00
Cu623  Cu    0.10737   0.16108   0.74516   0.00000  Uiso   1.00
Cu624  Cu    0.22596   0.17225   0.75483   0.00000  Uiso   1.00
H625   H     0.32216   0.13192   0.53450   0.00000  Uiso   1.00
H626   H     0.33179   0.12747   0.71591   0.00000  Uiso   1.00
H627   H     0.09933   0.10554   0.62747   0.00000  Uiso   1.00
H628   H     0.13428   0.07847   0.57518   0.00000  Uiso   1.00
H629   H     0.16798   0.07854   0.62044   0.00000  Uiso   1.00
H630   H     0.23189   0.14534   0.86871   0.00000  Uiso   1.00
H631   H     0.21287   0.10752   0.91716   0.00000  Uiso   1.00
H632   H     0.17646   0.08320   0.87285   0.00000  Uiso   1.00
H633   H     0.00540   0.21672   0.64513   0.00000  Uiso   1.00
H634   H     0.02724   0.30816   0.66245   0.00000  Uiso   1.00
H635   H     0.27631   0.28964   0.66984   0.00000  Uiso   1.00
H636   H     0.30541   0.26035   0.97713   0.00000  Uiso   1.00
H637   H     0.32540   0.32135   0.62005   0.00000  Uiso   1.00
H638   H     0.32866   0.16104   0.85463   0.00000  Uiso   1.00
H639   H     0.32143   0.25240   0.86132   0.00000  Uiso   1.00
H640   H     0.06938   0.24830   0.84880   0.00000  Uiso   1.00
H641   H     0.02973   0.26139   0.90427   0.00000  Uiso   1.00
H642   H     0.30156   0.14423   0.96182   0.00000  Uiso   1.00
H643   H     0.00257   0.26322   0.54529   0.00000  Uiso   1.00
H644   H     0.06452   0.14486   0.57963   0.00000  Uiso   1.00
H645   H     0.23575   0.22111   0.92977   0.00000  Uiso   1.00
H646   H     0.23482   0.01334   0.75596   0.00000  Uiso   1.00
H647   H     0.09828   0.31997   0.74443   0.00000  Uiso   1.00
H648   H     0.00174   0.20619   0.78379   0.00000  Uiso   1.00
N649   N     0.31506   0.18068   0.76212   0.00000  Uiso   1.00
N650   N     0.01827   0.15265   0.73788   0.00000  Uiso   1.00
N651   N     0.32759   0.24172   0.62596   0.00000  Uiso   1.00
N652   N     0.00422   0.18289   0.88164   0.00000  Uiso   1.00
O653   O     0.12815   0.23809   0.74686   0.00000  Uiso   1.00
O654   O     0.20518   0.09524   0.75314   0.00000  Uiso   1.00
O655   O     0.22829   0.24753   0.75502   0.00000  Uiso   1.00
O656   O     0.10504   0.08580   0.74497   0.00000  Uiso   1.00
O657   O     0.08851   0.15930   0.80854   0.00000  Uiso   1.00
O658   O     0.24482   0.17403   0.69145   0.00000  Uiso   1.00
O659   O     0.18866   0.16874   0.81671   0.00000  Uiso   1.00
O660   O     0.14468   0.16460   0.68329   0.00000  Uiso   1.00
C661   C     0.51493   0.26665   0.75151   0.00000  Uiso   1.00
C662   C     0.53833   0.17129   0.66694   0.00000  Uiso   1.00
C663   C     0.43703   0.15753   0.88187   0.00000  Uiso   1.00
C664   C     0.56062   0.18001   0.61935   0.00000  Uiso   1.00
C665   C     0.35109   0.14878   0.94731   0.00000  Uiso   1.00
C666   C     0.62641   0.23471   0.55885   0.00000  Uiso   1.00
C667   C     0.37520   0.16241   0.90309   0.00000  Uiso   1.00
C668   C     0.61533   0.21875   0.60181   0.00000  Uiso   1.00
C669   C     0.47535   0.14816   0.90854   0.00000  Uiso   1.00
C670   C     0.51984   0.15582   0.59220   0.00000  Uiso   1.00
C671   C     0.45653   0.15556   0.95403   0.00000  Uiso   1.00
C672   C     0.48494   0.06667   0.74873   0.00000  Uiso   1.00
C673   C     0.52695   0.17765   0.55088   0.00000  Uiso   1.00
C674   C     0.39228   0.14682   0.97354   0.00000  Uiso   1.00
C675   C     0.58311   0.21493   0.53351   0.00000  Uiso   1.00
C676   C     0.49963   0.17350   0.98030   0.00000  Uiso   1.00
C677   C     0.48082   0.16395   0.52569   0.00000  Uiso   1.00
C678   C     0.47755   0.10188   0.60450   0.00000  Uiso   1.00
C679   C     0.52734   0.11952   0.89093   0.00000  Uiso   1.00
C680   C     0.65528   0.29286   0.64560   0.00000  Uiso   1.00
C681   C     0.35744   0.23908   0.87364   0.00000  Uiso   1.00
C682   C     0.41576   0.14726   0.54462   0.00000  Uiso   1.00
C683   C     0.55692   0.20847   0.96332   0.00000  Uiso   1.00
C684   C     0.37182   0.14057   0.51888   0.00000  Uiso   1.00
C685   C     0.59629   0.23149   0.99042   0.00000  Uiso   1.00
C686   C     0.52321   0.32273   0.75224   0.00000  Uiso   1.00
C687   C     0.47654   0.01058   0.74819   0.00000  Uiso   1.00
C688   C     0.46142   0.16205   0.83337   0.00000  Uiso   1.00
Cu689  Cu    0.44071   0.16108   0.74516   0.00000  Uiso   1.00
Cu690  Cu    0.55929   0.17225   0.75483   0.00000  Uiso   1.00
H691   H     0.65549   0.13192   0.53450   0.00000  Uiso   1.00
H692   H     0.66512   0.12747   0.71591   0.00000  Uiso   1.00
H693   H     0.43266   0.10554   0.62747   0.00000  Uiso   1.00
H694   H     0.46761   0.07847   0.57518   0.00000  Uiso   1.00
H695   H     0.50131   0.07854   0.62044   0.00000  Uiso   1.00
H696   H     0.56523   0.14534   0.86871   0.00000  Uiso   1.00
H697   H     0.54621   0.10752   0.91716   0.00000  Uiso   1.00
H698   H     0.50980   0.08320   0.87285   0.00000  Uiso   1.00
H699   H     0.33873   0.21672   0.64513   0.00000  Uiso   1.00
H700   H     0.36057   0.30816   0.66245   0.00000  Uiso   1.00
H701   H     0.60964   0.28964   0.66984   0.00000  Uiso   1.00
H702   H     0.63874   0.26035   0.97713   0.00000  Uiso   1.00
H703   H     0.65873   0.32135   0.62005   0.00000  Uiso   1.00
H704   H     0.66199   0.16104   0.85463   0.00000  Uiso   1.00
H705   H     0.65476   0.25240   0.86132   0.00000  Uiso   1.00
H706   H     0.40271   0.24830   0.84880   0.00000  Uiso   1.00
H707   H     0.36307   0.26139   0.90427   0.00000  Uiso   1.00
H708   H     0.63490   0.14423   0.96182   0.00000  Uiso   1.00
H709   H     0.33591   0.26322   0.54529   0.00000  Uiso   1.00
H710   H     0.39786   0.14486   0.57963   0.00000  Uiso   1.00
H711   H     0.56908   0.22111   0.92977   0.00000  Uiso   1.00
H712   H     0.56815   0.01334   0.75596   0.00000  Uiso   1.00
H713   H     0.43162   0.31997   0.74443   0.00000  Uiso   1.00
H714   H     0.33507   0.20619   0.78379   0.00000  Uiso   1.00
N715   N     0.64839   0.18068   0.76212   0.00000  Uiso   1.00
N716   N     0.35161   0.15265   0.73788   0.00000  Uiso   1.00
N717   N     0.66092   0.24172   0.62596   0.00000  Uiso   1.00
N718   N     0.33756   0.18289   0.88164   0.00000  Uiso   1.00
O719   O     0.46148   0.23809   0.74686   0.00000  Uiso   1.00
O720   O     0.53852   0.09524   0.75314   0.00000  Uiso   1.00
O721   O     0.56163   0.24753   0.75502   0.00000  Uiso   1.00
O722   O     0.43837   0.08580   0.74497   0.00000  Uiso   1.00
O723   O     0.42185   0.15930   0.80854   0.00000  Uiso   1.00
O724   O     0.57815   0.17403   0.69145   0.00000  Uiso   1.00
O725   O     0.52199   0.16874   0.81671   0.00000  Uiso   1.00
O726   O     0.47801   0.16460   0.68329   0.00000  Uiso   1.00
C727   C     0.84826   0.26665   0.75151   0.00000  Uiso   1.00
C728   C     0.87167   0.17129   0.66694   0.00000  Uiso   1.00
C729   C     0.77037   0.15753   0.88187   0.00000  Uiso   1.00
C730   C     0.89395   0.18001   0.61935   0.00000  Uiso   1.00
C731   C     0.68442   0.14878   0.94731   0.00000  Uiso   1.00
C732   C     0.95975   0.23471   0.55885   0.00000  Uiso   1.00
C733   C     0.70853   0.16241   0.90309   0.00000  Uiso   1.00
C734   C     0.94867   0.21875   0.60181   0.00000  Uiso   1.00
C735   C     0.80868   0.14816   0.90854   0.00000  Uiso   1.00
C736   C     0.85317   0.15582   0.59220   0.00000  Uiso   1.00
C737   C     0.78987   0.15556   0.95403   0.00000  Uiso   1.00
C738   C     0.81828   0.06667   0.74873   0.00000  Uiso   1.00
C739   C     0.86028   0.17765   0.55088   0.00000  Uiso   1.00
C740   C     0.72561   0.14682   0.97354   0.00000  Uiso   1.00
C741   C     0.91644   0.21493   0.53351   0.00000  Uiso   1.00
C742   C     0.83296   0.17350   0.98030   0.00000  Uiso   1.00
C743   C     0.81415   0.16395   0.52569   0.00000  Uiso   1.00
C744   C     0.81089   0.10188   0.60450   0.00000  Uiso   1.00
C745   C     0.86067   0.11952   0.89093   0.00000  Uiso   1.00
C746   C     0.98862   0.29286   0.64560   0.00000  Uiso   1.00
C747   C     0.69077   0.23908   0.87364   0.00000  Uiso   1.00
C748   C     0.74909   0.14726   0.54462   0.00000  Uiso   1.00
C749   C     0.89025   0.20847   0.96332   0.00000  Uiso   1.00
C750   C     0.70515   0.14057   0.51888   0.00000  Uiso   1.00
C751   C     0.92962   0.23149   0.99042   0.00000  Uiso   1.00
C752   C     0.85655   0.32273   0.75224   0.00000  Uiso   1.00
C753   C     0.80987   0.01058   0.74819   0.00000  Uiso   1.00
C754   C     0.79476   0.16205   0.83337   0.00000  Uiso   1.00
Cu755  Cu    0.77404   0.16108   0.74516   0.00000  Uiso   1.00
Cu756  Cu    0.89263   0.17225   0.75483   0.00000  Uiso   1.00
H757   H     0.98883   0.13192   0.53450   0.00000  Uiso   1.00
H758   H     0.99845   0.12747   0.71591   0.00000  Uiso   1.00
H759   H     0.76600   0.10554   0.62747   0.00000  Uiso   1.00
H760   H     0.80094   0.07847   0.57518   0.00000  Uiso   1.00
H761   H     0.83465   0.07854   0.62044   0.00000  Uiso   1.00
H762   H     0.89856   0.14534   0.86871   0.00000  Uiso   1.00
H763   H     0.87954   0.10752   0.91716   0.00000  Uiso   1.00
H764   H     0.84313   0.08320   0.87285   0.00000  Uiso   1.00
H765   H     0.67207   0.21672   0.64513   0.00000  Uiso   1.00
H766   H     0.69391   0.30816   0.66245   0.00000  Uiso   1.00
H767   H     0.94298   0.28964   0.66984   0.00000  Uiso   1.00
H768   H     0.97207   0.26035   0.97713   0.00000  Uiso   1.00
H769   H     0.99206   0.32135   0.62005   0.00000  Uiso   1.00
H770   H     0.99533   0.16104   0.85463   0.00000  Uiso   1.00
H771   H     0.98810   0.25240   0.86132   0.00000  Uiso   1.00
H772   H     0.73604   0.24830   0.84880   0.00000  Uiso   1.00
H773   H     0.69640   0.26139   0.90427   0.00000  Uiso   1.00
H774   H     0.96823   0.14423   0.96182   0.00000  Uiso   1.00
H775   H     0.66924   0.26322   0.54529   0.00000  Uiso   1.00
H776   H     0.73119   0.14486   0.57963   0.00000  Uiso   1.00
H777   H     0.90242   0.22111   0.92977   0.00000  Uiso   1.00
H778   H     0.90148   0.01334   0.75596   0.00000  Uiso   1.00
H779   H     0.76495   0.31997   0.74443   0.00000  Uiso   1.00
H780   H     0.66840   0.20619   0.78379   0.00000  Uiso   1.00
N781   N     0.98173   0.18068   0.76212   0.00000  Uiso   1.00
N782   N     0.68494   0.15265   0.73788   0.00000  Uiso   1.00
N783   N     0.99425   0.24172   0.62596   0.00000  Uiso   1.00
N784   N     0.67089   0.18289   0.88164   0.00000  Uiso   1.00
O785   O     0.79482   0.23809   0.74686   0.00000  Uiso   1.00
O786   O     0.87185   0.09524   0.75314   0.00000  Uiso   1.00
O787   O     0.89496   0.24753   0.75502   0.00000  Uiso   1.00
O788   O     0.77171   0.08580   0.74497   0.00000  Uiso   1.00
O789   O     0.75518   0.15930   0.80854   0.00000  Uiso   1.00
O790   O     0.91149   0.17403   0.69145   0.00000  Uiso   1.00
O791   O     0.85532   0.16874   0.81671   0.00000  Uiso   1.00
O792   O     0.81134   0.16460   0.68329   0.00000  Uiso   1.00
C793   C     0.18159   0.59998   0.75151   0.00000  Uiso   1.00
C794   C     0.20500   0.50463   0.66694   0.00000  Uiso   1.00
C795   C     0.10370   0.49086   0.88187   0.00000  Uiso   1.00
C796   C     0.22729   0.51335   0.61935   0.00000  Uiso   1.00
C797   C     0.01776   0.48211   0.94731   0.00000  Uiso   1.00
C798   C     0.29308   0.56804   0.55885   0.00000  Uiso   1.00
C799   C     0.04186   0.49575   0.90309   0.00000  Uiso   1.00
C800   C     0.28200   0.55208   0.60181   0.00000  Uiso   1.00
C801   C     0.14201   0.48150   0.90854   0.00000  Uiso   1.00
C802   C     0.18651   0.48916   0.59220   0.00000  Uiso   1.00
C803   C     0.12320   0.48890   0.95403   0.00000  Uiso   1.00
C804   C     0.15161   0.40001   0.74873   0.00000  Uiso   1.00
C805   C     0.19362   0.51099   0.55088   0.00000  Uiso   1.00
C806   C     0.05895   0.48015   0.97354   0.00000  Uiso   1.00
C807   C     0.24978   0.54826   0.53351   0.00000  Uiso   1.00
C808   C     0.16630   0.50683   0.98030   0.00000  Uiso   1.00
C809   C     0.14749   0.49728   0.52569   0.00000  Uiso   1.00
C810   C     0.14422   0.43522   0.60450   0.00000  Uiso   1.00
C811   C     0.19400   0.45285   0.89093   0.00000  Uiso   1.00
C812   C     0.32195   0.62619   0.64560   0.00000  Uiso   1.00
C813   C     0.02411   0.57242   0.87364   0.00000  Uiso   1.00
C814   C     0.08243   0.48059   0.54462   0.00000  Uiso   1.00
C815   C     0.22359   0.54180   0.96332   0.00000  Uiso   1.00
C816   C     0.03848   0.47390   0.51888   0.00000  Uiso   1.00
C817   C     0.26296   0.56482   0.99042   0.00000  Uiso   1.00
C818   C     0.18988   0.65606   0.75224   0.00000  Uiso   1.00
C819   C     0.14321   0.34392   0.74819   0.00000  Uiso   1.00
C820   C     0.12809   0.49539   0.83337   0.00000  Uiso   1.00
Cu821  Cu    0.10737   0.49441   0.74516   0.00000  Uiso   1.00
Cu822  Cu    0.22596   0.50559   0.75483   0.00000  Uiso   1.00
H823   H     0.32216   0.46525   0.53450   0.00000  Uiso   1.00
H824   H     0.33179   0.46080   0.71591   0.00000  Uiso   1.00
H825   H     0.09933   0.43887   0.62747   0.00000  Uiso   1.00
H826   H     0.13428   0.41181   0.57518   0.00000  Uiso   1.00
H827   H     0.16798   0.41187   0.62044   0.00000  Uiso   1.00
H828   H     0.23189   0.47868   0.86871   0.00000  Uiso   1.00
H829   H     0.21287   0.44085   0.91716   0.00000  Uiso   1.00
H830   H     0.17646   0.41654   0.87285   0.00000  Uiso   1.00
H831   H     0.00540   0.55005   0.64513   0.00000  Uiso   1.00
H832   H     0.02724   0.64149   0.66245   0.00000  Uiso   1.00
H833   H     0.27631   0.62297   0.66984   0.00000  Uiso   1.00
H834   H     0.30541   0.59369   0.97713   0.00000  Uiso   1.00
H835   H     0.32540   0.65468   0.62005   0.00000  Uiso   1.00
H836   H     0.32866   0.49437   0.85463   0.00000  Uiso   1.00
H837   H     0.32143   0.58573   0.86132   0.00000  Uiso   1.00
H838   H     0.06938   0.58163   0.84880   0.00000  Uiso   1.00
H839   H     0.02973   0.59473   0.90427   0.00000  Uiso   1.00
H840   H     0.30156   0.47756   0.96182   0.00000  Uiso   1.00
H841   H     0.00257   0.59655   0.54529   0.00000  Uiso   1.00
H842   H     0.06452   0.47820   0.57963   0.00000  Uiso   1.00
H843   H     0.23575   0.55444   0.92977   0.00000  Uiso   1.00
H844   H     0.23482   0.34667   0.75596   0.00000  Uiso   1.00
H845   H     0.09828   0.65331   0.74443   0.00000  Uiso   1.00
H846   H     0.00174   0.53953   0.78379   0.00000  Uiso   1.00
N847   N     0.31506   0.51401   0.76212   0.00000  Uiso   1.00
N848   N     0.01827   0.48599   0.73788   0.00000  Uiso   1.00
N849   N     0.32759   0.57506   0.62596   0.00000  Uiso   1.00
N850   N     0.00422   0.51622   0.88164   0.00000  Uiso   1.00
O851   O     0.12815   0.57142   0.74686   0.00000  Uiso   1.00
O852   O     0.20518   0.42858   0.75314   0.00000  Uiso   1.00
O853   O     0.22829   0.58086   0.75502   0.00000  Uiso   1.00
O854   O     0.10504   0.41914   0.74497   0.00000  Uiso   1.00
O855   O     0.08851   0.49263   0.80854   0.00000  Uiso   1.00
O856   O     0.24482   0.50737   0.69145   0.00000  Uiso   1.00
O857   O     0.18866   0.50207   0.81671   0.00000  Uiso   1.00
O858   O     0.14468   0.49793   0.68329   0.00000  Uiso   1.00
C859   C     0.51493   0.59998   0.75151   0.00000  Uiso   1.00
C860   C     0.53833   0.50463   0.66694   0.00000  Uiso   1.00
C861   C     0.43703   0.49086   0.88187   0.00000  Uiso   1.00
C862   C     0.56062   0.51335   0.61935   0.00000  Uiso   1.00
C863   C     0.35109   0.48211   0.94731   0.00000  Uiso   1.00
C864   C     0.62641   0.56804   0.55885   0.00000  Uiso   1.00
C865   C     0.37520   0.49575   0.90309   0.00000  Uiso   1.00
C866   C     0.61533   0.55208   0.60181   0.00000  Uiso   1.00
C867   C     0.47535   0.48150   0.90854   0.00000  Uiso   1.00
C868   C     0.51984   0.48916   0.59220   0.00000  Uiso   1.00
C869   C     0.45653   0.48890   0.95403   0.00000  Uiso   1.00
C870   C     0.48494   0.40001   0.74873   0.00000  Uiso   1.00
C871   C     0.52695   0.51099   0.55088   0.00000  Uiso   1.00
C872   C     0.39228   0.48015   0.97354   0.00000  Uiso   1.00
C873   C     0.58311   0.54826   0.53351   0.00000  Uiso   1.00
C874   C     0.49963   0.50683   0.98030   0.00000  Uiso   1.00
C875   C     0.48082   0.49728   0.52569   0.00000  Uiso   1.00
C876   C     0.47755   0.43522   0.60450   0.00000  Uiso   1.00
C877   C     0.52734   0.45285   0.89093   0.00000  Uiso   1.00
C878   C     0.65528   0.62619   0.64560   0.00000  Uiso   1.00
C879   C     0.35744   0.57242   0.87364   0.00000  Uiso   1.00
C880   C     0.41576   0.48059   0.54462   0.00000  Uiso   1.00
C881   C     0.55692   0.54180   0.96332   0.00000  Uiso   1.00
C882   C     0.37182   0.47390   0.51888   0.00000  Uiso   1.00
C883   C     0.59629   0.56482   0.99042   0.00000  Uiso   1.00
C884   C     0.52321   0.65606   0.75224   0.00000  Uiso   1.00
C885   C     0.47654   0.34392   0.74819   0.00000  Uiso   1.00
C886   C     0.46142   0.49539   0.83337   0.00000  Uiso   1.00
Cu887  Cu    0.44071   0.49441   0.74516   0.00000  Uiso   1.00
Cu888  Cu    0.55929   0.50559   0.75483   0.00000  Uiso   1.00
H889   H     0.65549   0.46525   0.53450   0.00000  Uiso   1.00
H890   H     0.66512   0.46080   0.71591   0.00000  Uiso   1.00
H891   H     0.43266   0.43887   0.62747   0.00000  Uiso   1.00
H892   H     0.46761   0.41181   0.57518   0.00000  Uiso   1.00
H893   H     0.50131   0.41187   0.62044   0.00000  Uiso   1.00
H894   H     0.56523   0.47868   0.86871   0.00000  Uiso   1.00
H895   H     0.54621   0.44085   0.91716   0.00000  Uiso   1.00
H896   H     0.50980   0.41654   0.87285   0.00000  Uiso   1.00
H897   H     0.33873   0.55005   0.64513   0.00000  Uiso   1.00
H898   H     0.36057   0.64149   0.66245   0.00000  Uiso   1.00
H899   H     0.60964   0.62297   0.66984   0.00000  Uiso   1.00
H900   H     0.63874   0.59369   0.97713   0.00000  Uiso   1.00
H901   H     0.65873   0.65468   0.62005   0.00000  Uiso   1.00
H902   H     0.66199   0.49437   0.85463   0.00000  Uiso   1.00
H903   H     0.65476   0.58573   0.86132   0.00000  Uiso   1.00
H904   H     0.40271   0.58163   0.84880   0.00000  Uiso   1.00
H905   H     0.36307   0.59473   0.90427   0.00000  Uiso   1.00
H906   H     0.63490   0.47756   0.96182   0.00000  Uiso   1.00
H907   H     0.33591   0.59655   0.54529   0.00000  Uiso   1.00
H908   H     0.39786   0.47820   0.57963   0.00000  Uiso   1.00
H909   H     0.56908   0.55444   0.92977   0.00000  Uiso   1.00
H910   H     0.56815   0.34667   0.75596   0.00000  Uiso   1.00
H911   H     0.43162   0.65331   0.74443   0.00000  Uiso   1.00
H912   H     0.33507   0.53953   0.78379   0.00000  Uiso   1.00
N913   N     0.64839   0.51401   0.76212   0.00000  Uiso   1.00
N914   N     0.35161   0.48599   0.73788   0.00000  Uiso   1.00
N915   N     0.66092   0.57506   0.62596   0.00000  Uiso   1.00
N916   N     0.33756   0.51622   0.88164   0.00000  Uiso   1.00
O917   O     0.46148   0.57142   0.74686   0.00000  Uiso   1.00
O918   O     0.53852   0.42858   0.75314   0.00000  Uiso   1.00
O919   O     0.56163   0.58086   0.75502   0.00000  Uiso   1.00
O920   O     0.43837   0.41914   0.74497   0.00000  Uiso   1.00
O921   O     0.42185   0.49263   0.80854   0.00000  Uiso   1.00
O922   O     0.57815   0.50737   0.69145   0.00000  Uiso   1.00
O923   O     0.52199   0.50207   0.81671   0.00000  Uiso   1.00
O924   O     0.47801   0.49793   0.68329   0.00000  Uiso   1.00
C925   C     0.84826   0.59998   0.75151   0.00000  Uiso   1.00
C926   C     0.87167   0.50463   0.66694   0.00000  Uiso   1.00
C927   C     0.77037   0.49086   0.88187   0.00000  Uiso   1.00
C928   C     0.89395   0.51335   0.61935   0.00000  Uiso   1.00
C929   C     0.68442   0.48211   0.94731   0.00000  Uiso   1.00
C930   C     0.95975   0.56804   0.55885   0.00000  Uiso   1.00
C931   C     0.70853   0.49575   0.90309   0.00000  Uiso   1.00
C932   C     0.94867   0.55208   0.60181   0.00000  Uiso   1.00
C933   C     0.80868   0.48150   0.90854   0.00000  Uiso   1.00
C934   C     0.85317   0.48916   0.59220   0.00000  Uiso   1.00
C935   C     0.78987   0.48890   0.95403   0.00000  Uiso   1.00
C936   C     0.81828   0.40001   0.74873   0.00000  Uiso   1.00
C937   C     0.86028   0.51099   0.55088   0.00000  Uiso   1.00
C938   C     0.72561   0.48015   0.97354   0.00000  Uiso   1.00
C939   C     0.91644   0.54826   0.53351   0.00000  Uiso   1.00
C940   C     0.83296   0.50683   0.98030   0.00000  Uiso   1.00
C941   C     0.81415   0.49728   0.52569   0.00000  Uiso   1.00
C942   C     0.81089   0.43522   0.60450   0.00000  Uiso   1.00
C943   C     0.86067   0.45285   0.89093   0.00000  Uiso   1.00
C944   C     0.98862   0.62619   0.64560   0.00000  Uiso   1.00
C945   C     0.69077   0.57242   0.87364   0.00000  Uiso   1.00
C946   C     0.74909   0.48059   0.54462   0.00000  Uiso   1.00
C947   C     0.89025   0.54180   0.96332   0.00000  Uiso   1.00
C948   C     0.70515   0.47390   0.51888   0.00000  Uiso   1.00
C949   C     0.92962   0.56482   0.99042   0.00000  Uiso   1.00
C950   C     0.85655   0.65606   0.75224   0.00000  Uiso   1.00
C951   C     0.80987   0.34392   0.74819   0.00000  Uiso   1.00
C952   C     0.79476   0.49539   0.83337   0.00000  Uiso   1.00
Cu953  Cu    0.77404   0.49441   0.74516   0.00000  Uiso   1.00
Cu954  Cu    0.89263   0.50559   0.75483   0.00000  Uiso   1.00
H955   H     0.98883   0.46525   0.53450   0.00000  Uiso   1.00
H956   H     0.99845   0.46080   0.71591   0.00000  Uiso   1.00
H957   H     0.76600   0.43887   0.62747   0.00000  Uiso   1.00
H958   H     0.80094   0.41181   0.57518   0.00000  Uiso   1.00
H959   H     0.83465   0.41187   0.62044   0.00000  Uiso   1.00
H960   H     0.89856   0.47868   0.86871   0.00000  Uiso   1.00
H961   H     0.87954   0.44085   0.91716   0.00000  Uiso   1.00
H962   H     0.84313   0.41654   0.87285   0.00000  Uiso   1.00
H963   H     0.67207   0.55005   0.64513   0.00000  Uiso   1.00
H964   H     0.69391   0.64149   0.66245   0.00000  Uiso   1.00
H965   H     0.94298   0.62297   0.66984   0.00000  Uiso   1.00
H966   H     0.97207   0.59369   0.97713   0.00000  Uiso   1.00
H967   H     0.99206   0.65468   0.62005   0.00000  Uiso   1.00
H968   H     0.99533   0.49437   0.85463   0.00000  Uiso   1.00
H969   H     0.98810   0.58573   0.86132   0.00000  Uiso   1.00
H970   H     0.73604   0.58163   0.84880   0.00000  Uiso   1.00
H971   H     0.69640   0.59473   0.90427   0.00000  Uiso   1.00
H972   H     0.96823   0.47756   0.96182   0.00000  Uiso   1.00
H973   H     0.66924   0.59655   0.54529   0.00000  Uiso   1.00
H974   H     0.73119   0.47820   0.57963   0.00000  Uiso   1.00
H975   H     0.90242   0.55444   0.92977   0.00000  Uiso   1.00
H976   H     0.90148   0.34667   0.75596   0.00000  Uiso   1.00
H977   H     0.76495   0.65331   0.74443   0.00000  Uiso   1.00
H978   H     0.66840   0.53953   0.78379   0.00000  Uiso   1.00
N979   N     0.98173   0.51401   0.76212   0.00000  Uiso   1.00
N980   N     0.68494   0.48599   0.73788   0.00000  Uiso   1.00
N981   N     0.99425   0.57506   0.62596   0.00000  Uiso   1.00
N982   N     0.67089   0.51622   0.88164   0.00000  Uiso   1.00
O983   O     0.79482   0.57142   0.74686   0.00000  Uiso   1.00
O984   O     0.87185   0.42858   0.75314   0.00000  Uiso   1.00
O985   O     0.89496   0.58086   0.75502   0.00000  Uiso   1.00
O986   O     0.77171   0.41914   0.74497   0.00000  Uiso   1.00
O987   O     0.75518   0.49263   0.80854   0.00000  Uiso   1.00
O988   O     0.91149   0.50737   0.69145   0.00000  Uiso   1.00
O989   O     0.85532   0.50207   0.81671   0.00000  Uiso   1.00
O990   O     0.81134   0.49793   0.68329   0.00000  Uiso   1.00
C991   C     0.18159   0.93332   0.75151   0.00000  Uiso   1.00
C992   C     0.20500   0.83796   0.66694   0.00000  Uiso   1.00
C993   C     0.10370   0.82419   0.88187   0.00000  Uiso   1.00
C994   C     0.22729   0.84668   0.61935   0.00000  Uiso   1.00
C995   C     0.01776   0.81545   0.94731   0.00000  Uiso   1.00
C996   C     0.29308   0.90137   0.55885   0.00000  Uiso   1.00
C997   C     0.04186   0.82908   0.90309   0.00000  Uiso   1.00
C998   C     0.28200   0.88541   0.60181   0.00000  Uiso   1.00
C999   C     0.14201   0.81483   0.90854   0.00000  Uiso   1.00
C1000  C     0.18651   0.82249   0.59220   0.00000  Uiso   1.00
C1001  C     0.12320   0.82223   0.95403   0.00000  Uiso   1.00
C1002  C     0.15161   0.73334   0.74873   0.00000  Uiso   1.00
C1003  C     0.19362   0.84432   0.55088   0.00000  Uiso   1.00
C1004  C     0.05895   0.81349   0.97354   0.00000  Uiso   1.00
C1005  C     0.24978   0.88159   0.53351   0.00000  Uiso   1.00
C1006  C     0.16630   0.84017   0.98030   0.00000  Uiso   1.00
C1007  C     0.14749   0.83062   0.52569   0.00000  Uiso   1.00
C1008  C     0.14422   0.76855   0.60450   0.00000  Uiso   1.00
C1009  C     0.19400   0.78618   0.89093   0.00000  Uiso   1.00
C1010  C     0.32195   0.95953   0.64560   0.00000  Uiso   1.00
C1011  C     0.02411   0.90575   0.87364   0.00000  Uiso   1.00
C1012  C     0.08243   0.81392   0.54462   0.00000  Uiso   1.00
C1013  C     0.22359   0.87514   0.96332   0.00000  Uiso   1.00
C1014  C     0.03848   0.80724   0.51888   0.00000  Uiso   1.00
C1015  C     0.26296   0.89815   0.99042   0.00000  Uiso   1.00
C1016  C     0.18988   0.98940   0.75224   0.00000  Uiso   1.00
C1017  C     0.14321   0.67725   0.74819   0.00000  Uiso   1.00
C1018  C     0.12809   0.82872   0.83337   0.00000  Uiso   1.00
Cu1019 Cu    0.10737   0.82775   0.74516   0.00000  Uiso   1.00
Cu1020 Cu    0.22596   0.83892   0.75483   0.00000  Uiso   1.00
H1021  H     0.32216   0.79858   0.53450   0.00000  Uiso   1.00
H1022  H     0.33179   0.79413   0.71591   0.00000  Uiso   1.00
H1023  H     0.09933   0.77221   0.62747   0.00000  Uiso   1.00
H1024  H     0.13428   0.74514   0.57518   0.00000  Uiso   1.00
H1025  H     0.16798   0.74521   0.62044   0.00000  Uiso   1.00
H1026  H     0.23189   0.81201   0.86871   0.00000  Uiso   1.00
H1027  H     0.21287   0.77419   0.91716   0.00000  Uiso   1.00
H1028  H     0.17646   0.74987   0.87285   0.00000  Uiso   1.00
H1029  H     0.00540   0.88338   0.64513   0.00000  Uiso   1.00
H1030  H     0.02724   0.97482   0.66245   0.00000  Uiso   1.00
H1031  H     0.27631   0.95630   0.66984   0.00000  Uiso   1.00
H1032  H     0.30541   0.92702   0.97713   0.00000  Uiso   1.00
H1033  H     0.32540   0.98802   0.62005   0.00000  Uiso   1.00
H1034  H     0.32866   0.82771   0.85463   0.00000  Uiso   1.00
H1035  H     0.32143   0.91906   0.86132   0.00000  Uiso   1.00
H1036  H     0.06938   0.91496   0.84880   0.00000  Uiso   1.00
H1037  H     0.02973   0.92806   0.90427   0.00000  Uiso   1.00
H1038  H     0.30156   0.81089   0.96182   0.00000  Uiso   1.00
H1039  H     0.00257   0.92988   0.54529   0.00000  Uiso   1.00
H1040  H     0.06452   0.81153   0.57963   0.00000  Uiso   1.00
H1041  H     0.23575   0.88777   0.92977   0.00000  Uiso   1.00
H1042  H     0.23482   0.68000   0.75596   0.00000  Uiso   1.00
H1043  H     0.09828   0.98664   0.74443   0.00000  Uiso   1.00
H1044  H     0.00174   0.87286   0.78379   0.00000  Uiso   1.00
N1045  N     0.31506   0.84735   0.76212   0.00000  Uiso   1.00
N1046  N     0.01827   0.81932   0.73788   0.00000  Uiso   1.00
N1047  N     0.32759   0.90839   0.62596   0.00000  Uiso   1.00
N1048  N     0.00422   0.84956   0.88164   0.00000  Uiso   1.00
O1049  O     0.12815   0.90476   0.74686   0.00000  Uiso   1.00
O1050  O     0.20518   0.76191   0.75314   0.00000  Uiso   1.00
O1051  O     0.22829   0.91420   0.75502   0.00000  Uiso   1.00
O1052  O     0.10504   0.75247   0.74497   0.00000  Uiso   1.00
O1053  O     0.08851   0.82597   0.80854   0.00000  Uiso   1.00
O1054  O     0.24482   0.84070   0.69145   0.00000  Uiso   1.00
O1055  O     0.18866   0.83540   0.81671   0.00000  Uiso   1.00
O1056  O     0.14468   0.83126   0.68329   0.00000  Uiso   1.00
C1057  C     0.51493   0.93332   0.75151   0.00000  Uiso   1.00
C1058  C     0.53833   0.83796   0.66694   0.00000  Uiso   1.00
C1059  C     0.43703   0.82419   0.88187   0.00000  Uiso   1.00
C1060  C     0.56062   0.84668   0.61935   0.00000  Uiso   1.00
C1061  C     0.35109   0.81545   0.94731   0.00000  Uiso   1.00
C1062  C     0.62641   0.90137   0.55885   0.00000  Uiso   1.00
C1063  C     0.37520   0.82908   0.90309   0.00000  Uiso   1.00
C1064  C     0.61533   0.88541   0.60181   0.00000  Uiso   1.00
C1065  C     0.47535   0.81483   0.90854   0.00000  Uiso   1.00
C1066  C     0.51984   0.82249   0.59220   0.00000  Uiso   1.00
C1067  C     0.45653   0.82223   0.95403   0.00000  Uiso   1.00
C1068  C     0.48494   0.73334   0.74873   0.00000  Uiso   1.00
C1069  C     0.52695   0.84432   0.55088   0.00000  Uiso   1.00
C1070  C     0.39228   0.81349   0.97354   0.00000  Uiso   1.00
C1071  C     0.58311   0.88159   0.53351   0.00000  Uiso   1.00
C1072  C     0.49963   0.84017   0.98030   0.00000  Uiso   1.00
C1073  C     0.48082   0.83062   0.52569   0.00000  Uiso   1.00
C1074  C     0.47755   0.76855   0.60450   0.00000  Uiso   1.00
C1075  C     0.52734   0.78618   0.89093   0.00000  Uiso   1.00
C1076  C     0.65528   0.95953   0.64560   0.00000  Uiso   1.00
C1077  C     0.35744   0.90575   0.87364   0.00000  Uiso   1.00
C1078  C     0.41576   0.81392   0.54462   0.00000  Uiso   1.00
C1079  C     0.55692   0.87514   0.96332   0.00000  Uiso   1.00
C1080  C     0.37182   0.80724   0.51888   0.00000  Uiso   1.00
C1081  C     0.59629   0.89815   0.99042   0.00000  Uiso   1.00
C1082  C     0.52321   0.98940   0.75224   0.00000  Uiso   1.00
C1083  C     0.47654   0.67725   0.74819   0.00000  Uiso   1.00
C1084  C     0.46142   0.82872   0.83337   0.00000  Uiso   1.00
Cu1085 Cu    0.44071   0.82775   0.74516   0.00000  Uiso   1.00
Cu1086 Cu    0.55929   0.83892   0.75483   0.00000  Uiso   1.00
H1087  H     0.65549   0.79858   0.53450   0.00000  Uiso   1.00
H1088  H     0.66512   0.79413   0.71591   0.00000  Uiso   1.00
H1089  H     0.43266   0.77221   0.62747   0.00000  Uiso   1.00
H1090  H     0.46761   0.74514   0.57518   0.00000  Uiso   1.00
H1091  H     0.50131   0.74521   0.62044   0.00000  Uiso   1.00
H1092  H     0.56523   0.81201   0.86871   0.00000  Uiso   1.00
H1093  H     0.54621   0.77419   0.91716   0.00000  Uiso   1.00
H1094  H     0.50980   0.74987   0.87285   0.00000  Uiso   1.00
H1095  H     0.33873   0.88338   0.64513   0.00000  Uiso   1.00
H1096  H     0.36057   0.97482   0.66245   0.00000  Uiso   1.00
H1097  H     0.60964   0.95630   0.66984   0.00000  Uiso   1.00
H1098  H     0.63874   0.92702   0.97713   0.00000  Uiso   1.00
H1099  H     0.65873   0.98802   0.62005   0.00000  Uiso   1.00
H1100  H     0.66199   0.82771   0.85463   0.00000  Uiso   1.00
H1101  H     0.65476   0.91906   0.86132   0.00000  Uiso   1.00
H1102  H     0.40271   0.91496   0.84880   0.00000  Uiso   1.00
H1103  H     0.36307   0.92806   0.90427   0.00000  Uiso   1.00
H1104  H     0.63490   0.81089   0.96182   0.00000  Uiso   1.00
H1105  H     0.33591   0.92988   0.54529   0.00000  Uiso   1.00
H1106  H     0.39786   0.81153   0.57963   0.00000  Uiso   1.00
H1107  H     0.56908   0.88777   0.92977   0.00000  Uiso   1.00
H1108  H     0.56815   0.68000   0.75596   0.00000  Uiso   1.00
H1109  H     0.43162   0.98664   0.74443   0.00000  Uiso   1.00
H1110  H     0.33507   0.87286   0.78379   0.00000  Uiso   1.00
N1111  N     0.64839   0.84735   0.76212   0.00000  Uiso   1.00
N1112  N     0.35161   0.81932   0.73788   0.00000  Uiso   1.00
N1113  N     0.66092   0.90839   0.62596   0.00000  Uiso   1.00
N1114  N     0.33756   0.84956   0.88164   0.00000  Uiso   1.00
O1115  O     0.46148   0.90476   0.74686   0.00000  Uiso   1.00
O1116  O     0.53852   0.76191   0.75314   0.00000  Uiso   1.00
O1117  O     0.56163   0.91420   0.75502   0.00000  Uiso   1.00
O1118  O     0.43837   0.75247   0.74497   0.00000  Uiso   1.00
O1119  O     0.42185   0.82597   0.80854   0.00000  Uiso   1.00
O1120  O     0.57815   0.84070   0.69145   0.00000  Uiso   1.00
O1121  O     0.52199   0.83540   0.81671   0.00000  Uiso   1.00
O1122  O     0.47801   0.83126   0.68329   0.00000  Uiso   1.00
C1123  C     0.84826   0.93332   0.75151   0.00000  Uiso   1.00
C1124  C     0.87167   0.83796   0.66694   0.00000  Uiso   1.00
C1125  C     0.77037   0.82419   0.88187   0.00000  Uiso   1.00
C1126  C     0.89395   0.84668   0.61935   0.00000  Uiso   1.00
C1127  C     0.68442   0.81545   0.94731   0.00000  Uiso   1.00
C1128  C     0.95975   0.90137   0.55885   0.00000  Uiso   1.00
C1129  C     0.70853   0.82908   0.90309   0.00000  Uiso   1.00
C1130  C     0.94867   0.88541   0.60181   0.00000  Uiso   1.00
C1131  C     0.80868   0.81483   0.90854   0.00000  Uiso   1.00
C1132  C     0.85317   0.82249   0.59220   0.00000  Uiso   1.00
C1133  C     0.78987   0.82223   0.95403   0.00000  Uiso   1.00
C1134  C     0.81828   0.73334   0.74873   0.00000  Uiso   1.00
C1135  C     0.86028   0.84432   0.55088   0.00000  Uiso   1.00
C1136  C     0.72561   0.81349   0.97354   0.00000  Uiso   1.00
C1137  C     0.91644   0.88159   0.53351   0.00000  Uiso   1.00
C1138  C     0.83296   0.84017   0.98030   0.00000  Uiso   1.00
C1139  C     0.81415   0.83062   0.52569   0.00000  Uiso   1.00
C1140  C     0.81089   0.76855   0.60450   0.00000  Uiso   1.00
C1141  C     0.86067   0.78618   0.89093   0.00000  Uiso   1.00
C1142  C     0.98862   0.95953   0.64560   0.00000  Uiso   1.00
C1143  C     0.69077   0.90575   0.87364   0.00000  Uiso   1.00
C1144  C     0.74909   0.81392   0.54462   0.00000  Uiso   1.00
C1145  C     0.89025   0.87514   0.96332   0.00000  Uiso   1.00
C1146  C     0.70515   0.80724   0.51888   0.00000  Uiso   1.00
C1147  C     0.92962   0.89815   0.99042   0.00000  Uiso   1.00
C1148  C     0.85655   0.98940   0.75224   0.00000  Uiso   1.00
C1149  C     0.80987   0.67725   0.74819   0.00000  Uiso   1.00
C1150  C     0.79476   0.82872   0.83337   0.00000  Uiso   1.00
Cu1151 Cu    0.77404   0.82775   0.74516   0.00000  Uiso   1.00
Cu1152 Cu    0.89263   0.83892   0.75483   0.00000  Uiso   1.00
H1153  H     0.98883   0.79858   0.53450   0.00000  Uiso   1.00
H1154  H     0.99845   0.79413   0.71591   0.00000  Uiso   1.00
H1155  H     0.76600   0.77221   0.62747   0.00000  Uiso   1.00
H1156  H     0.80094   0.74514   0.57518   0.00000  Uiso   1.00
H1157  H     0.83465   0.74521   0.62044   0.00000  Uiso   1.00
H1158  H     0.89856   0.81201   0.86871   0.00000  Uiso   1.00
H1159  H     0.87954   0.77419   0.91716   0.00000  Uiso   1.00
H1160  H     0.84313   0.74987   0.87285   0.00000  Uiso   1.00
H1161  H     0.67207   0.88338   0.64513   0.00000  Uiso   1.00
H1162  H     0.69391   0.97482   0.66245   0.00000  Uiso   1.00
H1163  H     0.94298   0.95630   0.66984   0.00000  Uiso   1.00
H1164  H     0.97207   0.92702   0.97713   0.00000  Uiso   1.00
H1165  H     0.99206   0.98802   0.62005   0.00000  Uiso   1.00
H1166  H     0.99533   0.82771   0.85463   0.00000  Uiso   1.00
H1167  H     0.98810   0.91906   0.86132   0.00000  Uiso   1.00
H1168  H     0.73604   0.91496   0.84880   0.00000  Uiso   1.00
H1169  H     0.69640   0.92806   0.90427   0.00000  Uiso   1.00
H1170  H     0.96823   0.81089   0.96182   0.00000  Uiso   1.00
H1171  H     0.66924   0.92988   0.54529   0.00000  Uiso   1.00
H1172  H     0.73119   0.81153   0.57963   0.00000  Uiso   1.00
H1173  H     0.90242   0.88777   0.92977   0.00000  Uiso   1.00
H1174  H     0.90148   0.68000   0.75596   0.00000  Uiso   1.00
H1175  H     0.76495   0.98664   0.74443   0.00000  Uiso   1.00
H1176  H     0.66840   0.87286   0.78379   0.00000  Uiso   1.00
N1177  N     0.98173   0.84735   0.76212   0.00000  Uiso   1.00
N1178  N     0.68494   0.81932   0.73788   0.00000  Uiso   1.00
N1179  N     0.99425   0.90839   0.62596   0.00000  Uiso   1.00
N1180  N     0.67089   0.84956   0.88164   0.00000  Uiso   1.00
O1181  O     0.79482   0.90476   0.74686   0.00000  Uiso   1.00
O1182  O     0.87185   0.76191   0.75314   0.00000  Uiso   1.00
O1183  O     0.89496   0.91420   0.75502   0.00000  Uiso   1.00
O1184  O     0.77171   0.75247   0.74497   0.00000  Uiso   1.00
O1185  O     0.75518   0.82597   0.80854   0.00000  Uiso   1.00
O1186  O     0.91149   0.84070   0.69145   0.00000  Uiso   1.00
O1187  O     0.85532   0.83540   0.81671   0.00000  Uiso   1.00
O1188  O     0.81134   0.83126   0.68329   0.00000  Uiso   1.00
loop_
_geom_bond_atom_site_label_1
_geom_bond_atom_site_label_2
_geom_bond_distance
_geom_bond_site_symmetry_2
_ccdc_geom_bond_type
C1     O59     1.296   .     A
C1     C26     1.427   .     S
C1     O61     1.293   .     A
C2     C4      1.477   .     S
C2     O64     1.307   .     A
C2     O66     1.304   .     A
C3     C9      1.412   .     A
C3     C28     1.496   .     S
C3     C7      1.419   .     A
C4     C8      1.419   .     A
C4     C10     1.419   .     A
C5     C14     1.397   .     A
C5     C7      1.406   .     A
C5     H180    1.078   1_455 S
C6     C8      1.392   .     A
C6     C15     1.395   .     A
C6     H115    1.085   .     S
C7     N58     1.415   .     S
C8     N57     1.423   .     S
C9     C11     1.404   .     A
C9     C19     1.502   .     S
C10    C18     1.520   .     S
C10    C13     1.418   .     A
C11    C14     1.398   .     A
C11    C16     1.405   .     A
C12    O62     1.293   .     A
C12    C27     1.427   .     S
C12    O60     1.297   .     A
C13    C17     1.425   .     A
C13    C15     1.418   .     A
C14    C618    1.399   .     S
C15    C619    1.395   1_554 S
C16    C23     1.403   .     A
C16    C611    1.412   .     S
C17    C22     1.416   .     A
C17    C610    1.412   1_554 S
C18    H35     1.111   .     S
C18    H34     1.110   .     S
C18    H33     1.109   .     S
C19    H38     1.111   .     S
C19    H36     1.087   .     S
C19    H37     1.111   .     S
C20    H43     1.111   .     S
C20    H41     1.109   .     S
C20    N57     1.445   .     S
C20    H106    1.111   .     S
C21    N58     1.449   .     S
C21    H46     1.110   .     S
C21    H47     1.109   .     S
C21    H177    1.110   1_455 S
C22    C24     1.401   .     A
C22    H50     1.079   .     S
C23    H51     1.081   .     S
C23    C25     1.388   .     A
C24    C608    1.399   1_554 S
C24    H163    1.083   1_455 S
C25    H42     1.082   .     S
C25    C609    1.395   .     S
C26    C225    1.330   .     S
C26    H250    1.088   .     S
C27    C422    1.330   1_545 S
C27    H449    1.088   1_545 S
C28    O65     1.311   .     A
C28    O63     1.310   .     A
Cu29   Cu30    2.709   .     S
Cu29   O63     1.940   .     S
Cu29   N56     2.035   .     S
Cu29   O66     1.925   .     S
Cu29   O62     1.947   .     S
Cu29   O59     1.950   .     S
Cu30   O64     1.940   .     S
Cu30   O65     1.925   .     S
Cu30   N55     2.035   .     S
Cu30   O61     1.947   .     S
Cu30   O60     1.950   .     S
H31    C90     1.083   .     S
H32    N122    1.029   .     S
H39    N189    1.029   1_455 S
H40    C152    1.111   1_455 S
H44    N124    1.024   .     S
H45    C87     1.110   .     S
H48    C71     1.078   .     S
H49    C138    1.085   1_455 S
H52    C422    1.088   1_545 S
H53    C225    1.088   .     S
H54    N187    1.028   1_455 S
N55    H120    1.028   .     S
N55    N122    1.296   .     S
N56    H164    1.029   1_455 S
N56    N187    1.296   1_455 S
N57    H105    1.029   .     S
N58    H176    1.024   1_455 S
C67    O125    1.296   .     A
C67    C92     1.427   .     S
C67    O127    1.293   .     A
C68    C70     1.477   .     S
C68    O130    1.307   .     A
C68    O132    1.304   .     A
C69    C75     1.412   .     A
C69    C94     1.496   .     S
C69    C73     1.419   .     A
C70    C74     1.419   .     A
C70    C76     1.419   .     A
C71    C80     1.397   .     A
C71    C73     1.406   .     A
C72    C74     1.392   .     A
C72    C81     1.395   .     A
C72    H181    1.085   .     S
C73    N124    1.415   .     S
C74    N123    1.423   .     S
C75    C77     1.404   .     A
C75    C85     1.502   .     S
C76    C84     1.520   .     S
C76    C79     1.418   .     A
C77    C80     1.398   .     A
C77    C82     1.405   .     A
C78    O128    1.293   .     A
C78    C93     1.427   .     S
C78    O126    1.297   .     A
C79    C83     1.425   .     A
C79    C81     1.418   .     A
C80    C684    1.399   .     S
C81    C685    1.395   1_554 S
C82    C89     1.403   .     A
C82    C677    1.412   .     S
C83    C88     1.416   .     A
C83    C676    1.412   1_554 S
C84    H101    1.111   .     S
C84    H100    1.110   .     S
C84    H99     1.109   .     S
C85    H104    1.111   .     S
C85    H102    1.087   .     S
C85    H103    1.111   .     S
C86    H109    1.111   .     S
C86    H107    1.109   .     S
C86    N123    1.445   .     S
C86    H172    1.111   .     S
C87    N124    1.449   .     S
C87    H112    1.110   .     S
C87    H113    1.109   .     S
C88    C90     1.401   .     A
C88    H116    1.079   .     S
C89    H117    1.081   .     S
C89    C91     1.388   .     A
C90    C674    1.399   1_554 S
C91    H108    1.082   .     S
C91    C675    1.395   .     S
C92    C291    1.330   .     S
C92    H316    1.088   .     S
C93    C488    1.330   1_545 S
C93    H515    1.088   1_545 S
C94    O131    1.311   .     A
C94    O129    1.310   .     A
Cu95   Cu96    2.709   .     S
Cu95   O129    1.940   .     S
Cu95   N122    2.035   .     S
Cu95   O132    1.925   .     S
Cu95   O128    1.947   .     S
Cu95   O125    1.950   .     S
Cu96   O130    1.940   .     S
Cu96   O131    1.925   .     S
Cu96   N121    2.035   .     S
Cu96   O127    1.947   .     S
Cu96   O126    1.950   .     S
H97    C156    1.083   .     S
H98    N188    1.029   .     S
H110   N190    1.024   .     S
H111   C153    1.110   .     S
H114   C137    1.078   .     S
H118   C488    1.088   1_545 S
H119   C291    1.088   .     S
N121   H186    1.028   .     S
N121   N188    1.296   .     S
N123   H171    1.029   .     S
C133   O191    1.296   .     A
C133   C158    1.427   .     S
C133   O193    1.293   .     A
C134   C136    1.477   .     S
C134   O196    1.307   .     A
C134   O198    1.304   .     A
C135   C141    1.412   .     A
C135   C160    1.496   .     S
C135   C139    1.419   .     A
C136   C140    1.419   .     A
C136   C142    1.419   .     A
C137   C146    1.397   .     A
C137   C139    1.406   .     A
C138   C140    1.392   .     A
C138   C147    1.395   .     A
C138   H49     1.085   1_655 S
C139   N190    1.415   .     S
C140   N189    1.423   .     S
C141   C143    1.404   .     A
C141   C151    1.502   .     S
C142   C150    1.520   .     S
C142   C145    1.418   .     A
C143   C146    1.398   .     A
C143   C148    1.405   .     A
C144   O194    1.293   .     A
C144   C159    1.427   .     S
C144   O192    1.297   .     A
C145   C149    1.425   .     A
C145   C147    1.418   .     A
C146   C750    1.399   .     S
C147   C751    1.395   1_554 S
C148   C155    1.403   .     A
C148   C743    1.412   .     S
C149   C154    1.416   .     A
C149   C742    1.412   1_554 S
C150   H167    1.111   .     S
C150   H166    1.110   .     S
C150   H165    1.109   .     S
C151   H170    1.111   .     S
C151   H168    1.087   .     S
C151   H169    1.111   .     S
C152   H175    1.111   .     S
C152   H173    1.109   .     S
C152   N189    1.445   .     S
C152   H40     1.111   1_655 S
C153   N190    1.449   .     S
C153   H178    1.110   .     S
C153   H179    1.109   .     S
C154   C156    1.401   .     A
C154   H182    1.079   .     S
C155   H183    1.081   .     S
C155   C157    1.388   .     A
C156   C740    1.399   1_554 S
C157   H174    1.082   .     S
C157   C741    1.395   .     S
C158   C357    1.330   .     S
C158   H382    1.088   .     S
C159   C554    1.330   1_545 S
C159   H581    1.088   1_545 S
C160   O197    1.311   .     A
C160   O195    1.310   .     A
Cu161  Cu162   2.709   .     S
Cu161  O195    1.940   .     S
Cu161  N188    2.035   .     S
Cu161  O198    1.925   .     S
Cu161  O194    1.947   .     S
Cu161  O191    1.950   .     S
Cu162  O196    1.940   .     S
Cu162  O197    1.925   .     S
Cu162  N187    2.035   .     S
Cu162  O193    1.947   .     S
Cu162  O192    1.950   .     S
H163   C24     1.083   1_655 S
H164   N56     1.029   1_655 S
H176   N58     1.024   1_655 S
H177   C21     1.110   1_655 S
H180   C5      1.078   1_655 S
H184   C554    1.088   1_545 S
H185   C357    1.088   .     S
N187   H54     1.028   1_655 S
N187   N56     1.296   1_655 S
N189   H39     1.029   1_655 S
C199   O257    1.296   .     A
C199   C224    1.427   .     S
C199   O259    1.293   .     A
C200   C202    1.477   .     S
C200   O262    1.307   .     A
C200   O264    1.304   .     A
C201   C207    1.412   .     A
C201   C226    1.496   .     S
C201   C205    1.419   .     A
C202   C206    1.419   .     A
C202   C208    1.419   .     A
C203   C212    1.397   .     A
C203   C205    1.406   .     A
C203   H378    1.078   1_455 S
C204   C206    1.392   .     A
C204   C213    1.395   .     A
C204   H313    1.085   .     S
C205   N256    1.415   .     S
C206   N255    1.423   .     S
C207   C209    1.404   .     A
C207   C217    1.502   .     S
C208   C216    1.520   .     S
C208   C211    1.418   .     A
C209   C212    1.398   .     A
C209   C214    1.405   .     A
C210   O260    1.293   .     A
C210   C225    1.427   .     S
C210   O258    1.297   .     A
C211   C215    1.425   .     A
C211   C213    1.418   .     A
C212   C816    1.399   .     S
C213   C817    1.395   1_554 S
C214   C221    1.403   .     A
C214   C809    1.412   .     S
C215   C220    1.416   .     A
C215   C808    1.412   1_554 S
C216   H233    1.111   .     S
C216   H232    1.110   .     S
C216   H231    1.109   .     S
C217   H236    1.111   .     S
C217   H234    1.087   .     S
C217   H235    1.111   .     S
C218   H241    1.111   .     S
C218   H239    1.109   .     S
C218   N255    1.445   .     S
C218   H304    1.111   .     S
C219   N256    1.449   .     S
C219   H244    1.110   .     S
C219   H245    1.109   .     S
C219   H375    1.110   1_455 S
C220   C222    1.401   .     A
C220   H248    1.079   .     S
C221   H249    1.081   .     S
C221   C223    1.388   .     A
C222   C806    1.399   1_554 S
C222   H361    1.083   1_455 S
C223   H240    1.082   .     S
C223   C807    1.395   .     S
C224   C423    1.330   .     S
C224   H448    1.088   .     S
C226   O263    1.311   .     A
C226   O261    1.310   .     A
Cu227  Cu228   2.709   .     S
Cu227  O261    1.940   .     S
Cu227  N254    2.035   .     S
Cu227  O264    1.925   .     S
Cu227  O260    1.947   .     S
Cu227  O257    1.950   .     S
Cu228  O262    1.940   .     S
Cu228  O263    1.925   .     S
Cu228  N253    2.035   .     S
Cu228  O259    1.947   .     S
Cu228  O258    1.950   .     S
H229   C288    1.083   .     S
H230   N320    1.029   .     S
H237   N387    1.029   1_455 S
H238   C350    1.111   1_455 S
H242   N322    1.024   .     S
H243   C285    1.110   .     S
H246   C269    1.078   .     S
H247   C336    1.085   1_455 S
H251   C423    1.088   .     S
H252   N385    1.028   1_455 S
N253   H318    1.028   .     S
N253   N320    1.296   .     S
N254   H362    1.029   1_455 S
N254   N385    1.296   1_455 S
N255   H303    1.029   .     S
N256   H374    1.024   1_455 S
C265   O323    1.296   .     A
C265   C290    1.427   .     S
C265   O325    1.293   .     A
C266   C268    1.477   .     S
C266   O328    1.307   .     A
C266   O330    1.304   .     A
C267   C273    1.412   .     A
C267   C292    1.496   .     S
C267   C271    1.419   .     A
C268   C272    1.419   .     A
C268   C274    1.419   .     A
C269   C278    1.397   .     A
C269   C271    1.406   .     A
C270   C272    1.392   .     A
C270   C279    1.395   .     A
C270   H379    1.085   .     S
C271   N322    1.415   .     S
C272   N321    1.423   .     S
C273   C275    1.404   .     A
C273   C283    1.502   .     S
C274   C282    1.520   .     S
C274   C277    1.418   .     A
C275   C278    1.398   .     A
C275   C280    1.405   .     A
C276   O326    1.293   .     A
C276   C291    1.427   .     S
C276   O324    1.297   .     A
C277   C281    1.425   .     A
C277   C279    1.418   .     A
C278   C882    1.399   .     S
C279   C883    1.395   1_554 S
C280   C287    1.403   .     A
C280   C875    1.412   .     S
C281   C286    1.416   .     A
C281   C874    1.412   1_554 S
C282   H299    1.111   .     S
C282   H298    1.110   .     S
C282   H297    1.109   .     S
C283   H302    1.111   .     S
C283   H300    1.087   .     S
C283   H301    1.111   .     S
C284   H307    1.111   .     S
C284   H305    1.109   .     S
C284   N321    1.445   .     S
C284   H370    1.111   .     S
C285   N322    1.449   .     S
C285   H310    1.110   .     S
C285   H311    1.109   .     S
C286   C288    1.401   .     A
C286   H314    1.079   .     S
C287   H315    1.081   .     S
C287   C289    1.388   .     A
C288   C872    1.399   1_554 S
C289   H306    1.082   .     S
C289   C873    1.395   .     S
C290   C489    1.330   .     S
C290   H514    1.088   .     S
C292   O329    1.311   .     A
C292   O327    1.310   .     A
Cu293  Cu294   2.709   .     S
Cu293  O327    1.940   .     S
Cu293  N320    2.035   .     S
Cu293  O330    1.925   .     S
Cu293  O326    1.947   .     S
Cu293  O323    1.950   .     S
Cu294  O328    1.940   .     S
Cu294  O329    1.925   .     S
Cu294  N319    2.035   .     S
Cu294  O325    1.947   .     S
Cu294  O324    1.950   .     S
H295   C354    1.083   .     S
H296   N386    1.029   .     S
H308   N388    1.024   .     S
H309   C351    1.110   .     S
H312   C335    1.078   .     S
H317   C489    1.088   .     S
N319   H384    1.028   .     S
N319   N386    1.296   .     S
N321   H369    1.029   .     S
C331   O389    1.296   .     A
C331   C356    1.427   .     S
C331   O391    1.293   .     A
C332   C334    1.477   .     S
C332   O394    1.307   .     A
C332   O396    1.304   .     A
C333   C339    1.412   .     A
C333   C358    1.496   .     S
C333   C337    1.419   .     A
C334   C338    1.419   .     A
C334   C340    1.419   .     A
C335   C344    1.397   .     A
C335   C337    1.406   .     A
C336   C338    1.392   .     A
C336   C345    1.395   .     A
C336   H247    1.085   1_655 S
C337   N388    1.415   .     S
C338   N387    1.423   .     S
C339   C341    1.404   .     A
C339   C349    1.502   .     S
C340   C348    1.520   .     S
C340   C343    1.418   .     A
C341   C344    1.398   .     A
C341   C346    1.405   .     A
C342   O392    1.293   .     A
C342   C357    1.427   .     S
C342   O390    1.297   .     A
C343   C347    1.425   .     A
C343   C345    1.418   .     A
C344   C948    1.399   .     S
C345   C949    1.395   1_554 S
C346   C353    1.403   .     A
C346   C941    1.412   .     S
C347   C352    1.416   .     A
C347   C940    1.412   1_554 S
C348   H365    1.111   .     S
C348   H364    1.110   .     S
C348   H363    1.109   .     S
C349   H368    1.111   .     S
C349   H366    1.087   .     S
C349   H367    1.111   .     S
C350   H373    1.111   .     S
C350   H371    1.109   .     S
C350   N387    1.445   .     S
C350   H238    1.111   1_655 S
C351   N388    1.449   .     S
C351   H376    1.110   .     S
C351   H377    1.109   .     S
C352   C354    1.401   .     A
C352   H380    1.079   .     S
C353   H381    1.081   .     S
C353   C355    1.388   .     A
C354   C938    1.399   1_554 S
C355   H372    1.082   .     S
C355   C939    1.395   .     S
C356   C555    1.330   .     S
C356   H580    1.088   .     S
C358   O395    1.311   .     A
C358   O393    1.310   .     A
Cu359  Cu360   2.709   .     S
Cu359  O393    1.940   .     S
Cu359  N386    2.035   .     S
Cu359  O396    1.925   .     S
Cu359  O392    1.947   .     S
Cu359  O389    1.950   .     S
Cu360  O394    1.940   .     S
Cu360  O395    1.925   .     S
Cu360  N385    2.035   .     S
Cu360  O391    1.947   .     S
Cu360  O390    1.950   .     S
H361   C222    1.083   1_655 S
H362   N254    1.029   1_655 S
H374   N256    1.024   1_655 S
H375   C219    1.110   1_655 S
H378   C203    1.078   1_655 S
H383   C555    1.088   .     S
N385   H252    1.028   1_655 S
N385   N254    1.296   1_655 S
N387   H237    1.029   1_655 S
C397   O455    1.296   .     A
C397   C422    1.427   .     S
C397   O457    1.293   .     A
C398   C400    1.477   .     S
C398   O460    1.307   .     A
C398   O462    1.304   .     A
C399   C405    1.412   .     A
C399   C424    1.496   .     S
C399   C403    1.419   .     A
C400   C404    1.419   .     A
C400   C406    1.419   .     A
C401   C410    1.397   .     A
C401   C403    1.406   .     A
C401   H576    1.078   1_455 S
C402   C404    1.392   .     A
C402   C411    1.395   .     A
C402   H511    1.085   .     S
C403   N454    1.415   .     S
C404   N453    1.423   .     S
C405   C407    1.404   .     A
C405   C415    1.502   .     S
C406   C414    1.520   .     S
C406   C409    1.418   .     A
C407   C410    1.398   .     A
C407   C412    1.405   .     A
C408   O458    1.293   .     A
C408   C423    1.427   .     S
C408   O456    1.297   .     A
C409   C413    1.425   .     A
C409   C411    1.418   .     A
C410   C1014   1.399   .     S
C411   C1015   1.395   1_554 S
C412   C419    1.403   .     A
C412   C1007   1.412   .     S
C413   C418    1.416   .     A
C413   C1006   1.412   1_554 S
C414   H431    1.111   .     S
C414   H430    1.110   .     S
C414   H429    1.109   .     S
C415   H434    1.111   .     S
C415   H432    1.087   .     S
C415   H433    1.111   .     S
C416   H439    1.111   .     S
C416   H437    1.109   .     S
C416   N453    1.445   .     S
C416   H502    1.111   .     S
C417   N454    1.449   .     S
C417   H442    1.110   .     S
C417   H443    1.109   .     S
C417   H573    1.110   1_455 S
C418   C420    1.401   .     A
C418   H446    1.079   .     S
C419   H447    1.081   .     S
C419   C421    1.388   .     A
C420   C1004   1.399   1_554 S
C420   H559    1.083   1_455 S
C421   H438    1.082   .     S
C421   C1005   1.395   .     S
C422   C27     1.330   1_565 S
C422   H52     1.088   1_565 S
C424   O461    1.311   .     A
C424   O459    1.310   .     A
Cu425  Cu426   2.709   .     S
Cu425  O459    1.940   .     S
Cu425  N452    2.035   .     S
Cu425  O462    1.925   .     S
Cu425  O458    1.947   .     S
Cu425  O455    1.950   .     S
Cu426  O460    1.940   .     S
Cu426  O461    1.925   .     S
Cu426  N451    2.035   .     S
Cu426  O457    1.947   .     S
Cu426  O456    1.950   .     S
H427   C486    1.083   .     S
H428   N518    1.029   .     S
H435   N585    1.029   1_455 S
H436   C548    1.111   1_455 S
H440   N520    1.024   .     S
H441   C483    1.110   .     S
H444   C467    1.078   .     S
H445   C534    1.085   1_455 S
H449   C27     1.088   1_565 S
H450   N583    1.028   1_455 S
N451   H516    1.028   .     S
N451   N518    1.296   .     S
N452   H560    1.029   1_455 S
N452   N583    1.296   1_455 S
N453   H501    1.029   .     S
N454   H572    1.024   1_455 S
C463   O521    1.296   .     A
C463   C488    1.427   .     S
C463   O523    1.293   .     A
C464   C466    1.477   .     S
C464   O526    1.307   .     A
C464   O528    1.304   .     A
C465   C471    1.412   .     A
C465   C490    1.496   .     S
C465   C469    1.419   .     A
C466   C470    1.419   .     A
C466   C472    1.419   .     A
C467   C476    1.397   .     A
C467   C469    1.406   .     A
C468   C470    1.392   .     A
C468   C477    1.395   .     A
C468   H577    1.085   .     S
C469   N520    1.415   .     S
C470   N519    1.423   .     S
C471   C473    1.404   .     A
C471   C481    1.502   .     S
C472   C480    1.520   .     S
C472   C475    1.418   .     A
C473   C476    1.398   .     A
C473   C478    1.405   .     A
C474   O524    1.293   .     A
C474   C489    1.427   .     S
C474   O522    1.297   .     A
C475   C479    1.425   .     A
C475   C477    1.418   .     A
C476   C1080   1.399   .     S
C477   C1081   1.395   1_554 S
C478   C485    1.403   .     A
C478   C1073   1.412   .     S
C479   C484    1.416   .     A
C479   C1072   1.412   1_554 S
C480   H497    1.111   .     S
C480   H496    1.110   .     S
C480   H495    1.109   .     S
C481   H500    1.111   .     S
C481   H498    1.087   .     S
C481   H499    1.111   .     S
C482   H505    1.111   .     S
C482   H503    1.109   .     S
C482   N519    1.445   .     S
C482   H568    1.111   .     S
C483   N520    1.449   .     S
C483   H508    1.110   .     S
C483   H509    1.109   .     S
C484   C486    1.401   .     A
C484   H512    1.079   .     S
C485   H513    1.081   .     S
C485   C487    1.388   .     A
C486   C1070   1.399   1_554 S
C487   H504    1.082   .     S
C487   C1071   1.395   .     S
C488   C93     1.330   1_565 S
C488   H118    1.088   1_565 S
C490   O527    1.311   .     A
C490   O525    1.310   .     A
Cu491  Cu492   2.709   .     S
Cu491  O525    1.940   .     S
Cu491  N518    2.035   .     S
Cu491  O528    1.925   .     S
Cu491  O524    1.947   .     S
Cu491  O521    1.950   .     S
Cu492  O526    1.940   .     S
Cu492  O527    1.925   .     S
Cu492  N517    2.035   .     S
Cu492  O523    1.947   .     S
Cu492  O522    1.950   .     S
H493   C552    1.083   .     S
H494   N584    1.029   .     S
H506   N586    1.024   .     S
H507   C549    1.110   .     S
H510   C533    1.078   .     S
H515   C93     1.088   1_565 S
N517   H582    1.028   .     S
N517   N584    1.296   .     S
N519   H567    1.029   .     S
C529   O587    1.296   .     A
C529   C554    1.427   .     S
C529   O589    1.293   .     A
C530   C532    1.477   .     S
C530   O592    1.307   .     A
C530   O594    1.304   .     A
C531   C537    1.412   .     A
C531   C556    1.496   .     S
C531   C535    1.419   .     A
C532   C536    1.419   .     A
C532   C538    1.419   .     A
C533   C542    1.397   .     A
C533   C535    1.406   .     A
C534   C536    1.392   .     A
C534   C543    1.395   .     A
C534   H445    1.085   1_655 S
C535   N586    1.415   .     S
C536   N585    1.423   .     S
C537   C539    1.404   .     A
C537   C547    1.502   .     S
C538   C546    1.520   .     S
C538   C541    1.418   .     A
C539   C542    1.398   .     A
C539   C544    1.405   .     A
C540   O590    1.293   .     A
C540   C555    1.427   .     S
C540   O588    1.297   .     A
C541   C545    1.425   .     A
C541   C543    1.418   .     A
C542   C1146   1.399   .     S
C543   C1147   1.395   1_554 S
C544   C551    1.403   .     A
C544   C1139   1.412   .     S
C545   C550    1.416   .     A
C545   C1138   1.412   1_554 S
C546   H563    1.111   .     S
C546   H562    1.110   .     S
C546   H561    1.109   .     S
C547   H566    1.111   .     S
C547   H564    1.087   .     S
C547   H565    1.111   .     S
C548   H571    1.111   .     S
C548   H569    1.109   .     S
C548   N585    1.445   .     S
C548   H436    1.111   1_655 S
C549   N586    1.449   .     S
C549   H574    1.110   .     S
C549   H575    1.109   .     S
C550   C552    1.401   .     A
C550   H578    1.079   .     S
C551   H579    1.081   .     S
C551   C553    1.388   .     A
C552   C1136   1.399   1_554 S
C553   H570    1.082   .     S
C553   C1137   1.395   .     S
C554   C159    1.330   1_565 S
C554   H184    1.088   1_565 S
C556   O593    1.311   .     A
C556   O591    1.310   .     A
Cu557  Cu558   2.709   .     S
Cu557  O591    1.940   .     S
Cu557  N584    2.035   .     S
Cu557  O594    1.925   .     S
Cu557  O590    1.947   .     S
Cu557  O587    1.950   .     S
Cu558  O592    1.940   .     S
Cu558  O593    1.925   .     S
Cu558  N583    2.035   .     S
Cu558  O589    1.947   .     S
Cu558  O588    1.950   .     S
H559   C420    1.083   1_655 S
H560   N452    1.029   1_655 S
H572   N454    1.024   1_655 S
H573   C417    1.110   1_655 S
H576   C401    1.078   1_655 S
H581   C159    1.088   1_565 S
N583   H450    1.028   1_655 S
N583   N452    1.296   1_655 S
N585   H435    1.029   1_655 S
C595   O653    1.296   .     A
C595   C620    1.427   .     S
C595   O655    1.293   .     A
C596   C598    1.477   .     S
C596   O658    1.307   .     A
C596   O660    1.304   .     A
C597   C603    1.412   .     A
C597   C622    1.496   .     S
C597   C601    1.419   .     A
C598   C602    1.419   .     A
C598   C604    1.419   .     A
C599   C608    1.397   .     A
C599   C601    1.406   .     A
C599   H774    1.078   1_455 S
C600   C602    1.392   .     A
C600   C609    1.395   .     A
C600   H709    1.085   .     S
C601   N652    1.415   .     S
C602   N651    1.423   .     S
C603   C605    1.404   .     A
C603   C613    1.502   .     S
C604   C612    1.520   .     S
C604   C607    1.418   .     A
C605   C608    1.398   .     A
C605   C610    1.405   .     A
C606   O656    1.293   .     A
C606   C621    1.427   .     S
C606   O654    1.297   .     A
C607   C611    1.425   .     A
C607   C609    1.418   .     A
C608   C24     1.399   1_556 S
C610   C617    1.403   .     A
C610   C17     1.412   1_556 S
C611   C616    1.416   .     A
C612   H629    1.111   .     S
C612   H628    1.110   .     S
C612   H627    1.109   .     S
C613   H632    1.111   .     S
C613   H630    1.087   .     S
C613   H631    1.111   .     S
C614   H637    1.111   .     S
C614   H635    1.109   .     S
C614   N651    1.445   .     S
C614   H700    1.111   .     S
C615   N652    1.449   .     S
C615   H640    1.110   .     S
C615   H641    1.109   .     S
C615   H771    1.110   1_455 S
C616   C618    1.401   .     A
C616   H644    1.079   .     S
C617   H645    1.081   .     S
C617   C619    1.388   .     A
C618   H757    1.083   1_455 S
C619   H636    1.082   .     S
C619   C15     1.395   1_556 S
C620   C819    1.330   .     S
C620   H844    1.088   .     S
C621   C1016   1.330   1_545 S
C621   H1043   1.088   1_545 S
C622   O659    1.311   .     A
C622   O657    1.310   .     A
Cu623  Cu624   2.709   .     S
Cu623  O657    1.940   .     S
Cu623  N650    2.035   .     S
Cu623  O660    1.925   .     S
Cu623  O656    1.947   .     S
Cu623  O653    1.950   .     S
Cu624  O658    1.940   .     S
Cu624  O659    1.925   .     S
Cu624  N649    2.035   .     S
Cu624  O655    1.947   .     S
Cu624  O654    1.950   .     S
H625   C684    1.083   .     S
H626   N716    1.029   .     S
H633   N783    1.029   1_455 S
H634   C746    1.111   1_455 S
H638   N718    1.024   .     S
H639   C681    1.110   .     S
H642   C665    1.078   .     S
H643   C732    1.085   1_455 S
H646   C1016   1.088   1_545 S
H647   C819    1.088   .     S
H648   N781    1.028   1_455 S
N649   H714    1.028   .     S
N649   N716    1.296   .     S
N650   H758    1.029   1_455 S
N650   N781    1.296   1_455 S
N651   H699    1.029   .     S
N652   H770    1.024   1_455 S
C661   O719    1.296   .     A
C661   C686    1.427   .     S
C661   O721    1.293   .     A
C662   C664    1.477   .     S
C662   O724    1.307   .     A
C662   O726    1.304   .     A
C663   C669    1.412   .     A
C663   C688    1.496   .     S
C663   C667    1.419   .     A
C664   C668    1.419   .     A
C664   C670    1.419   .     A
C665   C674    1.397   .     A
C665   C667    1.406   .     A
C666   C668    1.392   .     A
C666   C675    1.395   .     A
C666   H775    1.085   .     S
C667   N718    1.415   .     S
C668   N717    1.423   .     S
C669   C671    1.404   .     A
C669   C679    1.502   .     S
C670   C678    1.520   .     S
C670   C673    1.418   .     A
C671   C674    1.398   .     A
C671   C676    1.405   .     A
C672   O722    1.293   .     A
C672   C687    1.427   .     S
C672   O720    1.297   .     A
C673   C677    1.425   .     A
C673   C675    1.418   .     A
C674   C90     1.399   1_556 S
C676   C683    1.403   .     A
C676   C83     1.412   1_556 S
C677   C682    1.416   .     A
C678   H695    1.111   .     S
C678   H694    1.110   .     S
C678   H693    1.109   .     S
C679   H698    1.111   .     S
C679   H696    1.087   .     S
C679   H697    1.111   .     S
C680   H703    1.111   .     S
C680   H701    1.109   .     S
C680   N717    1.445   .     S
C680   H766    1.111   .     S
C681   N718    1.449   .     S
C681   H706    1.110   .     S
C681   H707    1.109   .     S
C682   C684    1.401   .     A
C682   H710    1.079   .     S
C683   H711    1.081   .     S
C683   C685    1.388   .     A
C685   H702    1.082   .     S
C685   C81     1.395   1_556 S
C686   C885    1.330   .     S
C686   H910    1.088   .     S
C687   C1082   1.330   1_545 S
C687   H1109   1.088   1_545 S
C688   O725    1.311   .     A
C688   O723    1.310   .     A
Cu689  Cu690   2.709   .     S
Cu689  O723    1.940   .     S
Cu689  N716    2.035   .     S
Cu689  O726    1.925   .     S
Cu689  O722    1.947   .     S
Cu689  O719    1.950   .     S
Cu690  O724    1.940   .     S
Cu690  O725    1.925   .     S
Cu690  N715    2.035   .     S
Cu690  O721    1.947   .     S
Cu690  O720    1.950   .     S
H691   C750    1.083   .     S
H692   N782    1.029   .     S
H704   N784    1.024   .     S
H705   C747    1.110   .     S
H708   C731    1.078   .     S
H712   C1082   1.088   1_545 S
H713   C885    1.088   .     S
N715   H780    1.028   .     S
N715   N782    1.296   .     S
N717   H765    1.029   .     S
C727   O785    1.296   .     A
C727   C752    1.427   .     S
C727   O787    1.293   .     A
C728   C730    1.477   .     S
C728   O790    1.307   .     A
C728   O792    1.304   .     A
C729   C735    1.412   .     A
C729   C754    1.496   .     S
C729   C733    1.419   .     A
C730   C734    1.419   .     A
C730   C736    1.419   .     A
C731   C740    1.397   .     A
C731   C733    1.406   .     A
C732   C734    1.392   .     A
C732   C741    1.395   .     A
C732   H643    1.085   1_655 S
C733   N784    1.415   .     S
C734   N783    1.423   .     S
C735   C737    1.404   .     A
C735   C745    1.502   .     S
C736   C744    1.520   .     S
C736   C739    1.418   .     A
C737   C740    1.398   .     A
C737   C742    1.405   .     A
C738   O788    1.293   .     A
C738   C753    1.427   .     S
C738   O786    1.297   .     A
C739   C743    1.425   .     A
C739   C741    1.418   .     A
C740   C156    1.399   1_556 S
C742   C749    1.403   .     A
C742   C149    1.412   1_556 S
C743   C748    1.416   .     A
C744   H761    1.111   .     S
C744   H760    1.110   .     S
C744   H759    1.109   .     S
C745   H764    1.111   .     S
C745   H762    1.087   .     S
C745   H763    1.111   .     S
C746   H769    1.111   .     S
C746   H767    1.109   .     S
C746   N783    1.445   .     S
C746   H634    1.111   1_655 S
C747   N784    1.449   .     S
C747   H772    1.110   .     S
C747   H773    1.109   .     S
C748   C750    1.401   .     A
C748   H776    1.079   .     S
C749   H777    1.081   .     S
C749   C751    1.388   .     A
C751   H768    1.082   .     S
C751   C147    1.395   1_556 S
C752   C951    1.330   .     S
C752   H976    1.088   .     S
C753   C1148   1.330   1_545 S
C753   H1175   1.088   1_545 S
C754   O791    1.311   .     A
C754   O789    1.310   .     A
Cu755  Cu756   2.709   .     S
Cu755  O789    1.940   .     S
Cu755  N782    2.035   .     S
Cu755  O792    1.925   .     S
Cu755  O788    1.947   .     S
Cu755  O785    1.950   .     S
Cu756  O790    1.940   .     S
Cu756  O791    1.925   .     S
Cu756  N781    2.035   .     S
Cu756  O787    1.947   .     S
Cu756  O786    1.950   .     S
H757   C618    1.083   1_655 S
H758   N650    1.029   1_655 S
H770   N652    1.024   1_655 S
H771   C615    1.110   1_655 S
H774   C599    1.078   1_655 S
H778   C1148   1.088   1_545 S
H779   C951    1.088   .     S
N781   H648    1.028   1_655 S
N781   N650    1.296   1_655 S
N783   H633    1.029   1_655 S
C793   O851    1.296   .     A
C793   C818    1.427   .     S
C793   O853    1.293   .     A
C794   C796    1.477   .     S
C794   O856    1.307   .     A
C794   O858    1.304   .     A
C795   C801    1.412   .     A
C795   C820    1.496   .     S
C795   C799    1.419   .     A
C796   C800    1.419   .     A
C796   C802    1.419   .     A
C797   C806    1.397   .     A
C797   C799    1.406   .     A
C797   H972    1.078   1_455 S
C798   C800    1.392   .     A
C798   C807    1.395   .     A
C798   H907    1.085   .     S
C799   N850    1.415   .     S
C800   N849    1.423   .     S
C801   C803    1.404   .     A
C801   C811    1.502   .     S
C802   C810    1.520   .     S
C802   C805    1.418   .     A
C803   C806    1.398   .     A
C803   C808    1.405   .     A
C804   O854    1.293   .     A
C804   C819    1.427   .     S
C804   O852    1.297   .     A
C805   C809    1.425   .     A
C805   C807    1.418   .     A
C806   C222    1.399   1_556 S
C808   C815    1.403   .     A
C808   C215    1.412   1_556 S
C809   C814    1.416   .     A
C810   H827    1.111   .     S
C810   H826    1.110   .     S
C810   H825    1.109   .     S
C811   H830    1.111   .     S
C811   H828    1.087   .     S
C811   H829    1.111   .     S
C812   H835    1.111   .     S
C812   H833    1.109   .     S
C812   N849    1.445   .     S
C812   H898    1.111   .     S
C813   N850    1.449   .     S
C813   H838    1.110   .     S
C813   H839    1.109   .     S
C813   H969    1.110   1_455 S
C814   C816    1.401   .     A
C814   H842    1.079   .     S
C815   H843    1.081   .     S
C815   C817    1.388   .     A
C816   H955    1.083   1_455 S
C817   H834    1.082   .     S
C817   C213    1.395   1_556 S
C818   C1017   1.330   .     S
C818   H1042   1.088   .     S
C820   O857    1.311   .     A
C820   O855    1.310   .     A
Cu821  Cu822   2.709   .     S
Cu821  O855    1.940   .     S
Cu821  N848    2.035   .     S
Cu821  O858    1.925   .     S
Cu821  O854    1.947   .     S
Cu821  O851    1.950   .     S
Cu822  O856    1.940   .     S
Cu822  O857    1.925   .     S
Cu822  N847    2.035   .     S
Cu822  O853    1.947   .     S
Cu822  O852    1.950   .     S
H823   C882    1.083   .     S
H824   N914    1.029   .     S
H831   N981    1.029   1_455 S
H832   C944    1.111   1_455 S
H836   N916    1.024   .     S
H837   C879    1.110   .     S
H840   C863    1.078   .     S
H841   C930    1.085   1_455 S
H845   C1017   1.088   .     S
H846   N979    1.028   1_455 S
N847   H912    1.028   .     S
N847   N914    1.296   .     S
N848   H956    1.029   1_455 S
N848   N979    1.296   1_455 S
N849   H897    1.029   .     S
N850   H968    1.024   1_455 S
C859   O917    1.296   .     A
C859   C884    1.427   .     S
C859   O919    1.293   .     A
C860   C862    1.477   .     S
C860   O922    1.307   .     A
C860   O924    1.304   .     A
C861   C867    1.412   .     A
C861   C886    1.496   .     S
C861   C865    1.419   .     A
C862   C866    1.419   .     A
C862   C868    1.419   .     A
C863   C872    1.397   .     A
C863   C865    1.406   .     A
C864   C866    1.392   .     A
C864   C873    1.395   .     A
C864   H973    1.085   .     S
C865   N916    1.415   .     S
C866   N915    1.423   .     S
C867   C869    1.404   .     A
C867   C877    1.502   .     S
C868   C876    1.520   .     S
C868   C871    1.418   .     A
C869   C872    1.398   .     A
C869   C874    1.405   .     A
C870   O920    1.293   .     A
C870   C885    1.427   .     S
C870   O918    1.297   .     A
C871   C875    1.425   .     A
C871   C873    1.418   .     A
C872   C288    1.399   1_556 S
C874   C881    1.403   .     A
C874   C281    1.412   1_556 S
C875   C880    1.416   .     A
C876   H893    1.111   .     S
C876   H892    1.110   .     S
C876   H891    1.109   .     S
C877   H896    1.111   .     S
C877   H894    1.087   .     S
C877   H895    1.111   .     S
C878   H901    1.111   .     S
C878   H899    1.109   .     S
C878   N915    1.445   .     S
C878   H964    1.111   .     S
C879   N916    1.449   .     S
C879   H904    1.110   .     S
C879   H905    1.109   .     S
C880   C882    1.401   .     A
C880   H908    1.079   .     S
C881   H909    1.081   .     S
C881   C883    1.388   .     A
C883   H900    1.082   .     S
C883   C279    1.395   1_556 S
C884   C1083   1.330   .     S
C884   H1108   1.088   .     S
C886   O923    1.311   .     A
C886   O921    1.310   .     A
Cu887  Cu888   2.709   .     S
Cu887  O921    1.940   .     S
Cu887  N914    2.035   .     S
Cu887  O924    1.925   .     S
Cu887  O920    1.947   .     S
Cu887  O917    1.950   .     S
Cu888  O922    1.940   .     S
Cu888  O923    1.925   .     S
Cu888  N913    2.035   .     S
Cu888  O919    1.947   .     S
Cu888  O918    1.950   .     S
H889   C948    1.083   .     S
H890   N980    1.029   .     S
H902   N982    1.024   .     S
H903   C945    1.110   .     S
H906   C929    1.078   .     S
H911   C1083   1.088   .     S
N913   H978    1.028   .     S
N913   N980    1.296   .     S
N915   H963    1.029   .     S
C925   O983    1.296   .     A
C925   C950    1.427   .     S
C925   O985    1.293   .     A
C926   C928    1.477   .     S
C926   O988    1.307   .     A
C926   O990    1.304   .     A
C927   C933    1.412   .     A
C927   C952    1.496   .     S
C927   C931    1.419   .     A
C928   C932    1.419   .     A
C928   C934    1.419   .     A
C929   C938    1.397   .     A
C929   C931    1.406   .     A
C930   C932    1.392   .     A
C930   C939    1.395   .     A
C930   H841    1.085   1_655 S
C931   N982    1.415   .     S
C932   N981    1.423   .     S
C933   C935    1.404   .     A
C933   C943    1.502   .     S
C934   C942    1.520   .     S
C934   C937    1.418   .     A
C935   C938    1.398   .     A
C935   C940    1.405   .     A
C936   O986    1.293   .     A
C936   C951    1.427   .     S
C936   O984    1.297   .     A
C937   C941    1.425   .     A
C937   C939    1.418   .     A
C938   C354    1.399   1_556 S
C940   C947    1.403   .     A
C940   C347    1.412   1_556 S
C941   C946    1.416   .     A
C942   H959    1.111   .     S
C942   H958    1.110   .     S
C942   H957    1.109   .     S
C943   H962    1.111   .     S
C943   H960    1.087   .     S
C943   H961    1.111   .     S
C944   H967    1.111   .     S
C944   H965    1.109   .     S
C944   N981    1.445   .     S
C944   H832    1.111   1_655 S
C945   N982    1.449   .     S
C945   H970    1.110   .     S
C945   H971    1.109   .     S
C946   C948    1.401   .     A
C946   H974    1.079   .     S
C947   H975    1.081   .     S
C947   C949    1.388   .     A
C949   H966    1.082   .     S
C949   C345    1.395   1_556 S
C950   C1149   1.330   .     S
C950   H1174   1.088   .     S
C952   O989    1.311   .     A
C952   O987    1.310   .     A
Cu953  Cu954   2.709   .     S
Cu953  O987    1.940   .     S
Cu953  N980    2.035   .     S
Cu953  O990    1.925   .     S
Cu953  O986    1.947   .     S
Cu953  O983    1.950   .     S
Cu954  O988    1.940   .     S
Cu954  O989    1.925   .     S
Cu954  N979    2.035   .     S
Cu954  O985    1.947   .     S
Cu954  O984    1.950   .     S
H955   C816    1.083   1_655 S
H956   N848    1.029   1_655 S
H968   N850    1.024   1_655 S
H969   C813    1.110   1_655 S
H972   C797    1.078   1_655 S
H977   C1149   1.088   .     S
N979   H846    1.028   1_655 S
N979   N848    1.296   1_655 S
N981   H831    1.029   1_655 S
C991   O1049   1.296   .     A
C991   C1016   1.427   .     S
C991   O1051   1.293   .     A
C992   C994    1.477   .     S
C992   O1054   1.307   .     A
C992   O1056   1.304   .     A
C993   C999    1.412   .     A
C993   C1018   1.496   .     S
C993   C997    1.419   .     A
C994   C998    1.419   .     A
C994   C1000   1.419   .     A
C995   C1004   1.397   .     A
C995   C997    1.406   .     A
C995   H1170   1.078   1_455 S
C996   C998    1.392   .     A
C996   C1005   1.395   .     A
C996   H1105   1.085   .     S
C997   N1048   1.415   .     S
C998   N1047   1.423   .     S
C999   C1001   1.404   .     A
C999   C1009   1.502   .     S
C1000  C1008   1.520   .     S
C1000  C1003   1.418   .     A
C1001  C1004   1.398   .     A
C1001  C1006   1.405   .     A
C1002  O1052   1.293   .     A
C1002  C1017   1.427   .     S
C1002  O1050   1.297   .     A
C1003  C1007   1.425   .     A
C1003  C1005   1.418   .     A
C1004  C420    1.399   1_556 S
C1006  C1013   1.403   .     A
C1006  C413    1.412   1_556 S
C1007  C1012   1.416   .     A
C1008  H1025   1.111   .     S
C1008  H1024   1.110   .     S
C1008  H1023   1.109   .     S
C1009  H1028   1.111   .     S
C1009  H1026   1.087   .     S
C1009  H1027   1.111   .     S
C1010  H1033   1.111   .     S
C1010  H1031   1.109   .     S
C1010  N1047   1.445   .     S
C1010  H1096   1.111   .     S
C1011  N1048   1.449   .     S
C1011  H1036   1.110   .     S
C1011  H1037   1.109   .     S
C1011  H1167   1.110   1_455 S
C1012  C1014   1.401   .     A
C1012  H1040   1.079   .     S
C1013  H1041   1.081   .     S
C1013  C1015   1.388   .     A
C1014  H1153   1.083   1_455 S
C1015  H1032   1.082   .     S
C1015  C411    1.395   1_556 S
C1016  C621    1.330   1_565 S
C1016  H646    1.088   1_565 S
C1018  O1055   1.311   .     A
C1018  O1053   1.310   .     A
Cu1019 Cu1020  2.709   .     S
Cu1019 O1053   1.940   .     S
Cu1019 N1046   2.035   .     S
Cu1019 O1056   1.925   .     S
Cu1019 O1052   1.947   .     S
Cu1019 O1049   1.950   .     S
Cu1020 O1054   1.940   .     S
Cu1020 O1055   1.925   .     S
Cu1020 N1045   2.035   .     S
Cu1020 O1051   1.947   .     S
Cu1020 O1050   1.950   .     S
H1021  C1080   1.083   .     S
H1022  N1112   1.029   .     S
H1029  N1179   1.029   1_455 S
H1030  C1142   1.111   1_455 S
H1034  N1114   1.024   .     S
H1035  C1077   1.110   .     S
H1038  C1061   1.078   .     S
H1039  C1128   1.085   1_455 S
H1043  C621    1.088   1_565 S
H1044  N1177   1.028   1_455 S
N1045  H1110   1.028   .     S
N1045  N1112   1.296   .     S
N1046  H1154   1.029   1_455 S
N1046  N1177   1.296   1_455 S
N1047  H1095   1.029   .     S
N1048  H1166   1.024   1_455 S
C1057  O1115   1.296   .     A
C1057  C1082   1.427   .     S
C1057  O1117   1.293   .     A
C1058  C1060   1.477   .     S
C1058  O1120   1.307   .     A
C1058  O1122   1.304   .     A
C1059  C1065   1.412   .     A
C1059  C1084   1.496   .     S
C1059  C1063   1.419   .     A
C1060  C1064   1.419   .     A
C1060  C1066   1.419   .     A
C1061  C1070   1.397   .     A
C1061  C1063   1.406   .     A
C1062  C1064   1.392   .     A
C1062  C1071   1.395   .     A
C1062  H1171   1.085   .     S
C1063  N1114   1.415   .     S
C1064  N1113   1.423   .     S
C1065  C1067   1.404   .     A
C1065  C1075   1.502   .     S
C1066  C1074   1.520   .     S
C1066  C1069   1.418   .     A
C1067  C1070   1.398   .     A
C1067  C1072   1.405   .     A
C1068  O1118   1.293   .     A
C1068  C1083   1.427   .     S
C1068  O1116   1.297   .     A
C1069  C1073   1.425   .     A
C1069  C1071   1.418   .     A
C1070  C486    1.399   1_556 S
C1072  C1079   1.403   .     A
C1072  C479    1.412   1_556 S
C1073  C1078   1.416   .     A
C1074  H1091   1.111   .     S
C1074  H1090   1.110   .     S
C1074  H1089   1.109   .     S
C1075  H1094   1.111   .     S
C1075  H1092   1.087   .     S
C1075  H1093   1.111   .     S
C1076  H1099   1.111   .     S
C1076  H1097   1.109   .     S
C1076  N1113   1.445   .     S
C1076  H1162   1.111   .     S
C1077  N1114   1.449   .     S
C1077  H1102   1.110   .     S
C1077  H1103   1.109   .     S
C1078  C1080   1.401   .     A
C1078  H1106   1.079   .     S
C1079  H1107   1.081   .     S
C1079  C1081   1.388   .     A
C1081  H1098   1.082   .     S
C1081  C477    1.395   1_556 S
C1082  C687    1.330   1_565 S
C1082  H712    1.088   1_565 S
C1084  O1121   1.311   .     A
C1084  O1119   1.310   .     A
Cu1085 Cu1086  2.709   .     S
Cu1085 O1119   1.940   .     S
Cu1085 N1112   2.035   .     S
Cu1085 O1122   1.925   .     S
Cu1085 O1118   1.947   .     S
Cu1085 O1115   1.950   .     S
Cu1086 O1120   1.940   .     S
Cu1086 O1121   1.925   .     S
Cu1086 N1111   2.035   .     S
Cu1086 O1117   1.947   .     S
Cu1086 O1116   1.950   .     S
H1087  C1146   1.083   .     S
H1088  N1178   1.029   .     S
H1100  N1180   1.024   .     S
H1101  C1143   1.110   .     S
H1104  C1127   1.078   .     S
H1109  C687    1.088   1_565 S
N1111  H1176   1.028   .     S
N1111  N1178   1.296   .     S
N1113  H1161   1.029   .     S
C1123  O1181   1.296   .     A
C1123  C1148   1.427   .     S
C1123  O1183   1.293   .     A
C1124  C1126   1.477   .     S
C1124  O1186   1.307   .     A
C1124  O1188   1.304   .     A
C1125  C1131   1.412   .     A
C1125  C1150   1.496   .     S
C1125  C1129   1.419   .     A
C1126  C1130   1.419   .     A
C1126  C1132   1.419   .     A
C1127  C1136   1.397   .     A
C1127  C1129   1.406   .     A
C1128  C1130   1.392   .     A
C1128  C1137   1.395   .     A
C1128  H1039   1.085   1_655 S
C1129  N1180   1.415   .     S
C1130  N1179   1.423   .     S
C1131  C1133   1.404   .     A
C1131  C1141   1.502   .     S
C1132  C1140   1.520   .     S
C1132  C1135   1.418   .     A
C1133  C1136   1.398   .     A
C1133  C1138   1.405   .     A
C1134  O1184   1.293   .     A
C1134  C1149   1.427   .     S
C1134  O1182   1.297   .     A
C1135  C1139   1.425   .     A
C1135  C1137   1.418   .     A
C1136  C552    1.399   1_556 S
C1138  C1145   1.403   .     A
C1138  C545    1.412   1_556 S
C1139  C1144   1.416   .     A
C1140  H1157   1.111   .     S
C1140  H1156   1.110   .     S
C1140  H1155   1.109   .     S
C1141  H1160   1.111   .     S
C1141  H1158   1.087   .     S
C1141  H1159   1.111   .     S
C1142  H1165   1.111   .     S
C1142  H1163   1.109   .     S
C1142  N1179   1.445   .     S
C1142  H1030   1.111   1_655 S
C1143  N1180   1.449   .     S
C1143  H1168   1.110   .     S
C1143  H1169   1.109   .     S
C1144  C1146   1.401   .     A
C1144  H1172   1.079   .     S
C1145  H1173   1.081   .     S
C1145  C1147   1.388   .     A
C1147  H1164   1.082   .     S
C1147  C543    1.395   1_556 S
C1148  C753    1.330   1_565 S
C1148  H778    1.088   1_565 S
C1150  O1187   1.311   .     A
C1150  O1185   1.310   .     A
Cu1151 Cu1152  2.709   .     S
Cu1151 O1185   1.940   .     S
Cu1151 N1178   2.035   .     S
Cu1151 O1188   1.925   .     S
Cu1151 O1184   1.947   .     S
Cu1151 O1181   1.950   .     S
Cu1152 O1186   1.940   .     S
Cu1152 O1187   1.925   .     S
Cu1152 N1177   2.035   .     S
Cu1152 O1183   1.947   .     S
Cu1152 O1182   1.950   .     S
H1153  C1014   1.083   1_655 S
H1154  N1046   1.029   1_655 S
H1166  N1048   1.024   1_655 S
H1167  C1011   1.110   1_655 S
H1170  C995    1.078   1_655 S
H1175  C753    1.088   1_565 S
N1177  H1044   1.028   1_655 S
N1177  N1046   1.296   1_655 S
N1179  H1029   1.029   1_655 S
