data_str_m2_o10_o17_pcu_sym.36
_audit_creation_date              2020-01-03
_audit_creation_method            'Materials Studio'
_symmetry_space_group_name_H-M    'P1'
_symmetry_Int_Tables_number       1
_symmetry_cell_setting            triclinic
loop_
_symmetry_equiv_pos_as_xyz
  x,y,z
_cell_length_a                    30.0977
_cell_length_b                    26.2032
_cell_length_c                    22.7236
_cell_angle_alpha                 102.4792
_cell_angle_beta                  94.6568
_cell_angle_gamma                 93.1602
loop_
_atom_site_label
_atom_site_type_symbol
_atom_site_fract_x
_atom_site_fract_y
_atom_site_fract_z
_atom_site_U_iso_or_equiv
_atom_site_adp_type
_atom_site_occupancy
C1     C     0.24870   0.06682   0.15133   0.00000  Uiso   1.00
C2     C     0.08802   0.11647   0.14662   0.00000  Uiso   1.00
C3     C     0.38385   0.17237   0.16465   0.00000  Uiso   1.00
C4     C     0.11612   0.16287   0.16825   0.00000  Uiso   1.00
C5     C     0.40186   0.13035   0.12714   0.00000  Uiso   1.00
C6     C     0.09820   0.20998   0.19307   0.00000  Uiso   1.00
C7     C     0.44823   0.12816   0.12876   0.00000  Uiso   1.00
C8     C     0.05175   0.21300   0.18993   0.00000  Uiso   1.00
C9     C     0.47660   0.17177   0.16003   0.00000  Uiso   1.00
C10    C     0.02326   0.16868   0.16128   0.00000  Uiso   1.00
C11    C     0.45840   0.21758   0.19184   0.00000  Uiso   1.00
C12    C     0.25082   0.26647   0.18202   0.00000  Uiso   1.00
C13    C     0.04135   0.12019   0.13812   0.00000  Uiso   1.00
C14    C     0.46627   0.08149   0.10250   0.00000  Uiso   1.00
C15    C     0.03371   0.25985   0.21525   0.00000  Uiso   1.00
C16    C     0.37378   0.29059   0.21527   0.00000  Uiso   1.00
C17    C     0.36450   0.00399   0.26464   0.00000  Uiso   1.00
C18    C     0.12700   0.04594   0.10527   0.00000  Uiso   1.00
C19    C     0.13047   0.32140   0.10496   0.00000  Uiso   1.00
C20    C     0.35691   0.05504   0.11491   0.00000  Uiso   1.00
C21    C     0.13252   0.25198   0.28512   0.00000  Uiso   1.00
C22    C     0.00699   0.32369   0.04451   0.00000  Uiso   1.00
C23    C     0.01250   0.07591   0.10855   0.00000  Uiso   1.00
C24    C     0.48387   0.27981   0.06761   0.00000  Uiso   1.00
C25    C     0.49442   0.02240   0.23835   0.00000  Uiso   1.00
C26    C     0.46652   0.06947   0.25185   0.00000  Uiso   1.00
C27    C     0.17821   0.09604   0.31886   0.00000  Uiso   1.00
C28    C     0.15877   0.04925   0.27072   0.00000  Uiso   1.00
C29    C     0.32861   0.22565   0.00615   0.00000  Uiso   1.00
C30    C     0.36119   0.25756   0.05682   0.00000  Uiso   1.00
C31    C     0.48725   0.26332   0.21661   0.00000  Uiso   1.00
C32    C     0.24784   0.01086   0.14285   0.00000  Uiso   1.00
C33    C     0.25158   0.32241   0.19049   0.00000  Uiso   1.00
C34    C     0.16457   0.16339   0.16690   0.00000  Uiso   1.00
C35    C     0.33539   0.17036   0.16658   0.00000  Uiso   1.00
C36    C     0.41179   0.21598   0.19795   0.00000  Uiso   1.00
Cu37   Cu    0.25500   0.17246   0.22813   0.00000  Uiso   1.00
Cu38   Cu    0.24499   0.16087   0.10521   0.00000  Uiso   1.00
H39    H     0.44367   0.04802   0.08181   0.00000  Uiso   1.00
H40    H     0.16136   0.06414   0.11302   0.00000  Uiso   1.00
H41    H     0.11083   0.04946   0.06055   0.00000  Uiso   1.00
H42    H     0.09742   0.29922   0.09173   0.00000  Uiso   1.00
H43    H     0.15445   0.30485   0.07280   0.00000  Uiso   1.00
H44    H     0.14312   0.31631   0.15029   0.00000  Uiso   1.00
H45    H     0.38316   0.02949   0.12490   0.00000  Uiso   1.00
H46    H     0.32967   0.03095   0.08380   0.00000  Uiso   1.00
H47    H     0.34249   0.07195   0.15755   0.00000  Uiso   1.00
H48    H     0.12782   0.21232   0.29525   0.00000  Uiso   1.00
H49    H     0.10915   0.27802   0.30989   0.00000  Uiso   1.00
H50    H     0.05636   0.29361   0.23506   0.00000  Uiso   1.00
H51    H     0.16720   0.26722   0.30301   0.00000  Uiso   1.00
H52    H     0.03166   0.30604   0.01394   0.00000  Uiso   1.00
H53    H     0.48286   0.00734   0.01654   0.00000  Uiso   1.00
H54    H     0.46510   0.25133   0.02908   0.00000  Uiso   1.00
H55    H     0.00919   0.25900   0.08960   0.00000  Uiso   1.00
H56    H     0.46023   0.29581   0.10069   0.00000  Uiso   1.00
H57    H     0.00539   0.01881   0.19247   0.00000  Uiso   1.00
H58    H     0.02406   0.03063   0.27233   0.00000  Uiso   1.00
H59    H     0.45636   0.07541   0.29855   0.00000  Uiso   1.00
H60    H     0.48660   0.10527   0.24820   0.00000  Uiso   1.00
H61    H     0.24408   0.32074   0.09676   0.00000  Uiso   1.00
H62    H     0.43630   0.06366   0.21916   0.00000  Uiso   1.00
H63    H     0.15820   0.13008   0.31589   0.00000  Uiso   1.00
H64    H     0.17651   0.08594   0.02962   0.00000  Uiso   1.00
H65    H     0.17632   0.01425   0.27599   0.00000  Uiso   1.00
H66    H     0.12244   0.04207   0.27401   0.00000  Uiso   1.00
H67    H     0.16451   0.05702   0.22599   0.00000  Uiso   1.00
H68    H     0.32608   0.24643   0.30216   0.00000  Uiso   1.00
H69    H     0.34236   0.18672   0.32496   0.00000  Uiso   1.00
H70    H     0.38138   0.23139   0.07854   0.00000  Uiso   1.00
H71    H     0.38429   0.28358   0.03875   0.00000  Uiso   1.00
H72    H     0.25550   0.01254   0.23656   0.00000  Uiso   1.00
H73    H     0.34252   0.28139   0.09128   0.00000  Uiso   1.00
H74    H     0.34154   0.27363   0.18994   0.00000  Uiso   1.00
H75    H     0.39531   0.30500   0.18395   0.00000  Uiso   1.00
H76    H     0.39381   0.01530   0.29884   0.00000  Uiso   1.00
H77    H     0.35715   0.03792   0.24458   0.00000  Uiso   1.00
H78    H     0.33515   0.32794   0.28785   0.00000  Uiso   1.00
N79    N     0.23744   0.15214   0.01284   0.00000  Uiso   1.00
N80    N     0.26255   0.18119   0.32049   0.00000  Uiso   1.00
O81    O     0.25325   0.09538   0.20659   0.00000  Uiso   1.00
O82    O     0.10306   0.06882   0.15361   0.00000  Uiso   1.00
O83    O     0.37411   0.09306   0.08582   0.00000  Uiso   1.00
O84    O     0.12682   0.25253   0.22283   0.00000  Uiso   1.00
O85    O     0.03067   0.02738   0.09293   0.00000  Uiso   1.00
O86    O     0.46894   0.30978   0.24271   0.00000  Uiso   1.00
O87    O     0.22282   0.10614   0.30932   0.00000  Uiso   1.00
O88    O     0.28625   0.22081   0.02666   0.00000  Uiso   1.00
O89    O     0.24674   0.23796   0.12674   0.00000  Uiso   1.00
O90    O     0.24480   0.08559   0.10279   0.00000  Uiso   1.00
O91    O     0.25520   0.24774   0.23055   0.00000  Uiso   1.00
O92    O     0.18935   0.17155   0.21857   0.00000  Uiso   1.00
O93    O     0.31064   0.16179   0.11476   0.00000  Uiso   1.00
O94    O     0.18090   0.16176   0.11477   0.00000  Uiso   1.00
O95    O     0.31910   0.17157   0.21857   0.00000  Uiso   1.00
O96    O     0.39480   0.25315   0.24197   0.00000  Uiso   1.00
C97    C     0.74870   0.06682   0.15133   0.00000  Uiso   1.00
C98    C     0.58802   0.11647   0.14662   0.00000  Uiso   1.00
C99    C     0.88385   0.17237   0.16465   0.00000  Uiso   1.00
C100   C     0.61612   0.16287   0.16825   0.00000  Uiso   1.00
C101   C     0.90186   0.13035   0.12714   0.00000  Uiso   1.00
C102   C     0.59820   0.20998   0.19307   0.00000  Uiso   1.00
C103   C     0.94823   0.12816   0.12876   0.00000  Uiso   1.00
C104   C     0.55175   0.21300   0.18993   0.00000  Uiso   1.00
C105   C     0.97660   0.17177   0.16003   0.00000  Uiso   1.00
C106   C     0.52326   0.16868   0.16128   0.00000  Uiso   1.00
C107   C     0.95840   0.21758   0.19184   0.00000  Uiso   1.00
C108   C     0.75082   0.26647   0.18202   0.00000  Uiso   1.00
C109   C     0.54135   0.12019   0.13812   0.00000  Uiso   1.00
C110   C     0.96627   0.08149   0.10250   0.00000  Uiso   1.00
C111   C     0.53371   0.25985   0.21525   0.00000  Uiso   1.00
C112   C     0.87378   0.29059   0.21527   0.00000  Uiso   1.00
C113   C     0.86450   0.00399   0.26464   0.00000  Uiso   1.00
C114   C     0.62700   0.04594   0.10527   0.00000  Uiso   1.00
C115   C     0.63047   0.32140   0.10496   0.00000  Uiso   1.00
C116   C     0.85691   0.05504   0.11491   0.00000  Uiso   1.00
C117   C     0.63252   0.25198   0.28512   0.00000  Uiso   1.00
C118   C     0.50699   0.32369   0.04451   0.00000  Uiso   1.00
C119   C     0.51250   0.07591   0.10855   0.00000  Uiso   1.00
C120   C     0.98387   0.27981   0.06761   0.00000  Uiso   1.00
C121   C     0.99442   0.02240   0.23835   0.00000  Uiso   1.00
C122   C     0.96652   0.06947   0.25185   0.00000  Uiso   1.00
C123   C     0.67821   0.09604   0.31886   0.00000  Uiso   1.00
C124   C     0.65877   0.04925   0.27072   0.00000  Uiso   1.00
C125   C     0.82861   0.22565   0.00615   0.00000  Uiso   1.00
C126   C     0.86119   0.25756   0.05682   0.00000  Uiso   1.00
C127   C     0.98725   0.26332   0.21661   0.00000  Uiso   1.00
C128   C     0.74784   0.01086   0.14285   0.00000  Uiso   1.00
C129   C     0.75158   0.32241   0.19049   0.00000  Uiso   1.00
C130   C     0.66457   0.16339   0.16690   0.00000  Uiso   1.00
C131   C     0.83539   0.17036   0.16658   0.00000  Uiso   1.00
C132   C     0.91179   0.21598   0.19795   0.00000  Uiso   1.00
Cu133  Cu    0.75500   0.17246   0.22813   0.00000  Uiso   1.00
Cu134  Cu    0.74499   0.16087   0.10521   0.00000  Uiso   1.00
H135   H     0.94367   0.04802   0.08181   0.00000  Uiso   1.00
H136   H     0.66136   0.06414   0.11302   0.00000  Uiso   1.00
H137   H     0.61083   0.04946   0.06055   0.00000  Uiso   1.00
H138   H     0.59742   0.29922   0.09173   0.00000  Uiso   1.00
H139   H     0.65445   0.30485   0.07280   0.00000  Uiso   1.00
H140   H     0.64312   0.31631   0.15029   0.00000  Uiso   1.00
H141   H     0.88316   0.02949   0.12490   0.00000  Uiso   1.00
H142   H     0.82967   0.03095   0.08380   0.00000  Uiso   1.00
H143   H     0.84249   0.07195   0.15755   0.00000  Uiso   1.00
H144   H     0.62782   0.21232   0.29525   0.00000  Uiso   1.00
H145   H     0.60915   0.27802   0.30989   0.00000  Uiso   1.00
H146   H     0.55636   0.29361   0.23506   0.00000  Uiso   1.00
H147   H     0.66720   0.26722   0.30301   0.00000  Uiso   1.00
H148   H     0.53166   0.30604   0.01394   0.00000  Uiso   1.00
H149   H     0.98286   0.00734   0.01654   0.00000  Uiso   1.00
H150   H     0.96510   0.25133   0.02908   0.00000  Uiso   1.00
H151   H     0.50919   0.25900   0.08960   0.00000  Uiso   1.00
H152   H     0.96023   0.29581   0.10069   0.00000  Uiso   1.00
H153   H     0.50539   0.01881   0.19247   0.00000  Uiso   1.00
H154   H     0.52406   0.03063   0.27233   0.00000  Uiso   1.00
H155   H     0.95636   0.07541   0.29855   0.00000  Uiso   1.00
H156   H     0.98660   0.10527   0.24820   0.00000  Uiso   1.00
H157   H     0.74408   0.32074   0.09676   0.00000  Uiso   1.00
H158   H     0.93630   0.06366   0.21916   0.00000  Uiso   1.00
H159   H     0.65820   0.13008   0.31589   0.00000  Uiso   1.00
H160   H     0.67651   0.08594   0.02962   0.00000  Uiso   1.00
H161   H     0.67632   0.01425   0.27599   0.00000  Uiso   1.00
H162   H     0.62244   0.04207   0.27401   0.00000  Uiso   1.00
H163   H     0.66451   0.05702   0.22599   0.00000  Uiso   1.00
H164   H     0.82608   0.24643   0.30216   0.00000  Uiso   1.00
H165   H     0.84236   0.18672   0.32496   0.00000  Uiso   1.00
H166   H     0.88138   0.23139   0.07854   0.00000  Uiso   1.00
H167   H     0.88429   0.28358   0.03875   0.00000  Uiso   1.00
H168   H     0.75550   0.01254   0.23656   0.00000  Uiso   1.00
H169   H     0.84252   0.28139   0.09128   0.00000  Uiso   1.00
H170   H     0.84154   0.27363   0.18994   0.00000  Uiso   1.00
H171   H     0.89531   0.30500   0.18395   0.00000  Uiso   1.00
H172   H     0.89381   0.01530   0.29884   0.00000  Uiso   1.00
H173   H     0.85715   0.03792   0.24458   0.00000  Uiso   1.00
H174   H     0.83515   0.32794   0.28785   0.00000  Uiso   1.00
N175   N     0.73744   0.15214   0.01284   0.00000  Uiso   1.00
N176   N     0.76255   0.18119   0.32049   0.00000  Uiso   1.00
O177   O     0.75325   0.09538   0.20659   0.00000  Uiso   1.00
O178   O     0.60306   0.06882   0.15361   0.00000  Uiso   1.00
O179   O     0.87411   0.09306   0.08582   0.00000  Uiso   1.00
O180   O     0.62682   0.25253   0.22283   0.00000  Uiso   1.00
O181   O     0.53067   0.02738   0.09293   0.00000  Uiso   1.00
O182   O     0.96894   0.30978   0.24271   0.00000  Uiso   1.00
O183   O     0.72282   0.10614   0.30932   0.00000  Uiso   1.00
O184   O     0.78625   0.22081   0.02666   0.00000  Uiso   1.00
O185   O     0.74674   0.23796   0.12674   0.00000  Uiso   1.00
O186   O     0.74480   0.08559   0.10279   0.00000  Uiso   1.00
O187   O     0.75520   0.24774   0.23055   0.00000  Uiso   1.00
O188   O     0.68935   0.17155   0.21857   0.00000  Uiso   1.00
O189   O     0.81064   0.16179   0.11476   0.00000  Uiso   1.00
O190   O     0.68090   0.16176   0.11477   0.00000  Uiso   1.00
O191   O     0.81910   0.17157   0.21857   0.00000  Uiso   1.00
O192   O     0.89480   0.25315   0.24197   0.00000  Uiso   1.00
C193   C     0.24870   0.40016   0.15133   0.00000  Uiso   1.00
C194   C     0.08802   0.44981   0.14662   0.00000  Uiso   1.00
C195   C     0.38385   0.50570   0.16465   0.00000  Uiso   1.00
C196   C     0.11612   0.49620   0.16825   0.00000  Uiso   1.00
C197   C     0.40186   0.46369   0.12714   0.00000  Uiso   1.00
C198   C     0.09820   0.54332   0.19307   0.00000  Uiso   1.00
C199   C     0.44823   0.46149   0.12876   0.00000  Uiso   1.00
C200   C     0.05175   0.54634   0.18993   0.00000  Uiso   1.00
C201   C     0.47660   0.50510   0.16003   0.00000  Uiso   1.00
C202   C     0.02326   0.50201   0.16128   0.00000  Uiso   1.00
C203   C     0.45840   0.55092   0.19184   0.00000  Uiso   1.00
C204   C     0.25082   0.59981   0.18202   0.00000  Uiso   1.00
C205   C     0.04135   0.45352   0.13812   0.00000  Uiso   1.00
C206   C     0.46627   0.41482   0.10250   0.00000  Uiso   1.00
C207   C     0.03371   0.59318   0.21525   0.00000  Uiso   1.00
C208   C     0.37378   0.62393   0.21527   0.00000  Uiso   1.00
C209   C     0.36450   0.33733   0.26464   0.00000  Uiso   1.00
C210   C     0.12700   0.37927   0.10527   0.00000  Uiso   1.00
C211   C     0.13047   0.65473   0.10496   0.00000  Uiso   1.00
C212   C     0.35691   0.38837   0.11491   0.00000  Uiso   1.00
C213   C     0.13252   0.58531   0.28512   0.00000  Uiso   1.00
C214   C     0.00699   0.65702   0.04451   0.00000  Uiso   1.00
C215   C     0.01250   0.40925   0.10855   0.00000  Uiso   1.00
C216   C     0.48387   0.61314   0.06761   0.00000  Uiso   1.00
C217   C     0.49442   0.35573   0.23835   0.00000  Uiso   1.00
C218   C     0.46652   0.40281   0.25185   0.00000  Uiso   1.00
C219   C     0.17821   0.42938   0.31886   0.00000  Uiso   1.00
C220   C     0.15877   0.38259   0.27072   0.00000  Uiso   1.00
C221   C     0.32861   0.55899   0.00615   0.00000  Uiso   1.00
C222   C     0.36119   0.59089   0.05682   0.00000  Uiso   1.00
C223   C     0.48725   0.59665   0.21661   0.00000  Uiso   1.00
C224   C     0.24784   0.34419   0.14285   0.00000  Uiso   1.00
C225   C     0.25158   0.65575   0.19049   0.00000  Uiso   1.00
C226   C     0.16457   0.49673   0.16690   0.00000  Uiso   1.00
C227   C     0.33539   0.50369   0.16658   0.00000  Uiso   1.00
C228   C     0.41179   0.54931   0.19795   0.00000  Uiso   1.00
Cu229  Cu    0.25500   0.50579   0.22813   0.00000  Uiso   1.00
Cu230  Cu    0.24499   0.49421   0.10521   0.00000  Uiso   1.00
H231   H     0.44367   0.38136   0.08181   0.00000  Uiso   1.00
H232   H     0.16136   0.39747   0.11302   0.00000  Uiso   1.00
H233   H     0.11083   0.38279   0.06055   0.00000  Uiso   1.00
H234   H     0.09742   0.63255   0.09173   0.00000  Uiso   1.00
H235   H     0.15445   0.63819   0.07280   0.00000  Uiso   1.00
H236   H     0.14312   0.64964   0.15029   0.00000  Uiso   1.00
H237   H     0.38316   0.36283   0.12490   0.00000  Uiso   1.00
H238   H     0.32967   0.36429   0.08380   0.00000  Uiso   1.00
H239   H     0.34249   0.40529   0.15755   0.00000  Uiso   1.00
H240   H     0.12782   0.54565   0.29525   0.00000  Uiso   1.00
H241   H     0.10915   0.61135   0.30989   0.00000  Uiso   1.00
H242   H     0.05636   0.62695   0.23506   0.00000  Uiso   1.00
H243   H     0.16720   0.60055   0.30301   0.00000  Uiso   1.00
H244   H     0.03166   0.63937   0.01394   0.00000  Uiso   1.00
H245   H     0.48286   0.34067   0.01654   0.00000  Uiso   1.00
H246   H     0.46510   0.58466   0.02908   0.00000  Uiso   1.00
H247   H     0.00919   0.59234   0.08960   0.00000  Uiso   1.00
H248   H     0.46023   0.62915   0.10069   0.00000  Uiso   1.00
H249   H     0.00539   0.35215   0.19247   0.00000  Uiso   1.00
H250   H     0.02406   0.36396   0.27233   0.00000  Uiso   1.00
H251   H     0.45636   0.40874   0.29855   0.00000  Uiso   1.00
H252   H     0.48660   0.43860   0.24820   0.00000  Uiso   1.00
H253   H     0.24408   0.65407   0.09676   0.00000  Uiso   1.00
H254   H     0.43630   0.39700   0.21916   0.00000  Uiso   1.00
H255   H     0.15820   0.46341   0.31589   0.00000  Uiso   1.00
H256   H     0.17651   0.41927   0.02962   0.00000  Uiso   1.00
H257   H     0.17632   0.34759   0.27599   0.00000  Uiso   1.00
H258   H     0.12244   0.37540   0.27401   0.00000  Uiso   1.00
H259   H     0.16451   0.39035   0.22599   0.00000  Uiso   1.00
H260   H     0.32608   0.57976   0.30216   0.00000  Uiso   1.00
H261   H     0.34236   0.52005   0.32496   0.00000  Uiso   1.00
H262   H     0.38138   0.56472   0.07854   0.00000  Uiso   1.00
H263   H     0.38429   0.61691   0.03875   0.00000  Uiso   1.00
H264   H     0.25550   0.34588   0.23656   0.00000  Uiso   1.00
H265   H     0.34252   0.61473   0.09128   0.00000  Uiso   1.00
H266   H     0.34154   0.60696   0.18994   0.00000  Uiso   1.00
H267   H     0.39531   0.63834   0.18395   0.00000  Uiso   1.00
H268   H     0.39381   0.34863   0.29884   0.00000  Uiso   1.00
H269   H     0.35715   0.37126   0.24458   0.00000  Uiso   1.00
H270   H     0.33515   0.66128   0.28785   0.00000  Uiso   1.00
N271   N     0.23744   0.48547   0.01284   0.00000  Uiso   1.00
N272   N     0.26255   0.51453   0.32049   0.00000  Uiso   1.00
O273   O     0.25325   0.42871   0.20659   0.00000  Uiso   1.00
O274   O     0.10306   0.40216   0.15361   0.00000  Uiso   1.00
O275   O     0.37411   0.42639   0.08582   0.00000  Uiso   1.00
O276   O     0.12682   0.58586   0.22283   0.00000  Uiso   1.00
O277   O     0.03067   0.36071   0.09293   0.00000  Uiso   1.00
O278   O     0.46894   0.64311   0.24271   0.00000  Uiso   1.00
O279   O     0.22282   0.43948   0.30932   0.00000  Uiso   1.00
O280   O     0.28625   0.55415   0.02666   0.00000  Uiso   1.00
O281   O     0.24674   0.57129   0.12674   0.00000  Uiso   1.00
O282   O     0.24480   0.41892   0.10279   0.00000  Uiso   1.00
O283   O     0.25520   0.58108   0.23055   0.00000  Uiso   1.00
O284   O     0.18935   0.50488   0.21857   0.00000  Uiso   1.00
O285   O     0.31064   0.49512   0.11476   0.00000  Uiso   1.00
O286   O     0.18090   0.49510   0.11477   0.00000  Uiso   1.00
O287   O     0.31910   0.50490   0.21857   0.00000  Uiso   1.00
O288   O     0.39480   0.58649   0.24197   0.00000  Uiso   1.00
C289   C     0.74870   0.40016   0.15133   0.00000  Uiso   1.00
C290   C     0.58802   0.44981   0.14662   0.00000  Uiso   1.00
C291   C     0.88385   0.50570   0.16465   0.00000  Uiso   1.00
C292   C     0.61612   0.49620   0.16825   0.00000  Uiso   1.00
C293   C     0.90186   0.46369   0.12714   0.00000  Uiso   1.00
C294   C     0.59820   0.54332   0.19307   0.00000  Uiso   1.00
C295   C     0.94823   0.46149   0.12876   0.00000  Uiso   1.00
C296   C     0.55175   0.54634   0.18993   0.00000  Uiso   1.00
C297   C     0.97660   0.50510   0.16003   0.00000  Uiso   1.00
C298   C     0.52326   0.50201   0.16128   0.00000  Uiso   1.00
C299   C     0.95840   0.55092   0.19184   0.00000  Uiso   1.00
C300   C     0.75082   0.59981   0.18202   0.00000  Uiso   1.00
C301   C     0.54135   0.45352   0.13812   0.00000  Uiso   1.00
C302   C     0.96627   0.41482   0.10250   0.00000  Uiso   1.00
C303   C     0.53371   0.59318   0.21525   0.00000  Uiso   1.00
C304   C     0.87378   0.62393   0.21527   0.00000  Uiso   1.00
C305   C     0.86450   0.33733   0.26464   0.00000  Uiso   1.00
C306   C     0.62700   0.37927   0.10527   0.00000  Uiso   1.00
C307   C     0.63047   0.65473   0.10496   0.00000  Uiso   1.00
C308   C     0.85691   0.38837   0.11491   0.00000  Uiso   1.00
C309   C     0.63252   0.58531   0.28512   0.00000  Uiso   1.00
C310   C     0.50699   0.65702   0.04451   0.00000  Uiso   1.00
C311   C     0.51250   0.40925   0.10855   0.00000  Uiso   1.00
C312   C     0.98387   0.61314   0.06761   0.00000  Uiso   1.00
C313   C     0.99442   0.35573   0.23835   0.00000  Uiso   1.00
C314   C     0.96652   0.40281   0.25185   0.00000  Uiso   1.00
C315   C     0.67821   0.42938   0.31886   0.00000  Uiso   1.00
C316   C     0.65877   0.38259   0.27072   0.00000  Uiso   1.00
C317   C     0.82861   0.55899   0.00615   0.00000  Uiso   1.00
C318   C     0.86119   0.59089   0.05682   0.00000  Uiso   1.00
C319   C     0.98725   0.59665   0.21661   0.00000  Uiso   1.00
C320   C     0.74784   0.34419   0.14285   0.00000  Uiso   1.00
C321   C     0.75158   0.65575   0.19049   0.00000  Uiso   1.00
C322   C     0.66457   0.49673   0.16690   0.00000  Uiso   1.00
C323   C     0.83539   0.50369   0.16658   0.00000  Uiso   1.00
C324   C     0.91179   0.54931   0.19795   0.00000  Uiso   1.00
Cu325  Cu    0.75500   0.50579   0.22813   0.00000  Uiso   1.00
Cu326  Cu    0.74499   0.49421   0.10521   0.00000  Uiso   1.00
H327   H     0.94367   0.38136   0.08181   0.00000  Uiso   1.00
H328   H     0.66136   0.39747   0.11302   0.00000  Uiso   1.00
H329   H     0.61083   0.38279   0.06055   0.00000  Uiso   1.00
H330   H     0.59742   0.63255   0.09173   0.00000  Uiso   1.00
H331   H     0.65445   0.63819   0.07280   0.00000  Uiso   1.00
H332   H     0.64312   0.64964   0.15029   0.00000  Uiso   1.00
H333   H     0.88316   0.36283   0.12490   0.00000  Uiso   1.00
H334   H     0.82967   0.36429   0.08380   0.00000  Uiso   1.00
H335   H     0.84249   0.40529   0.15755   0.00000  Uiso   1.00
H336   H     0.62782   0.54565   0.29525   0.00000  Uiso   1.00
H337   H     0.60915   0.61135   0.30989   0.00000  Uiso   1.00
H338   H     0.55636   0.62695   0.23506   0.00000  Uiso   1.00
H339   H     0.66720   0.60055   0.30301   0.00000  Uiso   1.00
H340   H     0.53166   0.63937   0.01394   0.00000  Uiso   1.00
H341   H     0.98286   0.34067   0.01654   0.00000  Uiso   1.00
H342   H     0.96510   0.58466   0.02908   0.00000  Uiso   1.00
H343   H     0.50919   0.59234   0.08960   0.00000  Uiso   1.00
H344   H     0.96023   0.62915   0.10069   0.00000  Uiso   1.00
H345   H     0.50539   0.35215   0.19247   0.00000  Uiso   1.00
H346   H     0.52406   0.36396   0.27233   0.00000  Uiso   1.00
H347   H     0.95636   0.40874   0.29855   0.00000  Uiso   1.00
H348   H     0.98660   0.43860   0.24820   0.00000  Uiso   1.00
H349   H     0.74408   0.65407   0.09676   0.00000  Uiso   1.00
H350   H     0.93630   0.39700   0.21916   0.00000  Uiso   1.00
H351   H     0.65820   0.46341   0.31589   0.00000  Uiso   1.00
H352   H     0.67651   0.41927   0.02962   0.00000  Uiso   1.00
H353   H     0.67632   0.34759   0.27599   0.00000  Uiso   1.00
H354   H     0.62244   0.37540   0.27401   0.00000  Uiso   1.00
H355   H     0.66451   0.39035   0.22599   0.00000  Uiso   1.00
H356   H     0.82608   0.57976   0.30216   0.00000  Uiso   1.00
H357   H     0.84236   0.52005   0.32496   0.00000  Uiso   1.00
H358   H     0.88138   0.56472   0.07854   0.00000  Uiso   1.00
H359   H     0.88429   0.61691   0.03875   0.00000  Uiso   1.00
H360   H     0.75550   0.34588   0.23656   0.00000  Uiso   1.00
H361   H     0.84252   0.61473   0.09128   0.00000  Uiso   1.00
H362   H     0.84154   0.60696   0.18994   0.00000  Uiso   1.00
H363   H     0.89531   0.63834   0.18395   0.00000  Uiso   1.00
H364   H     0.89381   0.34863   0.29884   0.00000  Uiso   1.00
H365   H     0.85715   0.37126   0.24458   0.00000  Uiso   1.00
H366   H     0.83515   0.66128   0.28785   0.00000  Uiso   1.00
N367   N     0.73744   0.48547   0.01284   0.00000  Uiso   1.00
N368   N     0.76255   0.51453   0.32049   0.00000  Uiso   1.00
O369   O     0.75325   0.42871   0.20659   0.00000  Uiso   1.00
O370   O     0.60306   0.40216   0.15361   0.00000  Uiso   1.00
O371   O     0.87411   0.42639   0.08582   0.00000  Uiso   1.00
O372   O     0.62682   0.58586   0.22283   0.00000  Uiso   1.00
O373   O     0.53067   0.36071   0.09293   0.00000  Uiso   1.00
O374   O     0.96894   0.64311   0.24271   0.00000  Uiso   1.00
O375   O     0.72282   0.43948   0.30932   0.00000  Uiso   1.00
O376   O     0.78625   0.55415   0.02666   0.00000  Uiso   1.00
O377   O     0.74674   0.57129   0.12674   0.00000  Uiso   1.00
O378   O     0.74480   0.41892   0.10279   0.00000  Uiso   1.00
O379   O     0.75520   0.58108   0.23055   0.00000  Uiso   1.00
O380   O     0.68935   0.50488   0.21857   0.00000  Uiso   1.00
O381   O     0.81064   0.49512   0.11476   0.00000  Uiso   1.00
O382   O     0.68090   0.49510   0.11477   0.00000  Uiso   1.00
O383   O     0.81910   0.50490   0.21857   0.00000  Uiso   1.00
O384   O     0.89480   0.58649   0.24197   0.00000  Uiso   1.00
C385   C     0.24870   0.73349   0.15133   0.00000  Uiso   1.00
C386   C     0.08802   0.78314   0.14662   0.00000  Uiso   1.00
C387   C     0.38385   0.83904   0.16465   0.00000  Uiso   1.00
C388   C     0.11612   0.82953   0.16825   0.00000  Uiso   1.00
C389   C     0.40186   0.79702   0.12714   0.00000  Uiso   1.00
C390   C     0.09820   0.87665   0.19307   0.00000  Uiso   1.00
C391   C     0.44823   0.79482   0.12876   0.00000  Uiso   1.00
C392   C     0.05175   0.87967   0.18993   0.00000  Uiso   1.00
C393   C     0.47660   0.83844   0.16003   0.00000  Uiso   1.00
C394   C     0.02326   0.83535   0.16128   0.00000  Uiso   1.00
C395   C     0.45840   0.88425   0.19184   0.00000  Uiso   1.00
C396   C     0.25082   0.93314   0.18202   0.00000  Uiso   1.00
C397   C     0.04135   0.78686   0.13812   0.00000  Uiso   1.00
C398   C     0.46627   0.74816   0.10250   0.00000  Uiso   1.00
C399   C     0.03371   0.92651   0.21525   0.00000  Uiso   1.00
C400   C     0.37378   0.95726   0.21527   0.00000  Uiso   1.00
C401   C     0.36450   0.67066   0.26464   0.00000  Uiso   1.00
C402   C     0.12700   0.71260   0.10527   0.00000  Uiso   1.00
C403   C     0.13047   0.98806   0.10496   0.00000  Uiso   1.00
C404   C     0.35691   0.72171   0.11491   0.00000  Uiso   1.00
C405   C     0.13252   0.91865   0.28512   0.00000  Uiso   1.00
C406   C     0.00699   0.99035   0.04451   0.00000  Uiso   1.00
C407   C     0.01250   0.74258   0.10855   0.00000  Uiso   1.00
C408   C     0.48387   0.94648   0.06761   0.00000  Uiso   1.00
C409   C     0.49442   0.68906   0.23835   0.00000  Uiso   1.00
C410   C     0.46652   0.73614   0.25185   0.00000  Uiso   1.00
C411   C     0.17821   0.76271   0.31886   0.00000  Uiso   1.00
C412   C     0.15877   0.71592   0.27072   0.00000  Uiso   1.00
C413   C     0.32861   0.89232   0.00615   0.00000  Uiso   1.00
C414   C     0.36119   0.92423   0.05682   0.00000  Uiso   1.00
C415   C     0.48725   0.92999   0.21661   0.00000  Uiso   1.00
C416   C     0.24784   0.67753   0.14285   0.00000  Uiso   1.00
C417   C     0.25158   0.98908   0.19049   0.00000  Uiso   1.00
C418   C     0.16457   0.83006   0.16690   0.00000  Uiso   1.00
C419   C     0.33539   0.83703   0.16658   0.00000  Uiso   1.00
C420   C     0.41179   0.88265   0.19795   0.00000  Uiso   1.00
Cu421  Cu    0.25500   0.83913   0.22813   0.00000  Uiso   1.00
Cu422  Cu    0.24499   0.82754   0.10521   0.00000  Uiso   1.00
H423   H     0.44367   0.71469   0.08181   0.00000  Uiso   1.00
H424   H     0.16136   0.73080   0.11302   0.00000  Uiso   1.00
H425   H     0.11083   0.71613   0.06055   0.00000  Uiso   1.00
H426   H     0.09742   0.96589   0.09173   0.00000  Uiso   1.00
H427   H     0.15445   0.97152   0.07280   0.00000  Uiso   1.00
H428   H     0.14312   0.98297   0.15029   0.00000  Uiso   1.00
H429   H     0.38316   0.69616   0.12490   0.00000  Uiso   1.00
H430   H     0.32967   0.69762   0.08380   0.00000  Uiso   1.00
H431   H     0.34249   0.73862   0.15755   0.00000  Uiso   1.00
H432   H     0.12782   0.87898   0.29525   0.00000  Uiso   1.00
H433   H     0.10915   0.94468   0.30989   0.00000  Uiso   1.00
H434   H     0.05636   0.96028   0.23506   0.00000  Uiso   1.00
H435   H     0.16720   0.93389   0.30301   0.00000  Uiso   1.00
H436   H     0.03166   0.97271   0.01394   0.00000  Uiso   1.00
H437   H     0.48286   0.67401   0.01654   0.00000  Uiso   1.00
H438   H     0.46510   0.91799   0.02908   0.00000  Uiso   1.00
H439   H     0.00919   0.92567   0.08960   0.00000  Uiso   1.00
H440   H     0.46023   0.96248   0.10069   0.00000  Uiso   1.00
H441   H     0.00539   0.68548   0.19247   0.00000  Uiso   1.00
H442   H     0.02406   0.69729   0.27233   0.00000  Uiso   1.00
H443   H     0.45636   0.74207   0.29855   0.00000  Uiso   1.00
H444   H     0.48660   0.77194   0.24820   0.00000  Uiso   1.00
H445   H     0.24408   0.98740   0.09676   0.00000  Uiso   1.00
H446   H     0.43630   0.73033   0.21916   0.00000  Uiso   1.00
H447   H     0.15820   0.79675   0.31589   0.00000  Uiso   1.00
H448   H     0.17651   0.75260   0.02962   0.00000  Uiso   1.00
H449   H     0.17632   0.68092   0.27599   0.00000  Uiso   1.00
H450   H     0.12244   0.70873   0.27401   0.00000  Uiso   1.00
H451   H     0.16451   0.72369   0.22599   0.00000  Uiso   1.00
H452   H     0.32608   0.91309   0.30216   0.00000  Uiso   1.00
H453   H     0.34236   0.85339   0.32496   0.00000  Uiso   1.00
H454   H     0.38138   0.89806   0.07854   0.00000  Uiso   1.00
H455   H     0.38429   0.95025   0.03875   0.00000  Uiso   1.00
H456   H     0.25550   0.67921   0.23656   0.00000  Uiso   1.00
H457   H     0.34252   0.94806   0.09128   0.00000  Uiso   1.00
H458   H     0.34154   0.94029   0.18994   0.00000  Uiso   1.00
H459   H     0.39531   0.97167   0.18395   0.00000  Uiso   1.00
H460   H     0.39381   0.68197   0.29884   0.00000  Uiso   1.00
H461   H     0.35715   0.70459   0.24458   0.00000  Uiso   1.00
H462   H     0.33515   0.99461   0.28785   0.00000  Uiso   1.00
N463   N     0.23744   0.81881   0.01284   0.00000  Uiso   1.00
N464   N     0.26255   0.84786   0.32049   0.00000  Uiso   1.00
O465   O     0.25325   0.76204   0.20659   0.00000  Uiso   1.00
O466   O     0.10306   0.73549   0.15361   0.00000  Uiso   1.00
O467   O     0.37411   0.75972   0.08582   0.00000  Uiso   1.00
O468   O     0.12682   0.91919   0.22283   0.00000  Uiso   1.00
O469   O     0.03067   0.69404   0.09293   0.00000  Uiso   1.00
O470   O     0.46894   0.97645   0.24271   0.00000  Uiso   1.00
O471   O     0.22282   0.77281   0.30932   0.00000  Uiso   1.00
O472   O     0.28625   0.88748   0.02666   0.00000  Uiso   1.00
O473   O     0.24674   0.90462   0.12674   0.00000  Uiso   1.00
O474   O     0.24480   0.75226   0.10279   0.00000  Uiso   1.00
O475   O     0.25520   0.91441   0.23055   0.00000  Uiso   1.00
O476   O     0.18935   0.83821   0.21857   0.00000  Uiso   1.00
O477   O     0.31064   0.82845   0.11476   0.00000  Uiso   1.00
O478   O     0.18090   0.82843   0.11477   0.00000  Uiso   1.00
O479   O     0.31910   0.83824   0.21857   0.00000  Uiso   1.00
O480   O     0.39480   0.91982   0.24197   0.00000  Uiso   1.00
C481   C     0.74870   0.73349   0.15133   0.00000  Uiso   1.00
C482   C     0.58802   0.78314   0.14662   0.00000  Uiso   1.00
C483   C     0.88385   0.83904   0.16465   0.00000  Uiso   1.00
C484   C     0.61612   0.82953   0.16825   0.00000  Uiso   1.00
C485   C     0.90186   0.79702   0.12714   0.00000  Uiso   1.00
C486   C     0.59820   0.87665   0.19307   0.00000  Uiso   1.00
C487   C     0.94823   0.79482   0.12876   0.00000  Uiso   1.00
C488   C     0.55175   0.87967   0.18993   0.00000  Uiso   1.00
C489   C     0.97660   0.83844   0.16003   0.00000  Uiso   1.00
C490   C     0.52326   0.83535   0.16128   0.00000  Uiso   1.00
C491   C     0.95840   0.88425   0.19184   0.00000  Uiso   1.00
C492   C     0.75082   0.93314   0.18202   0.00000  Uiso   1.00
C493   C     0.54135   0.78686   0.13812   0.00000  Uiso   1.00
C494   C     0.96627   0.74816   0.10250   0.00000  Uiso   1.00
C495   C     0.53371   0.92651   0.21525   0.00000  Uiso   1.00
C496   C     0.87378   0.95726   0.21527   0.00000  Uiso   1.00
C497   C     0.86450   0.67066   0.26464   0.00000  Uiso   1.00
C498   C     0.62700   0.71260   0.10527   0.00000  Uiso   1.00
C499   C     0.63047   0.98806   0.10496   0.00000  Uiso   1.00
C500   C     0.85691   0.72171   0.11491   0.00000  Uiso   1.00
C501   C     0.63252   0.91865   0.28512   0.00000  Uiso   1.00
C502   C     0.50699   0.99035   0.04451   0.00000  Uiso   1.00
C503   C     0.51250   0.74258   0.10855   0.00000  Uiso   1.00
C504   C     0.98387   0.94648   0.06761   0.00000  Uiso   1.00
C505   C     0.99442   0.68906   0.23835   0.00000  Uiso   1.00
C506   C     0.96652   0.73614   0.25185   0.00000  Uiso   1.00
C507   C     0.67821   0.76271   0.31886   0.00000  Uiso   1.00
C508   C     0.65877   0.71592   0.27072   0.00000  Uiso   1.00
C509   C     0.82861   0.89232   0.00615   0.00000  Uiso   1.00
C510   C     0.86119   0.92423   0.05682   0.00000  Uiso   1.00
C511   C     0.98725   0.92999   0.21661   0.00000  Uiso   1.00
C512   C     0.74784   0.67753   0.14285   0.00000  Uiso   1.00
C513   C     0.75158   0.98908   0.19049   0.00000  Uiso   1.00
C514   C     0.66457   0.83006   0.16690   0.00000  Uiso   1.00
C515   C     0.83539   0.83703   0.16658   0.00000  Uiso   1.00
C516   C     0.91179   0.88265   0.19795   0.00000  Uiso   1.00
Cu517  Cu    0.75500   0.83913   0.22813   0.00000  Uiso   1.00
Cu518  Cu    0.74499   0.82754   0.10521   0.00000  Uiso   1.00
H519   H     0.94367   0.71469   0.08181   0.00000  Uiso   1.00
H520   H     0.66136   0.73080   0.11302   0.00000  Uiso   1.00
H521   H     0.61083   0.71613   0.06055   0.00000  Uiso   1.00
H522   H     0.59742   0.96589   0.09173   0.00000  Uiso   1.00
H523   H     0.65445   0.97152   0.07280   0.00000  Uiso   1.00
H524   H     0.64312   0.98297   0.15029   0.00000  Uiso   1.00
H525   H     0.88316   0.69616   0.12490   0.00000  Uiso   1.00
H526   H     0.82967   0.69762   0.08380   0.00000  Uiso   1.00
H527   H     0.84249   0.73862   0.15755   0.00000  Uiso   1.00
H528   H     0.62782   0.87898   0.29525   0.00000  Uiso   1.00
H529   H     0.60915   0.94468   0.30989   0.00000  Uiso   1.00
H530   H     0.55636   0.96028   0.23506   0.00000  Uiso   1.00
H531   H     0.66720   0.93389   0.30301   0.00000  Uiso   1.00
H532   H     0.53166   0.97271   0.01394   0.00000  Uiso   1.00
H533   H     0.98286   0.67401   0.01654   0.00000  Uiso   1.00
H534   H     0.96510   0.91799   0.02908   0.00000  Uiso   1.00
H535   H     0.50919   0.92567   0.08960   0.00000  Uiso   1.00
H536   H     0.96023   0.96248   0.10069   0.00000  Uiso   1.00
H537   H     0.50539   0.68548   0.19247   0.00000  Uiso   1.00
H538   H     0.52406   0.69729   0.27233   0.00000  Uiso   1.00
H539   H     0.95636   0.74207   0.29855   0.00000  Uiso   1.00
H540   H     0.98660   0.77194   0.24820   0.00000  Uiso   1.00
H541   H     0.74408   0.98740   0.09676   0.00000  Uiso   1.00
H542   H     0.93630   0.73033   0.21916   0.00000  Uiso   1.00
H543   H     0.65820   0.79675   0.31589   0.00000  Uiso   1.00
H544   H     0.67651   0.75260   0.02962   0.00000  Uiso   1.00
H545   H     0.67632   0.68092   0.27599   0.00000  Uiso   1.00
H546   H     0.62244   0.70873   0.27401   0.00000  Uiso   1.00
H547   H     0.66451   0.72369   0.22599   0.00000  Uiso   1.00
H548   H     0.82608   0.91309   0.30216   0.00000  Uiso   1.00
H549   H     0.84236   0.85339   0.32496   0.00000  Uiso   1.00
H550   H     0.88138   0.89806   0.07854   0.00000  Uiso   1.00
H551   H     0.88429   0.95025   0.03875   0.00000  Uiso   1.00
H552   H     0.75550   0.67921   0.23656   0.00000  Uiso   1.00
H553   H     0.84252   0.94806   0.09128   0.00000  Uiso   1.00
H554   H     0.84154   0.94029   0.18994   0.00000  Uiso   1.00
H555   H     0.89531   0.97167   0.18395   0.00000  Uiso   1.00
H556   H     0.89381   0.68197   0.29884   0.00000  Uiso   1.00
H557   H     0.85715   0.70459   0.24458   0.00000  Uiso   1.00
H558   H     0.83515   0.99461   0.28785   0.00000  Uiso   1.00
N559   N     0.73744   0.81881   0.01284   0.00000  Uiso   1.00
N560   N     0.76255   0.84786   0.32049   0.00000  Uiso   1.00
O561   O     0.75325   0.76204   0.20659   0.00000  Uiso   1.00
O562   O     0.60306   0.73549   0.15361   0.00000  Uiso   1.00
O563   O     0.87411   0.75972   0.08582   0.00000  Uiso   1.00
O564   O     0.62682   0.91919   0.22283   0.00000  Uiso   1.00
O565   O     0.53067   0.69404   0.09293   0.00000  Uiso   1.00
O566   O     0.96894   0.97645   0.24271   0.00000  Uiso   1.00
O567   O     0.72282   0.77281   0.30932   0.00000  Uiso   1.00
O568   O     0.78625   0.88748   0.02666   0.00000  Uiso   1.00
O569   O     0.74674   0.90462   0.12674   0.00000  Uiso   1.00
O570   O     0.74480   0.75226   0.10279   0.00000  Uiso   1.00
O571   O     0.75520   0.91441   0.23055   0.00000  Uiso   1.00
O572   O     0.68935   0.83821   0.21857   0.00000  Uiso   1.00
O573   O     0.81064   0.82845   0.11476   0.00000  Uiso   1.00
O574   O     0.68090   0.82843   0.11477   0.00000  Uiso   1.00
O575   O     0.81910   0.83824   0.21857   0.00000  Uiso   1.00
O576   O     0.89480   0.91982   0.24197   0.00000  Uiso   1.00
C577   C     0.24870   0.06682   0.48467   0.00000  Uiso   1.00
C578   C     0.08802   0.11647   0.47995   0.00000  Uiso   1.00
C579   C     0.38385   0.17237   0.49798   0.00000  Uiso   1.00
C580   C     0.11612   0.16287   0.50158   0.00000  Uiso   1.00
C581   C     0.40186   0.13035   0.46048   0.00000  Uiso   1.00
C582   C     0.09820   0.20998   0.52640   0.00000  Uiso   1.00
C583   C     0.44823   0.12816   0.46209   0.00000  Uiso   1.00
C584   C     0.05175   0.21300   0.52326   0.00000  Uiso   1.00
C585   C     0.47660   0.17177   0.49336   0.00000  Uiso   1.00
C586   C     0.02326   0.16868   0.49462   0.00000  Uiso   1.00
C587   C     0.45840   0.21758   0.52517   0.00000  Uiso   1.00
C588   C     0.25082   0.26647   0.51536   0.00000  Uiso   1.00
C589   C     0.04135   0.12019   0.47146   0.00000  Uiso   1.00
C590   C     0.46627   0.08149   0.43584   0.00000  Uiso   1.00
C591   C     0.03371   0.25985   0.54858   0.00000  Uiso   1.00
C592   C     0.37378   0.29059   0.54860   0.00000  Uiso   1.00
C593   C     0.36450   0.00399   0.59798   0.00000  Uiso   1.00
C594   C     0.12700   0.04594   0.43860   0.00000  Uiso   1.00
C595   C     0.13047   0.32140   0.43829   0.00000  Uiso   1.00
C596   C     0.35691   0.05504   0.44824   0.00000  Uiso   1.00
C597   C     0.13252   0.25198   0.61845   0.00000  Uiso   1.00
C598   C     0.00699   0.32369   0.37784   0.00000  Uiso   1.00
C599   C     0.01250   0.07591   0.44189   0.00000  Uiso   1.00
C600   C     0.48387   0.27981   0.40094   0.00000  Uiso   1.00
C601   C     0.49442   0.02240   0.57168   0.00000  Uiso   1.00
C602   C     0.46652   0.06947   0.58518   0.00000  Uiso   1.00
C603   C     0.17821   0.09604   0.65220   0.00000  Uiso   1.00
C604   C     0.15877   0.04925   0.60405   0.00000  Uiso   1.00
C605   C     0.32861   0.22565   0.33948   0.00000  Uiso   1.00
C606   C     0.36119   0.25756   0.39015   0.00000  Uiso   1.00
C607   C     0.48725   0.26332   0.54994   0.00000  Uiso   1.00
C608   C     0.24784   0.01086   0.47618   0.00000  Uiso   1.00
C609   C     0.25158   0.32241   0.52383   0.00000  Uiso   1.00
C610   C     0.16457   0.16339   0.50023   0.00000  Uiso   1.00
C611   C     0.33539   0.17036   0.49991   0.00000  Uiso   1.00
C612   C     0.41179   0.21598   0.53128   0.00000  Uiso   1.00
Cu613  Cu    0.25500   0.17246   0.56146   0.00000  Uiso   1.00
Cu614  Cu    0.24499   0.16087   0.43854   0.00000  Uiso   1.00
H615   H     0.44367   0.04802   0.41515   0.00000  Uiso   1.00
H616   H     0.16136   0.06414   0.44636   0.00000  Uiso   1.00
H617   H     0.11083   0.04946   0.39389   0.00000  Uiso   1.00
H618   H     0.09742   0.29922   0.42506   0.00000  Uiso   1.00
H619   H     0.15445   0.30485   0.40613   0.00000  Uiso   1.00
H620   H     0.14312   0.31631   0.48362   0.00000  Uiso   1.00
H621   H     0.38316   0.02949   0.45824   0.00000  Uiso   1.00
H622   H     0.32967   0.03095   0.41713   0.00000  Uiso   1.00
H623   H     0.34249   0.07195   0.49088   0.00000  Uiso   1.00
H624   H     0.12782   0.21232   0.62858   0.00000  Uiso   1.00
H625   H     0.10915   0.27802   0.64323   0.00000  Uiso   1.00
H626   H     0.05636   0.29361   0.56840   0.00000  Uiso   1.00
H627   H     0.16720   0.26722   0.63634   0.00000  Uiso   1.00
H628   H     0.03166   0.30604   0.34727   0.00000  Uiso   1.00
H629   H     0.48286   0.00734   0.34987   0.00000  Uiso   1.00
H630   H     0.46510   0.25133   0.36242   0.00000  Uiso   1.00
H631   H     0.00919   0.25900   0.42293   0.00000  Uiso   1.00
H632   H     0.46023   0.29581   0.43403   0.00000  Uiso   1.00
H633   H     0.00539   0.01881   0.52580   0.00000  Uiso   1.00
H634   H     0.02406   0.03063   0.60566   0.00000  Uiso   1.00
H635   H     0.45636   0.07541   0.63189   0.00000  Uiso   1.00
H636   H     0.48660   0.10527   0.58154   0.00000  Uiso   1.00
H637   H     0.24408   0.32074   0.43009   0.00000  Uiso   1.00
H638   H     0.43630   0.06366   0.55250   0.00000  Uiso   1.00
H639   H     0.15820   0.13008   0.64922   0.00000  Uiso   1.00
H640   H     0.17651   0.08594   0.36295   0.00000  Uiso   1.00
H641   H     0.17632   0.01425   0.60932   0.00000  Uiso   1.00
H642   H     0.12244   0.04207   0.60735   0.00000  Uiso   1.00
H643   H     0.16451   0.05702   0.55932   0.00000  Uiso   1.00
H644   H     0.32608   0.24643   0.63550   0.00000  Uiso   1.00
H645   H     0.34236   0.18672   0.65829   0.00000  Uiso   1.00
H646   H     0.38138   0.23139   0.41188   0.00000  Uiso   1.00
H647   H     0.38429   0.28358   0.37208   0.00000  Uiso   1.00
H648   H     0.25550   0.01254   0.56989   0.00000  Uiso   1.00
H649   H     0.34252   0.28139   0.42462   0.00000  Uiso   1.00
H650   H     0.34154   0.27363   0.52327   0.00000  Uiso   1.00
H651   H     0.39531   0.30500   0.51728   0.00000  Uiso   1.00
H652   H     0.39381   0.01530   0.63217   0.00000  Uiso   1.00
H653   H     0.35715   0.03792   0.57791   0.00000  Uiso   1.00
H654   H     0.33515   0.32794   0.62118   0.00000  Uiso   1.00
N655   N     0.23744   0.15214   0.34617   0.00000  Uiso   1.00
N656   N     0.26255   0.18119   0.65383   0.00000  Uiso   1.00
O657   O     0.25325   0.09538   0.53992   0.00000  Uiso   1.00
O658   O     0.10306   0.06882   0.48695   0.00000  Uiso   1.00
O659   O     0.37411   0.09306   0.41915   0.00000  Uiso   1.00
O660   O     0.12682   0.25253   0.55616   0.00000  Uiso   1.00
O661   O     0.03067   0.02738   0.42626   0.00000  Uiso   1.00
O662   O     0.46894   0.30978   0.57604   0.00000  Uiso   1.00
O663   O     0.22282   0.10614   0.64266   0.00000  Uiso   1.00
O664   O     0.28625   0.22081   0.35999   0.00000  Uiso   1.00
O665   O     0.24674   0.23796   0.46008   0.00000  Uiso   1.00
O666   O     0.24480   0.08559   0.43612   0.00000  Uiso   1.00
O667   O     0.25520   0.24774   0.56388   0.00000  Uiso   1.00
O668   O     0.18935   0.17155   0.55191   0.00000  Uiso   1.00
O669   O     0.31064   0.16179   0.44809   0.00000  Uiso   1.00
O670   O     0.18090   0.16176   0.44810   0.00000  Uiso   1.00
O671   O     0.31910   0.17157   0.55190   0.00000  Uiso   1.00
O672   O     0.39480   0.25315   0.57530   0.00000  Uiso   1.00
C673   C     0.74870   0.06682   0.48467   0.00000  Uiso   1.00
C674   C     0.58802   0.11647   0.47995   0.00000  Uiso   1.00
C675   C     0.88385   0.17237   0.49798   0.00000  Uiso   1.00
C676   C     0.61612   0.16287   0.50158   0.00000  Uiso   1.00
C677   C     0.90186   0.13035   0.46048   0.00000  Uiso   1.00
C678   C     0.59820   0.20998   0.52640   0.00000  Uiso   1.00
C679   C     0.94823   0.12816   0.46209   0.00000  Uiso   1.00
C680   C     0.55175   0.21300   0.52326   0.00000  Uiso   1.00
C681   C     0.97660   0.17177   0.49336   0.00000  Uiso   1.00
C682   C     0.52326   0.16868   0.49462   0.00000  Uiso   1.00
C683   C     0.95840   0.21758   0.52517   0.00000  Uiso   1.00
C684   C     0.75082   0.26647   0.51536   0.00000  Uiso   1.00
C685   C     0.54135   0.12019   0.47146   0.00000  Uiso   1.00
C686   C     0.96627   0.08149   0.43584   0.00000  Uiso   1.00
C687   C     0.53371   0.25985   0.54858   0.00000  Uiso   1.00
C688   C     0.87378   0.29059   0.54860   0.00000  Uiso   1.00
C689   C     0.86450   0.00399   0.59798   0.00000  Uiso   1.00
C690   C     0.62700   0.04594   0.43860   0.00000  Uiso   1.00
C691   C     0.63047   0.32140   0.43829   0.00000  Uiso   1.00
C692   C     0.85691   0.05504   0.44824   0.00000  Uiso   1.00
C693   C     0.63252   0.25198   0.61845   0.00000  Uiso   1.00
C694   C     0.50699   0.32369   0.37784   0.00000  Uiso   1.00
C695   C     0.51250   0.07591   0.44189   0.00000  Uiso   1.00
C696   C     0.98387   0.27981   0.40094   0.00000  Uiso   1.00
C697   C     0.99442   0.02240   0.57168   0.00000  Uiso   1.00
C698   C     0.96652   0.06947   0.58518   0.00000  Uiso   1.00
C699   C     0.67821   0.09604   0.65220   0.00000  Uiso   1.00
C700   C     0.65877   0.04925   0.60405   0.00000  Uiso   1.00
C701   C     0.82861   0.22565   0.33948   0.00000  Uiso   1.00
C702   C     0.86119   0.25756   0.39015   0.00000  Uiso   1.00
C703   C     0.98725   0.26332   0.54994   0.00000  Uiso   1.00
C704   C     0.74784   0.01086   0.47618   0.00000  Uiso   1.00
C705   C     0.75158   0.32241   0.52383   0.00000  Uiso   1.00
C706   C     0.66457   0.16339   0.50023   0.00000  Uiso   1.00
C707   C     0.83539   0.17036   0.49991   0.00000  Uiso   1.00
C708   C     0.91179   0.21598   0.53128   0.00000  Uiso   1.00
Cu709  Cu    0.75500   0.17246   0.56146   0.00000  Uiso   1.00
Cu710  Cu    0.74499   0.16087   0.43854   0.00000  Uiso   1.00
H711   H     0.94367   0.04802   0.41515   0.00000  Uiso   1.00
H712   H     0.66136   0.06414   0.44636   0.00000  Uiso   1.00
H713   H     0.61083   0.04946   0.39389   0.00000  Uiso   1.00
H714   H     0.59742   0.29922   0.42506   0.00000  Uiso   1.00
H715   H     0.65445   0.30485   0.40613   0.00000  Uiso   1.00
H716   H     0.64312   0.31631   0.48362   0.00000  Uiso   1.00
H717   H     0.88316   0.02949   0.45824   0.00000  Uiso   1.00
H718   H     0.82967   0.03095   0.41713   0.00000  Uiso   1.00
H719   H     0.84249   0.07195   0.49088   0.00000  Uiso   1.00
H720   H     0.62782   0.21232   0.62858   0.00000  Uiso   1.00
H721   H     0.60915   0.27802   0.64323   0.00000  Uiso   1.00
H722   H     0.55636   0.29361   0.56840   0.00000  Uiso   1.00
H723   H     0.66720   0.26722   0.63634   0.00000  Uiso   1.00
H724   H     0.53166   0.30604   0.34727   0.00000  Uiso   1.00
H725   H     0.98286   0.00734   0.34987   0.00000  Uiso   1.00
H726   H     0.96510   0.25133   0.36242   0.00000  Uiso   1.00
H727   H     0.50919   0.25900   0.42293   0.00000  Uiso   1.00
H728   H     0.96023   0.29581   0.43403   0.00000  Uiso   1.00
H729   H     0.50539   0.01881   0.52580   0.00000  Uiso   1.00
H730   H     0.52406   0.03063   0.60566   0.00000  Uiso   1.00
H731   H     0.95636   0.07541   0.63189   0.00000  Uiso   1.00
H732   H     0.98660   0.10527   0.58154   0.00000  Uiso   1.00
H733   H     0.74408   0.32074   0.43009   0.00000  Uiso   1.00
H734   H     0.93630   0.06366   0.55250   0.00000  Uiso   1.00
H735   H     0.65820   0.13008   0.64922   0.00000  Uiso   1.00
H736   H     0.67651   0.08594   0.36295   0.00000  Uiso   1.00
H737   H     0.67632   0.01425   0.60932   0.00000  Uiso   1.00
H738   H     0.62244   0.04207   0.60735   0.00000  Uiso   1.00
H739   H     0.66451   0.05702   0.55932   0.00000  Uiso   1.00
H740   H     0.82608   0.24643   0.63550   0.00000  Uiso   1.00
H741   H     0.84236   0.18672   0.65829   0.00000  Uiso   1.00
H742   H     0.88138   0.23139   0.41188   0.00000  Uiso   1.00
H743   H     0.88429   0.28358   0.37208   0.00000  Uiso   1.00
H744   H     0.75550   0.01254   0.56989   0.00000  Uiso   1.00
H745   H     0.84252   0.28139   0.42462   0.00000  Uiso   1.00
H746   H     0.84154   0.27363   0.52327   0.00000  Uiso   1.00
H747   H     0.89531   0.30500   0.51728   0.00000  Uiso   1.00
H748   H     0.89381   0.01530   0.63217   0.00000  Uiso   1.00
H749   H     0.85715   0.03792   0.57791   0.00000  Uiso   1.00
H750   H     0.83515   0.32794   0.62118   0.00000  Uiso   1.00
N751   N     0.73744   0.15214   0.34617   0.00000  Uiso   1.00
N752   N     0.76255   0.18119   0.65383   0.00000  Uiso   1.00
O753   O     0.75325   0.09538   0.53992   0.00000  Uiso   1.00
O754   O     0.60306   0.06882   0.48695   0.00000  Uiso   1.00
O755   O     0.87411   0.09306   0.41915   0.00000  Uiso   1.00
O756   O     0.62682   0.25253   0.55616   0.00000  Uiso   1.00
O757   O     0.53067   0.02738   0.42626   0.00000  Uiso   1.00
O758   O     0.96894   0.30978   0.57604   0.00000  Uiso   1.00
O759   O     0.72282   0.10614   0.64266   0.00000  Uiso   1.00
O760   O     0.78625   0.22081   0.35999   0.00000  Uiso   1.00
O761   O     0.74674   0.23796   0.46008   0.00000  Uiso   1.00
O762   O     0.74480   0.08559   0.43612   0.00000  Uiso   1.00
O763   O     0.75520   0.24774   0.56388   0.00000  Uiso   1.00
O764   O     0.68935   0.17155   0.55191   0.00000  Uiso   1.00
O765   O     0.81064   0.16179   0.44809   0.00000  Uiso   1.00
O766   O     0.68090   0.16176   0.44810   0.00000  Uiso   1.00
O767   O     0.81910   0.17157   0.55190   0.00000  Uiso   1.00
O768   O     0.89480   0.25315   0.57530   0.00000  Uiso   1.00
C769   C     0.24870   0.40016   0.48467   0.00000  Uiso   1.00
C770   C     0.08802   0.44981   0.47995   0.00000  Uiso   1.00
C771   C     0.38385   0.50570   0.49798   0.00000  Uiso   1.00
C772   C     0.11612   0.49620   0.50158   0.00000  Uiso   1.00
C773   C     0.40186   0.46369   0.46048   0.00000  Uiso   1.00
C774   C     0.09820   0.54332   0.52640   0.00000  Uiso   1.00
C775   C     0.44823   0.46149   0.46209   0.00000  Uiso   1.00
C776   C     0.05175   0.54634   0.52326   0.00000  Uiso   1.00
C777   C     0.47660   0.50510   0.49336   0.00000  Uiso   1.00
C778   C     0.02326   0.50201   0.49462   0.00000  Uiso   1.00
C779   C     0.45840   0.55092   0.52517   0.00000  Uiso   1.00
C780   C     0.25082   0.59981   0.51536   0.00000  Uiso   1.00
C781   C     0.04135   0.45352   0.47146   0.00000  Uiso   1.00
C782   C     0.46627   0.41482   0.43584   0.00000  Uiso   1.00
C783   C     0.03371   0.59318   0.54858   0.00000  Uiso   1.00
C784   C     0.37378   0.62393   0.54860   0.00000  Uiso   1.00
C785   C     0.36450   0.33733   0.59798   0.00000  Uiso   1.00
C786   C     0.12700   0.37927   0.43860   0.00000  Uiso   1.00
C787   C     0.13047   0.65473   0.43829   0.00000  Uiso   1.00
C788   C     0.35691   0.38837   0.44824   0.00000  Uiso   1.00
C789   C     0.13252   0.58531   0.61845   0.00000  Uiso   1.00
C790   C     0.00699   0.65702   0.37784   0.00000  Uiso   1.00
C791   C     0.01250   0.40925   0.44189   0.00000  Uiso   1.00
C792   C     0.48387   0.61314   0.40094   0.00000  Uiso   1.00
C793   C     0.49442   0.35573   0.57168   0.00000  Uiso   1.00
C794   C     0.46652   0.40281   0.58518   0.00000  Uiso   1.00
C795   C     0.17821   0.42938   0.65220   0.00000  Uiso   1.00
C796   C     0.15877   0.38259   0.60405   0.00000  Uiso   1.00
C797   C     0.32861   0.55899   0.33948   0.00000  Uiso   1.00
C798   C     0.36119   0.59089   0.39015   0.00000  Uiso   1.00
C799   C     0.48725   0.59665   0.54994   0.00000  Uiso   1.00
C800   C     0.24784   0.34419   0.47618   0.00000  Uiso   1.00
C801   C     0.25158   0.65575   0.52383   0.00000  Uiso   1.00
C802   C     0.16457   0.49673   0.50023   0.00000  Uiso   1.00
C803   C     0.33539   0.50369   0.49991   0.00000  Uiso   1.00
C804   C     0.41179   0.54931   0.53128   0.00000  Uiso   1.00
Cu805  Cu    0.25500   0.50579   0.56146   0.00000  Uiso   1.00
Cu806  Cu    0.24499   0.49421   0.43854   0.00000  Uiso   1.00
H807   H     0.44367   0.38136   0.41515   0.00000  Uiso   1.00
H808   H     0.16136   0.39747   0.44636   0.00000  Uiso   1.00
H809   H     0.11083   0.38279   0.39389   0.00000  Uiso   1.00
H810   H     0.09742   0.63255   0.42506   0.00000  Uiso   1.00
H811   H     0.15445   0.63819   0.40613   0.00000  Uiso   1.00
H812   H     0.14312   0.64964   0.48362   0.00000  Uiso   1.00
H813   H     0.38316   0.36283   0.45824   0.00000  Uiso   1.00
H814   H     0.32967   0.36429   0.41713   0.00000  Uiso   1.00
H815   H     0.34249   0.40529   0.49088   0.00000  Uiso   1.00
H816   H     0.12782   0.54565   0.62858   0.00000  Uiso   1.00
H817   H     0.10915   0.61135   0.64323   0.00000  Uiso   1.00
H818   H     0.05636   0.62695   0.56840   0.00000  Uiso   1.00
H819   H     0.16720   0.60055   0.63634   0.00000  Uiso   1.00
H820   H     0.03166   0.63937   0.34727   0.00000  Uiso   1.00
H821   H     0.48286   0.34067   0.34987   0.00000  Uiso   1.00
H822   H     0.46510   0.58466   0.36242   0.00000  Uiso   1.00
H823   H     0.00919   0.59234   0.42293   0.00000  Uiso   1.00
H824   H     0.46023   0.62915   0.43403   0.00000  Uiso   1.00
H825   H     0.00539   0.35215   0.52580   0.00000  Uiso   1.00
H826   H     0.02406   0.36396   0.60566   0.00000  Uiso   1.00
H827   H     0.45636   0.40874   0.63189   0.00000  Uiso   1.00
H828   H     0.48660   0.43860   0.58154   0.00000  Uiso   1.00
H829   H     0.24408   0.65407   0.43009   0.00000  Uiso   1.00
H830   H     0.43630   0.39700   0.55250   0.00000  Uiso   1.00
H831   H     0.15820   0.46341   0.64922   0.00000  Uiso   1.00
H832   H     0.17651   0.41927   0.36295   0.00000  Uiso   1.00
H833   H     0.17632   0.34759   0.60932   0.00000  Uiso   1.00
H834   H     0.12244   0.37540   0.60735   0.00000  Uiso   1.00
H835   H     0.16451   0.39035   0.55932   0.00000  Uiso   1.00
H836   H     0.32608   0.57976   0.63550   0.00000  Uiso   1.00
H837   H     0.34236   0.52005   0.65829   0.00000  Uiso   1.00
H838   H     0.38138   0.56472   0.41188   0.00000  Uiso   1.00
H839   H     0.38429   0.61691   0.37208   0.00000  Uiso   1.00
H840   H     0.25550   0.34588   0.56989   0.00000  Uiso   1.00
H841   H     0.34252   0.61473   0.42462   0.00000  Uiso   1.00
H842   H     0.34154   0.60696   0.52327   0.00000  Uiso   1.00
H843   H     0.39531   0.63834   0.51728   0.00000  Uiso   1.00
H844   H     0.39381   0.34863   0.63217   0.00000  Uiso   1.00
H845   H     0.35715   0.37126   0.57791   0.00000  Uiso   1.00
H846   H     0.33515   0.66128   0.62118   0.00000  Uiso   1.00
N847   N     0.23744   0.48547   0.34617   0.00000  Uiso   1.00
N848   N     0.26255   0.51453   0.65383   0.00000  Uiso   1.00
O849   O     0.25325   0.42871   0.53992   0.00000  Uiso   1.00
O850   O     0.10306   0.40216   0.48695   0.00000  Uiso   1.00
O851   O     0.37411   0.42639   0.41915   0.00000  Uiso   1.00
O852   O     0.12682   0.58586   0.55616   0.00000  Uiso   1.00
O853   O     0.03067   0.36071   0.42626   0.00000  Uiso   1.00
O854   O     0.46894   0.64311   0.57604   0.00000  Uiso   1.00
O855   O     0.22282   0.43948   0.64266   0.00000  Uiso   1.00
O856   O     0.28625   0.55415   0.35999   0.00000  Uiso   1.00
O857   O     0.24674   0.57129   0.46008   0.00000  Uiso   1.00
O858   O     0.24480   0.41892   0.43612   0.00000  Uiso   1.00
O859   O     0.25520   0.58108   0.56388   0.00000  Uiso   1.00
O860   O     0.18935   0.50488   0.55191   0.00000  Uiso   1.00
O861   O     0.31064   0.49512   0.44809   0.00000  Uiso   1.00
O862   O     0.18090   0.49510   0.44810   0.00000  Uiso   1.00
O863   O     0.31910   0.50490   0.55190   0.00000  Uiso   1.00
O864   O     0.39480   0.58649   0.57530   0.00000  Uiso   1.00
C865   C     0.74870   0.40016   0.48467   0.00000  Uiso   1.00
C866   C     0.58802   0.44981   0.47995   0.00000  Uiso   1.00
C867   C     0.88385   0.50570   0.49798   0.00000  Uiso   1.00
C868   C     0.61612   0.49620   0.50158   0.00000  Uiso   1.00
C869   C     0.90186   0.46369   0.46048   0.00000  Uiso   1.00
C870   C     0.59820   0.54332   0.52640   0.00000  Uiso   1.00
C871   C     0.94823   0.46149   0.46209   0.00000  Uiso   1.00
C872   C     0.55175   0.54634   0.52326   0.00000  Uiso   1.00
C873   C     0.97660   0.50510   0.49336   0.00000  Uiso   1.00
C874   C     0.52326   0.50201   0.49462   0.00000  Uiso   1.00
C875   C     0.95840   0.55092   0.52517   0.00000  Uiso   1.00
C876   C     0.75082   0.59981   0.51536   0.00000  Uiso   1.00
C877   C     0.54135   0.45352   0.47146   0.00000  Uiso   1.00
C878   C     0.96627   0.41482   0.43584   0.00000  Uiso   1.00
C879   C     0.53371   0.59318   0.54858   0.00000  Uiso   1.00
C880   C     0.87378   0.62393   0.54860   0.00000  Uiso   1.00
C881   C     0.86450   0.33733   0.59798   0.00000  Uiso   1.00
C882   C     0.62700   0.37927   0.43860   0.00000  Uiso   1.00
C883   C     0.63047   0.65473   0.43829   0.00000  Uiso   1.00
C884   C     0.85691   0.38837   0.44824   0.00000  Uiso   1.00
C885   C     0.63252   0.58531   0.61845   0.00000  Uiso   1.00
C886   C     0.50699   0.65702   0.37784   0.00000  Uiso   1.00
C887   C     0.51250   0.40925   0.44189   0.00000  Uiso   1.00
C888   C     0.98387   0.61314   0.40094   0.00000  Uiso   1.00
C889   C     0.99442   0.35573   0.57168   0.00000  Uiso   1.00
C890   C     0.96652   0.40281   0.58518   0.00000  Uiso   1.00
C891   C     0.67821   0.42938   0.65220   0.00000  Uiso   1.00
C892   C     0.65877   0.38259   0.60405   0.00000  Uiso   1.00
C893   C     0.82861   0.55899   0.33948   0.00000  Uiso   1.00
C894   C     0.86119   0.59089   0.39015   0.00000  Uiso   1.00
C895   C     0.98725   0.59665   0.54994   0.00000  Uiso   1.00
C896   C     0.74784   0.34419   0.47618   0.00000  Uiso   1.00
C897   C     0.75158   0.65575   0.52383   0.00000  Uiso   1.00
C898   C     0.66457   0.49673   0.50023   0.00000  Uiso   1.00
C899   C     0.83539   0.50369   0.49991   0.00000  Uiso   1.00
C900   C     0.91179   0.54931   0.53128   0.00000  Uiso   1.00
Cu901  Cu    0.75500   0.50579   0.56146   0.00000  Uiso   1.00
Cu902  Cu    0.74499   0.49421   0.43854   0.00000  Uiso   1.00
H903   H     0.94367   0.38136   0.41515   0.00000  Uiso   1.00
H904   H     0.66136   0.39747   0.44636   0.00000  Uiso   1.00
H905   H     0.61083   0.38279   0.39389   0.00000  Uiso   1.00
H906   H     0.59742   0.63255   0.42506   0.00000  Uiso   1.00
H907   H     0.65445   0.63819   0.40613   0.00000  Uiso   1.00
H908   H     0.64312   0.64964   0.48362   0.00000  Uiso   1.00
H909   H     0.88316   0.36283   0.45824   0.00000  Uiso   1.00
H910   H     0.82967   0.36429   0.41713   0.00000  Uiso   1.00
H911   H     0.84249   0.40529   0.49088   0.00000  Uiso   1.00
H912   H     0.62782   0.54565   0.62858   0.00000  Uiso   1.00
H913   H     0.60915   0.61135   0.64323   0.00000  Uiso   1.00
H914   H     0.55636   0.62695   0.56840   0.00000  Uiso   1.00
H915   H     0.66720   0.60055   0.63634   0.00000  Uiso   1.00
H916   H     0.53166   0.63937   0.34727   0.00000  Uiso   1.00
H917   H     0.98286   0.34067   0.34987   0.00000  Uiso   1.00
H918   H     0.96510   0.58466   0.36242   0.00000  Uiso   1.00
H919   H     0.50919   0.59234   0.42293   0.00000  Uiso   1.00
H920   H     0.96023   0.62915   0.43403   0.00000  Uiso   1.00
H921   H     0.50539   0.35215   0.52580   0.00000  Uiso   1.00
H922   H     0.52406   0.36396   0.60566   0.00000  Uiso   1.00
H923   H     0.95636   0.40874   0.63189   0.00000  Uiso   1.00
H924   H     0.98660   0.43860   0.58154   0.00000  Uiso   1.00
H925   H     0.74408   0.65407   0.43009   0.00000  Uiso   1.00
H926   H     0.93630   0.39700   0.55250   0.00000  Uiso   1.00
H927   H     0.65820   0.46341   0.64922   0.00000  Uiso   1.00
H928   H     0.67651   0.41927   0.36295   0.00000  Uiso   1.00
H929   H     0.67632   0.34759   0.60932   0.00000  Uiso   1.00
H930   H     0.62244   0.37540   0.60735   0.00000  Uiso   1.00
H931   H     0.66451   0.39035   0.55932   0.00000  Uiso   1.00
H932   H     0.82608   0.57976   0.63550   0.00000  Uiso   1.00
H933   H     0.84236   0.52005   0.65829   0.00000  Uiso   1.00
H934   H     0.88138   0.56472   0.41188   0.00000  Uiso   1.00
H935   H     0.88429   0.61691   0.37208   0.00000  Uiso   1.00
H936   H     0.75550   0.34588   0.56989   0.00000  Uiso   1.00
H937   H     0.84252   0.61473   0.42462   0.00000  Uiso   1.00
H938   H     0.84154   0.60696   0.52327   0.00000  Uiso   1.00
H939   H     0.89531   0.63834   0.51728   0.00000  Uiso   1.00
H940   H     0.89381   0.34863   0.63217   0.00000  Uiso   1.00
H941   H     0.85715   0.37126   0.57791   0.00000  Uiso   1.00
H942   H     0.83515   0.66128   0.62118   0.00000  Uiso   1.00
N943   N     0.73744   0.48547   0.34617   0.00000  Uiso   1.00
N944   N     0.76255   0.51453   0.65383   0.00000  Uiso   1.00
O945   O     0.75325   0.42871   0.53992   0.00000  Uiso   1.00
O946   O     0.60306   0.40216   0.48695   0.00000  Uiso   1.00
O947   O     0.87411   0.42639   0.41915   0.00000  Uiso   1.00
O948   O     0.62682   0.58586   0.55616   0.00000  Uiso   1.00
O949   O     0.53067   0.36071   0.42626   0.00000  Uiso   1.00
O950   O     0.96894   0.64311   0.57604   0.00000  Uiso   1.00
O951   O     0.72282   0.43948   0.64266   0.00000  Uiso   1.00
O952   O     0.78625   0.55415   0.35999   0.00000  Uiso   1.00
O953   O     0.74674   0.57129   0.46008   0.00000  Uiso   1.00
O954   O     0.74480   0.41892   0.43612   0.00000  Uiso   1.00
O955   O     0.75520   0.58108   0.56388   0.00000  Uiso   1.00
O956   O     0.68935   0.50488   0.55191   0.00000  Uiso   1.00
O957   O     0.81064   0.49512   0.44809   0.00000  Uiso   1.00
O958   O     0.68090   0.49510   0.44810   0.00000  Uiso   1.00
O959   O     0.81910   0.50490   0.55190   0.00000  Uiso   1.00
O960   O     0.89480   0.58649   0.57530   0.00000  Uiso   1.00
C961   C     0.24870   0.73349   0.48467   0.00000  Uiso   1.00
C962   C     0.08802   0.78314   0.47995   0.00000  Uiso   1.00
C963   C     0.38385   0.83904   0.49798   0.00000  Uiso   1.00
C964   C     0.11612   0.82953   0.50158   0.00000  Uiso   1.00
C965   C     0.40186   0.79702   0.46048   0.00000  Uiso   1.00
C966   C     0.09820   0.87665   0.52640   0.00000  Uiso   1.00
C967   C     0.44823   0.79482   0.46209   0.00000  Uiso   1.00
C968   C     0.05175   0.87967   0.52326   0.00000  Uiso   1.00
C969   C     0.47660   0.83844   0.49336   0.00000  Uiso   1.00
C970   C     0.02326   0.83535   0.49462   0.00000  Uiso   1.00
C971   C     0.45840   0.88425   0.52517   0.00000  Uiso   1.00
C972   C     0.25082   0.93314   0.51536   0.00000  Uiso   1.00
C973   C     0.04135   0.78686   0.47146   0.00000  Uiso   1.00
C974   C     0.46627   0.74816   0.43584   0.00000  Uiso   1.00
C975   C     0.03371   0.92651   0.54858   0.00000  Uiso   1.00
C976   C     0.37378   0.95726   0.54860   0.00000  Uiso   1.00
C977   C     0.36450   0.67066   0.59798   0.00000  Uiso   1.00
C978   C     0.12700   0.71260   0.43860   0.00000  Uiso   1.00
C979   C     0.13047   0.98806   0.43829   0.00000  Uiso   1.00
C980   C     0.35691   0.72171   0.44824   0.00000  Uiso   1.00
C981   C     0.13252   0.91865   0.61845   0.00000  Uiso   1.00
C982   C     0.00699   0.99035   0.37784   0.00000  Uiso   1.00
C983   C     0.01250   0.74258   0.44189   0.00000  Uiso   1.00
C984   C     0.48387   0.94648   0.40094   0.00000  Uiso   1.00
C985   C     0.49442   0.68906   0.57168   0.00000  Uiso   1.00
C986   C     0.46652   0.73614   0.58518   0.00000  Uiso   1.00
C987   C     0.17821   0.76271   0.65220   0.00000  Uiso   1.00
C988   C     0.15877   0.71592   0.60405   0.00000  Uiso   1.00
C989   C     0.32861   0.89232   0.33948   0.00000  Uiso   1.00
C990   C     0.36119   0.92423   0.39015   0.00000  Uiso   1.00
C991   C     0.48725   0.92999   0.54994   0.00000  Uiso   1.00
C992   C     0.24784   0.67753   0.47618   0.00000  Uiso   1.00
C993   C     0.25158   0.98908   0.52383   0.00000  Uiso   1.00
C994   C     0.16457   0.83006   0.50023   0.00000  Uiso   1.00
C995   C     0.33539   0.83703   0.49991   0.00000  Uiso   1.00
C996   C     0.41179   0.88265   0.53128   0.00000  Uiso   1.00
Cu997  Cu    0.25500   0.83913   0.56146   0.00000  Uiso   1.00
Cu998  Cu    0.24499   0.82754   0.43854   0.00000  Uiso   1.00
H999   H     0.44367   0.71469   0.41515   0.00000  Uiso   1.00
H1000  H     0.16136   0.73080   0.44636   0.00000  Uiso   1.00
H1001  H     0.11083   0.71613   0.39389   0.00000  Uiso   1.00
H1002  H     0.09742   0.96589   0.42506   0.00000  Uiso   1.00
H1003  H     0.15445   0.97152   0.40613   0.00000  Uiso   1.00
H1004  H     0.14312   0.98297   0.48362   0.00000  Uiso   1.00
H1005  H     0.38316   0.69616   0.45824   0.00000  Uiso   1.00
H1006  H     0.32967   0.69762   0.41713   0.00000  Uiso   1.00
H1007  H     0.34249   0.73862   0.49088   0.00000  Uiso   1.00
H1008  H     0.12782   0.87898   0.62858   0.00000  Uiso   1.00
H1009  H     0.10915   0.94468   0.64323   0.00000  Uiso   1.00
H1010  H     0.05636   0.96028   0.56840   0.00000  Uiso   1.00
H1011  H     0.16720   0.93389   0.63634   0.00000  Uiso   1.00
H1012  H     0.03166   0.97271   0.34727   0.00000  Uiso   1.00
H1013  H     0.48286   0.67401   0.34987   0.00000  Uiso   1.00
H1014  H     0.46510   0.91799   0.36242   0.00000  Uiso   1.00
H1015  H     0.00919   0.92567   0.42293   0.00000  Uiso   1.00
H1016  H     0.46023   0.96248   0.43403   0.00000  Uiso   1.00
H1017  H     0.00539   0.68548   0.52580   0.00000  Uiso   1.00
H1018  H     0.02406   0.69729   0.60566   0.00000  Uiso   1.00
H1019  H     0.45636   0.74207   0.63189   0.00000  Uiso   1.00
H1020  H     0.48660   0.77194   0.58154   0.00000  Uiso   1.00
H1021  H     0.24408   0.98740   0.43009   0.00000  Uiso   1.00
H1022  H     0.43630   0.73033   0.55250   0.00000  Uiso   1.00
H1023  H     0.15820   0.79675   0.64922   0.00000  Uiso   1.00
H1024  H     0.17651   0.75260   0.36295   0.00000  Uiso   1.00
H1025  H     0.17632   0.68092   0.60932   0.00000  Uiso   1.00
H1026  H     0.12244   0.70873   0.60735   0.00000  Uiso   1.00
H1027  H     0.16451   0.72369   0.55932   0.00000  Uiso   1.00
H1028  H     0.32608   0.91309   0.63550   0.00000  Uiso   1.00
H1029  H     0.34236   0.85339   0.65829   0.00000  Uiso   1.00
H1030  H     0.38138   0.89806   0.41188   0.00000  Uiso   1.00
H1031  H     0.38429   0.95025   0.37208   0.00000  Uiso   1.00
H1032  H     0.25550   0.67921   0.56989   0.00000  Uiso   1.00
H1033  H     0.34252   0.94806   0.42462   0.00000  Uiso   1.00
H1034  H     0.34154   0.94029   0.52327   0.00000  Uiso   1.00
H1035  H     0.39531   0.97167   0.51728   0.00000  Uiso   1.00
H1036  H     0.39381   0.68197   0.63217   0.00000  Uiso   1.00
H1037  H     0.35715   0.70459   0.57791   0.00000  Uiso   1.00
H1038  H     0.33515   0.99461   0.62118   0.00000  Uiso   1.00
N1039  N     0.23744   0.81881   0.34617   0.00000  Uiso   1.00
N1040  N     0.26255   0.84786   0.65383   0.00000  Uiso   1.00
O1041  O     0.25325   0.76204   0.53992   0.00000  Uiso   1.00
O1042  O     0.10306   0.73549   0.48695   0.00000  Uiso   1.00
O1043  O     0.37411   0.75972   0.41915   0.00000  Uiso   1.00
O1044  O     0.12682   0.91919   0.55616   0.00000  Uiso   1.00
O1045  O     0.03067   0.69404   0.42626   0.00000  Uiso   1.00
O1046  O     0.46894   0.97645   0.57604   0.00000  Uiso   1.00
O1047  O     0.22282   0.77281   0.64266   0.00000  Uiso   1.00
O1048  O     0.28625   0.88748   0.35999   0.00000  Uiso   1.00
O1049  O     0.24674   0.90462   0.46008   0.00000  Uiso   1.00
O1050  O     0.24480   0.75226   0.43612   0.00000  Uiso   1.00
O1051  O     0.25520   0.91441   0.56388   0.00000  Uiso   1.00
O1052  O     0.18935   0.83821   0.55191   0.00000  Uiso   1.00
O1053  O     0.31064   0.82845   0.44809   0.00000  Uiso   1.00
O1054  O     0.18090   0.82843   0.44810   0.00000  Uiso   1.00
O1055  O     0.31910   0.83824   0.55190   0.00000  Uiso   1.00
O1056  O     0.39480   0.91982   0.57530   0.00000  Uiso   1.00
C1057  C     0.74870   0.73349   0.48467   0.00000  Uiso   1.00
C1058  C     0.58802   0.78314   0.47995   0.00000  Uiso   1.00
C1059  C     0.88385   0.83904   0.49798   0.00000  Uiso   1.00
C1060  C     0.61612   0.82953   0.50158   0.00000  Uiso   1.00
C1061  C     0.90186   0.79702   0.46048   0.00000  Uiso   1.00
C1062  C     0.59820   0.87665   0.52640   0.00000  Uiso   1.00
C1063  C     0.94823   0.79482   0.46209   0.00000  Uiso   1.00
C1064  C     0.55175   0.87967   0.52326   0.00000  Uiso   1.00
C1065  C     0.97660   0.83844   0.49336   0.00000  Uiso   1.00
C1066  C     0.52326   0.83535   0.49462   0.00000  Uiso   1.00
C1067  C     0.95840   0.88425   0.52517   0.00000  Uiso   1.00
C1068  C     0.75082   0.93314   0.51536   0.00000  Uiso   1.00
C1069  C     0.54135   0.78686   0.47146   0.00000  Uiso   1.00
C1070  C     0.96627   0.74816   0.43584   0.00000  Uiso   1.00
C1071  C     0.53371   0.92651   0.54858   0.00000  Uiso   1.00
C1072  C     0.87378   0.95726   0.54860   0.00000  Uiso   1.00
C1073  C     0.86450   0.67066   0.59798   0.00000  Uiso   1.00
C1074  C     0.62700   0.71260   0.43860   0.00000  Uiso   1.00
C1075  C     0.63047   0.98806   0.43829   0.00000  Uiso   1.00
C1076  C     0.85691   0.72171   0.44824   0.00000  Uiso   1.00
C1077  C     0.63252   0.91865   0.61845   0.00000  Uiso   1.00
C1078  C     0.50699   0.99035   0.37784   0.00000  Uiso   1.00
C1079  C     0.51250   0.74258   0.44189   0.00000  Uiso   1.00
C1080  C     0.98387   0.94648   0.40094   0.00000  Uiso   1.00
C1081  C     0.99442   0.68906   0.57168   0.00000  Uiso   1.00
C1082  C     0.96652   0.73614   0.58518   0.00000  Uiso   1.00
C1083  C     0.67821   0.76271   0.65220   0.00000  Uiso   1.00
C1084  C     0.65877   0.71592   0.60405   0.00000  Uiso   1.00
C1085  C     0.82861   0.89232   0.33948   0.00000  Uiso   1.00
C1086  C     0.86119   0.92423   0.39015   0.00000  Uiso   1.00
C1087  C     0.98725   0.92999   0.54994   0.00000  Uiso   1.00
C1088  C     0.74784   0.67753   0.47618   0.00000  Uiso   1.00
C1089  C     0.75158   0.98908   0.52383   0.00000  Uiso   1.00
C1090  C     0.66457   0.83006   0.50023   0.00000  Uiso   1.00
C1091  C     0.83539   0.83703   0.49991   0.00000  Uiso   1.00
C1092  C     0.91179   0.88265   0.53128   0.00000  Uiso   1.00
Cu1093 Cu    0.75500   0.83913   0.56146   0.00000  Uiso   1.00
Cu1094 Cu    0.74499   0.82754   0.43854   0.00000  Uiso   1.00
H1095  H     0.94367   0.71469   0.41515   0.00000  Uiso   1.00
H1096  H     0.66136   0.73080   0.44636   0.00000  Uiso   1.00
H1097  H     0.61083   0.71613   0.39389   0.00000  Uiso   1.00
H1098  H     0.59742   0.96589   0.42506   0.00000  Uiso   1.00
H1099  H     0.65445   0.97152   0.40613   0.00000  Uiso   1.00
H1100  H     0.64312   0.98297   0.48362   0.00000  Uiso   1.00
H1101  H     0.88316   0.69616   0.45824   0.00000  Uiso   1.00
H1102  H     0.82967   0.69762   0.41713   0.00000  Uiso   1.00
H1103  H     0.84249   0.73862   0.49088   0.00000  Uiso   1.00
H1104  H     0.62782   0.87898   0.62858   0.00000  Uiso   1.00
H1105  H     0.60915   0.94468   0.64323   0.00000  Uiso   1.00
H1106  H     0.55636   0.96028   0.56840   0.00000  Uiso   1.00
H1107  H     0.66720   0.93389   0.63634   0.00000  Uiso   1.00
H1108  H     0.53166   0.97271   0.34727   0.00000  Uiso   1.00
H1109  H     0.98286   0.67401   0.34987   0.00000  Uiso   1.00
H1110  H     0.96510   0.91799   0.36242   0.00000  Uiso   1.00
H1111  H     0.50919   0.92567   0.42293   0.00000  Uiso   1.00
H1112  H     0.96023   0.96248   0.43403   0.00000  Uiso   1.00
H1113  H     0.50539   0.68548   0.52580   0.00000  Uiso   1.00
H1114  H     0.52406   0.69729   0.60566   0.00000  Uiso   1.00
H1115  H     0.95636   0.74207   0.63189   0.00000  Uiso   1.00
H1116  H     0.98660   0.77194   0.58154   0.00000  Uiso   1.00
H1117  H     0.74408   0.98740   0.43009   0.00000  Uiso   1.00
H1118  H     0.93630   0.73033   0.55250   0.00000  Uiso   1.00
H1119  H     0.65820   0.79675   0.64922   0.00000  Uiso   1.00
H1120  H     0.67651   0.75260   0.36295   0.00000  Uiso   1.00
H1121  H     0.67632   0.68092   0.60932   0.00000  Uiso   1.00
H1122  H     0.62244   0.70873   0.60735   0.00000  Uiso   1.00
H1123  H     0.66451   0.72369   0.55932   0.00000  Uiso   1.00
H1124  H     0.82608   0.91309   0.63550   0.00000  Uiso   1.00
H1125  H     0.84236   0.85339   0.65829   0.00000  Uiso   1.00
H1126  H     0.88138   0.89806   0.41188   0.00000  Uiso   1.00
H1127  H     0.88429   0.95025   0.37208   0.00000  Uiso   1.00
H1128  H     0.75550   0.67921   0.56989   0.00000  Uiso   1.00
H1129  H     0.84252   0.94806   0.42462   0.00000  Uiso   1.00
H1130  H     0.84154   0.94029   0.52327   0.00000  Uiso   1.00
H1131  H     0.89531   0.97167   0.51728   0.00000  Uiso   1.00
H1132  H     0.89381   0.68197   0.63217   0.00000  Uiso   1.00
H1133  H     0.85715   0.70459   0.57791   0.00000  Uiso   1.00
H1134  H     0.83515   0.99461   0.62118   0.00000  Uiso   1.00
N1135  N     0.73744   0.81881   0.34617   0.00000  Uiso   1.00
N1136  N     0.76255   0.84786   0.65383   0.00000  Uiso   1.00
O1137  O     0.75325   0.76204   0.53992   0.00000  Uiso   1.00
O1138  O     0.60306   0.73549   0.48695   0.00000  Uiso   1.00
O1139  O     0.87411   0.75972   0.41915   0.00000  Uiso   1.00
O1140  O     0.62682   0.91919   0.55616   0.00000  Uiso   1.00
O1141  O     0.53067   0.69404   0.42626   0.00000  Uiso   1.00
O1142  O     0.96894   0.97645   0.57604   0.00000  Uiso   1.00
O1143  O     0.72282   0.77281   0.64266   0.00000  Uiso   1.00
O1144  O     0.78625   0.88748   0.35999   0.00000  Uiso   1.00
O1145  O     0.74674   0.90462   0.46008   0.00000  Uiso   1.00
O1146  O     0.74480   0.75226   0.43612   0.00000  Uiso   1.00
O1147  O     0.75520   0.91441   0.56388   0.00000  Uiso   1.00
O1148  O     0.68935   0.83821   0.55191   0.00000  Uiso   1.00
O1149  O     0.81064   0.82845   0.44809   0.00000  Uiso   1.00
O1150  O     0.68090   0.82843   0.44810   0.00000  Uiso   1.00
O1151  O     0.81910   0.83824   0.55190   0.00000  Uiso   1.00
O1152  O     0.89480   0.91982   0.57530   0.00000  Uiso   1.00
C1153  C     0.24870   0.06682   0.81800   0.00000  Uiso   1.00
C1154  C     0.08802   0.11647   0.81328   0.00000  Uiso   1.00
C1155  C     0.38385   0.17237   0.83132   0.00000  Uiso   1.00
C1156  C     0.11612   0.16287   0.83492   0.00000  Uiso   1.00
C1157  C     0.40186   0.13035   0.79381   0.00000  Uiso   1.00
C1158  C     0.09820   0.20998   0.85974   0.00000  Uiso   1.00
C1159  C     0.44823   0.12816   0.79542   0.00000  Uiso   1.00
C1160  C     0.05175   0.21300   0.85659   0.00000  Uiso   1.00
C1161  C     0.47660   0.17177   0.82669   0.00000  Uiso   1.00
C1162  C     0.02326   0.16868   0.82795   0.00000  Uiso   1.00
C1163  C     0.45840   0.21758   0.85850   0.00000  Uiso   1.00
C1164  C     0.25082   0.26647   0.84869   0.00000  Uiso   1.00
C1165  C     0.04135   0.12019   0.80479   0.00000  Uiso   1.00
C1166  C     0.46627   0.08149   0.76917   0.00000  Uiso   1.00
C1167  C     0.03371   0.25985   0.88192   0.00000  Uiso   1.00
C1168  C     0.37378   0.29059   0.88194   0.00000  Uiso   1.00
C1169  C     0.36450   0.00399   0.93131   0.00000  Uiso   1.00
C1170  C     0.12700   0.04594   0.77193   0.00000  Uiso   1.00
C1171  C     0.13047   0.32140   0.77163   0.00000  Uiso   1.00
C1172  C     0.35691   0.05504   0.78158   0.00000  Uiso   1.00
C1173  C     0.13252   0.25198   0.95178   0.00000  Uiso   1.00
C1174  C     0.00699   0.32369   0.71117   0.00000  Uiso   1.00
C1175  C     0.01250   0.07591   0.77522   0.00000  Uiso   1.00
C1176  C     0.48387   0.27981   0.73428   0.00000  Uiso   1.00
C1177  C     0.49442   0.02240   0.90502   0.00000  Uiso   1.00
C1178  C     0.46652   0.06947   0.91851   0.00000  Uiso   1.00
C1179  C     0.17821   0.09604   0.98553   0.00000  Uiso   1.00
C1180  C     0.15877   0.04925   0.93738   0.00000  Uiso   1.00
C1181  C     0.32861   0.22565   0.67281   0.00000  Uiso   1.00
C1182  C     0.36119   0.25756   0.72349   0.00000  Uiso   1.00
C1183  C     0.48725   0.26332   0.88327   0.00000  Uiso   1.00
C1184  C     0.24784   0.01086   0.80951   0.00000  Uiso   1.00
C1185  C     0.25158   0.32241   0.85716   0.00000  Uiso   1.00
C1186  C     0.16457   0.16339   0.83357   0.00000  Uiso   1.00
C1187  C     0.33539   0.17036   0.83325   0.00000  Uiso   1.00
C1188  C     0.41179   0.21598   0.86462   0.00000  Uiso   1.00
Cu1189 Cu    0.25500   0.17246   0.89479   0.00000  Uiso   1.00
Cu1190 Cu    0.24499   0.16087   0.77187   0.00000  Uiso   1.00
H1191  H     0.44367   0.04802   0.74848   0.00000  Uiso   1.00
H1192  H     0.16136   0.06414   0.77969   0.00000  Uiso   1.00
H1193  H     0.11083   0.04946   0.72722   0.00000  Uiso   1.00
H1194  H     0.09742   0.29922   0.75840   0.00000  Uiso   1.00
H1195  H     0.15445   0.30485   0.73947   0.00000  Uiso   1.00
H1196  H     0.14312   0.31631   0.81696   0.00000  Uiso   1.00
H1197  H     0.38316   0.02949   0.79157   0.00000  Uiso   1.00
H1198  H     0.32967   0.03095   0.75046   0.00000  Uiso   1.00
H1199  H     0.34249   0.07195   0.82422   0.00000  Uiso   1.00
H1200  H     0.12782   0.21232   0.96191   0.00000  Uiso   1.00
H1201  H     0.10915   0.27802   0.97656   0.00000  Uiso   1.00
H1202  H     0.05636   0.29361   0.90173   0.00000  Uiso   1.00
H1203  H     0.16720   0.26722   0.96967   0.00000  Uiso   1.00
H1204  H     0.03166   0.30604   0.68061   0.00000  Uiso   1.00
H1205  H     0.48286   0.00734   0.68321   0.00000  Uiso   1.00
H1206  H     0.46510   0.25133   0.69575   0.00000  Uiso   1.00
H1207  H     0.00919   0.25900   0.75627   0.00000  Uiso   1.00
H1208  H     0.46023   0.29581   0.76736   0.00000  Uiso   1.00
H1209  H     0.00539   0.01881   0.85913   0.00000  Uiso   1.00
H1210  H     0.02406   0.03063   0.93900   0.00000  Uiso   1.00
H1211  H     0.45636   0.07541   0.96522   0.00000  Uiso   1.00
H1212  H     0.48660   0.10527   0.91487   0.00000  Uiso   1.00
H1213  H     0.24408   0.32074   0.76342   0.00000  Uiso   1.00
H1214  H     0.43630   0.06366   0.88583   0.00000  Uiso   1.00
H1215  H     0.15820   0.13008   0.98255   0.00000  Uiso   1.00
H1216  H     0.17651   0.08594   0.69629   0.00000  Uiso   1.00
H1217  H     0.17632   0.01425   0.94265   0.00000  Uiso   1.00
H1218  H     0.12244   0.04207   0.94068   0.00000  Uiso   1.00
H1219  H     0.16451   0.05702   0.89265   0.00000  Uiso   1.00
H1220  H     0.32608   0.24643   0.96883   0.00000  Uiso   1.00
H1221  H     0.34236   0.18672   0.99162   0.00000  Uiso   1.00
H1222  H     0.38138   0.23139   0.74521   0.00000  Uiso   1.00
H1223  H     0.38429   0.28358   0.70542   0.00000  Uiso   1.00
H1224  H     0.25550   0.01254   0.90322   0.00000  Uiso   1.00
H1225  H     0.34252   0.28139   0.75795   0.00000  Uiso   1.00
H1226  H     0.34154   0.27363   0.85661   0.00000  Uiso   1.00
H1227  H     0.39531   0.30500   0.85061   0.00000  Uiso   1.00
H1228  H     0.39381   0.01530   0.96550   0.00000  Uiso   1.00
H1229  H     0.35715   0.03792   0.91124   0.00000  Uiso   1.00
H1230  H     0.33515   0.32794   0.95452   0.00000  Uiso   1.00
N1231  N     0.23744   0.15214   0.67951   0.00000  Uiso   1.00
N1232  N     0.26255   0.18119   0.98716   0.00000  Uiso   1.00
O1233  O     0.25325   0.09538   0.87326   0.00000  Uiso   1.00
O1234  O     0.10306   0.06882   0.82028   0.00000  Uiso   1.00
O1235  O     0.37411   0.09306   0.75249   0.00000  Uiso   1.00
O1236  O     0.12682   0.25253   0.88950   0.00000  Uiso   1.00
O1237  O     0.03067   0.02738   0.75959   0.00000  Uiso   1.00
O1238  O     0.46894   0.30978   0.90937   0.00000  Uiso   1.00
O1239  O     0.22282   0.10614   0.97599   0.00000  Uiso   1.00
O1240  O     0.28625   0.22081   0.69332   0.00000  Uiso   1.00
O1241  O     0.24674   0.23796   0.79341   0.00000  Uiso   1.00
O1242  O     0.24480   0.08559   0.76945   0.00000  Uiso   1.00
O1243  O     0.25520   0.24774   0.89721   0.00000  Uiso   1.00
O1244  O     0.18935   0.17155   0.88524   0.00000  Uiso   1.00
O1245  O     0.31064   0.16179   0.78143   0.00000  Uiso   1.00
O1246  O     0.18090   0.16176   0.78143   0.00000  Uiso   1.00
O1247  O     0.31910   0.17157   0.88523   0.00000  Uiso   1.00
O1248  O     0.39480   0.25315   0.90864   0.00000  Uiso   1.00
C1249  C     0.74870   0.06682   0.81800   0.00000  Uiso   1.00
C1250  C     0.58802   0.11647   0.81328   0.00000  Uiso   1.00
C1251  C     0.88385   0.17237   0.83132   0.00000  Uiso   1.00
C1252  C     0.61612   0.16287   0.83492   0.00000  Uiso   1.00
C1253  C     0.90186   0.13035   0.79381   0.00000  Uiso   1.00
C1254  C     0.59820   0.20998   0.85974   0.00000  Uiso   1.00
C1255  C     0.94823   0.12816   0.79542   0.00000  Uiso   1.00
C1256  C     0.55175   0.21300   0.85659   0.00000  Uiso   1.00
C1257  C     0.97660   0.17177   0.82669   0.00000  Uiso   1.00
C1258  C     0.52326   0.16868   0.82795   0.00000  Uiso   1.00
C1259  C     0.95840   0.21758   0.85850   0.00000  Uiso   1.00
C1260  C     0.75082   0.26647   0.84869   0.00000  Uiso   1.00
C1261  C     0.54135   0.12019   0.80479   0.00000  Uiso   1.00
C1262  C     0.96627   0.08149   0.76917   0.00000  Uiso   1.00
C1263  C     0.53371   0.25985   0.88192   0.00000  Uiso   1.00
C1264  C     0.87378   0.29059   0.88194   0.00000  Uiso   1.00
C1265  C     0.86450   0.00399   0.93131   0.00000  Uiso   1.00
C1266  C     0.62700   0.04594   0.77193   0.00000  Uiso   1.00
C1267  C     0.63047   0.32140   0.77163   0.00000  Uiso   1.00
C1268  C     0.85691   0.05504   0.78158   0.00000  Uiso   1.00
C1269  C     0.63252   0.25198   0.95178   0.00000  Uiso   1.00
C1270  C     0.50699   0.32369   0.71117   0.00000  Uiso   1.00
C1271  C     0.51250   0.07591   0.77522   0.00000  Uiso   1.00
C1272  C     0.98387   0.27981   0.73428   0.00000  Uiso   1.00
C1273  C     0.99442   0.02240   0.90502   0.00000  Uiso   1.00
C1274  C     0.96652   0.06947   0.91851   0.00000  Uiso   1.00
C1275  C     0.67821   0.09604   0.98553   0.00000  Uiso   1.00
C1276  C     0.65877   0.04925   0.93738   0.00000  Uiso   1.00
C1277  C     0.82861   0.22565   0.67281   0.00000  Uiso   1.00
C1278  C     0.86119   0.25756   0.72349   0.00000  Uiso   1.00
C1279  C     0.98725   0.26332   0.88327   0.00000  Uiso   1.00
C1280  C     0.74784   0.01086   0.80951   0.00000  Uiso   1.00
C1281  C     0.75158   0.32241   0.85716   0.00000  Uiso   1.00
C1282  C     0.66457   0.16339   0.83357   0.00000  Uiso   1.00
C1283  C     0.83539   0.17036   0.83325   0.00000  Uiso   1.00
C1284  C     0.91179   0.21598   0.86462   0.00000  Uiso   1.00
Cu1285 Cu    0.75500   0.17246   0.89479   0.00000  Uiso   1.00
Cu1286 Cu    0.74499   0.16087   0.77187   0.00000  Uiso   1.00
H1287  H     0.94367   0.04802   0.74848   0.00000  Uiso   1.00
H1288  H     0.66136   0.06414   0.77969   0.00000  Uiso   1.00
H1289  H     0.61083   0.04946   0.72722   0.00000  Uiso   1.00
H1290  H     0.59742   0.29922   0.75840   0.00000  Uiso   1.00
H1291  H     0.65445   0.30485   0.73947   0.00000  Uiso   1.00
H1292  H     0.64312   0.31631   0.81696   0.00000  Uiso   1.00
H1293  H     0.88316   0.02949   0.79157   0.00000  Uiso   1.00
H1294  H     0.82967   0.03095   0.75046   0.00000  Uiso   1.00
H1295  H     0.84249   0.07195   0.82422   0.00000  Uiso   1.00
H1296  H     0.62782   0.21232   0.96191   0.00000  Uiso   1.00
H1297  H     0.60915   0.27802   0.97656   0.00000  Uiso   1.00
H1298  H     0.55636   0.29361   0.90173   0.00000  Uiso   1.00
H1299  H     0.66720   0.26722   0.96967   0.00000  Uiso   1.00
H1300  H     0.53166   0.30604   0.68061   0.00000  Uiso   1.00
H1301  H     0.98286   0.00734   0.68321   0.00000  Uiso   1.00
H1302  H     0.96510   0.25133   0.69575   0.00000  Uiso   1.00
H1303  H     0.50919   0.25900   0.75627   0.00000  Uiso   1.00
H1304  H     0.96023   0.29581   0.76736   0.00000  Uiso   1.00
H1305  H     0.50539   0.01881   0.85913   0.00000  Uiso   1.00
H1306  H     0.52406   0.03063   0.93900   0.00000  Uiso   1.00
H1307  H     0.95636   0.07541   0.96522   0.00000  Uiso   1.00
H1308  H     0.98660   0.10527   0.91487   0.00000  Uiso   1.00
H1309  H     0.74408   0.32074   0.76342   0.00000  Uiso   1.00
H1310  H     0.93630   0.06366   0.88583   0.00000  Uiso   1.00
H1311  H     0.65820   0.13008   0.98255   0.00000  Uiso   1.00
H1312  H     0.67651   0.08594   0.69629   0.00000  Uiso   1.00
H1313  H     0.67632   0.01425   0.94265   0.00000  Uiso   1.00
H1314  H     0.62244   0.04207   0.94068   0.00000  Uiso   1.00
H1315  H     0.66451   0.05702   0.89265   0.00000  Uiso   1.00
H1316  H     0.82608   0.24643   0.96883   0.00000  Uiso   1.00
H1317  H     0.84236   0.18672   0.99162   0.00000  Uiso   1.00
H1318  H     0.88138   0.23139   0.74521   0.00000  Uiso   1.00
H1319  H     0.88429   0.28358   0.70542   0.00000  Uiso   1.00
H1320  H     0.75550   0.01254   0.90322   0.00000  Uiso   1.00
H1321  H     0.84252   0.28139   0.75795   0.00000  Uiso   1.00
H1322  H     0.84154   0.27363   0.85661   0.00000  Uiso   1.00
H1323  H     0.89531   0.30500   0.85061   0.00000  Uiso   1.00
H1324  H     0.89381   0.01530   0.96550   0.00000  Uiso   1.00
H1325  H     0.85715   0.03792   0.91124   0.00000  Uiso   1.00
H1326  H     0.83515   0.32794   0.95452   0.00000  Uiso   1.00
N1327  N     0.73744   0.15214   0.67951   0.00000  Uiso   1.00
N1328  N     0.76255   0.18119   0.98716   0.00000  Uiso   1.00
O1329  O     0.75325   0.09538   0.87326   0.00000  Uiso   1.00
O1330  O     0.60306   0.06882   0.82028   0.00000  Uiso   1.00
O1331  O     0.87411   0.09306   0.75249   0.00000  Uiso   1.00
O1332  O     0.62682   0.25253   0.88950   0.00000  Uiso   1.00
O1333  O     0.53067   0.02738   0.75959   0.00000  Uiso   1.00
O1334  O     0.96894   0.30978   0.90937   0.00000  Uiso   1.00
O1335  O     0.72282   0.10614   0.97599   0.00000  Uiso   1.00
O1336  O     0.78625   0.22081   0.69332   0.00000  Uiso   1.00
O1337  O     0.74674   0.23796   0.79341   0.00000  Uiso   1.00
O1338  O     0.74480   0.08559   0.76945   0.00000  Uiso   1.00
O1339  O     0.75520   0.24774   0.89721   0.00000  Uiso   1.00
O1340  O     0.68935   0.17155   0.88524   0.00000  Uiso   1.00
O1341  O     0.81064   0.16179   0.78143   0.00000  Uiso   1.00
O1342  O     0.68090   0.16176   0.78143   0.00000  Uiso   1.00
O1343  O     0.81910   0.17157   0.88523   0.00000  Uiso   1.00
O1344  O     0.89480   0.25315   0.90864   0.00000  Uiso   1.00
C1345  C     0.24870   0.40016   0.81800   0.00000  Uiso   1.00
C1346  C     0.08802   0.44981   0.81328   0.00000  Uiso   1.00
C1347  C     0.38385   0.50570   0.83132   0.00000  Uiso   1.00
C1348  C     0.11612   0.49620   0.83492   0.00000  Uiso   1.00
C1349  C     0.40186   0.46369   0.79381   0.00000  Uiso   1.00
C1350  C     0.09820   0.54332   0.85974   0.00000  Uiso   1.00
C1351  C     0.44823   0.46149   0.79542   0.00000  Uiso   1.00
C1352  C     0.05175   0.54634   0.85659   0.00000  Uiso   1.00
C1353  C     0.47660   0.50510   0.82669   0.00000  Uiso   1.00
C1354  C     0.02326   0.50201   0.82795   0.00000  Uiso   1.00
C1355  C     0.45840   0.55092   0.85850   0.00000  Uiso   1.00
C1356  C     0.25082   0.59981   0.84869   0.00000  Uiso   1.00
C1357  C     0.04135   0.45352   0.80479   0.00000  Uiso   1.00
C1358  C     0.46627   0.41482   0.76917   0.00000  Uiso   1.00
C1359  C     0.03371   0.59318   0.88192   0.00000  Uiso   1.00
C1360  C     0.37378   0.62393   0.88194   0.00000  Uiso   1.00
C1361  C     0.36450   0.33733   0.93131   0.00000  Uiso   1.00
C1362  C     0.12700   0.37927   0.77193   0.00000  Uiso   1.00
C1363  C     0.13047   0.65473   0.77163   0.00000  Uiso   1.00
C1364  C     0.35691   0.38837   0.78158   0.00000  Uiso   1.00
C1365  C     0.13252   0.58531   0.95178   0.00000  Uiso   1.00
C1366  C     0.00699   0.65702   0.71117   0.00000  Uiso   1.00
C1367  C     0.01250   0.40925   0.77522   0.00000  Uiso   1.00
C1368  C     0.48387   0.61314   0.73428   0.00000  Uiso   1.00
C1369  C     0.49442   0.35573   0.90502   0.00000  Uiso   1.00
C1370  C     0.46652   0.40281   0.91851   0.00000  Uiso   1.00
C1371  C     0.17821   0.42938   0.98553   0.00000  Uiso   1.00
C1372  C     0.15877   0.38259   0.93738   0.00000  Uiso   1.00
C1373  C     0.32861   0.55899   0.67281   0.00000  Uiso   1.00
C1374  C     0.36119   0.59089   0.72349   0.00000  Uiso   1.00
C1375  C     0.48725   0.59665   0.88327   0.00000  Uiso   1.00
C1376  C     0.24784   0.34419   0.80951   0.00000  Uiso   1.00
C1377  C     0.25158   0.65575   0.85716   0.00000  Uiso   1.00
C1378  C     0.16457   0.49673   0.83357   0.00000  Uiso   1.00
C1379  C     0.33539   0.50369   0.83325   0.00000  Uiso   1.00
C1380  C     0.41179   0.54931   0.86462   0.00000  Uiso   1.00
Cu1381 Cu    0.25500   0.50579   0.89479   0.00000  Uiso   1.00
Cu1382 Cu    0.24499   0.49421   0.77187   0.00000  Uiso   1.00
H1383  H     0.44367   0.38136   0.74848   0.00000  Uiso   1.00
H1384  H     0.16136   0.39747   0.77969   0.00000  Uiso   1.00
H1385  H     0.11083   0.38279   0.72722   0.00000  Uiso   1.00
H1386  H     0.09742   0.63255   0.75840   0.00000  Uiso   1.00
H1387  H     0.15445   0.63819   0.73947   0.00000  Uiso   1.00
H1388  H     0.14312   0.64964   0.81696   0.00000  Uiso   1.00
H1389  H     0.38316   0.36283   0.79157   0.00000  Uiso   1.00
H1390  H     0.32967   0.36429   0.75046   0.00000  Uiso   1.00
H1391  H     0.34249   0.40529   0.82422   0.00000  Uiso   1.00
H1392  H     0.12782   0.54565   0.96191   0.00000  Uiso   1.00
H1393  H     0.10915   0.61135   0.97656   0.00000  Uiso   1.00
H1394  H     0.05636   0.62695   0.90173   0.00000  Uiso   1.00
H1395  H     0.16720   0.60055   0.96967   0.00000  Uiso   1.00
H1396  H     0.03166   0.63937   0.68061   0.00000  Uiso   1.00
H1397  H     0.48286   0.34067   0.68321   0.00000  Uiso   1.00
H1398  H     0.46510   0.58466   0.69575   0.00000  Uiso   1.00
H1399  H     0.00919   0.59234   0.75627   0.00000  Uiso   1.00
H1400  H     0.46023   0.62915   0.76736   0.00000  Uiso   1.00
H1401  H     0.00539   0.35215   0.85913   0.00000  Uiso   1.00
H1402  H     0.02406   0.36396   0.93900   0.00000  Uiso   1.00
H1403  H     0.45636   0.40874   0.96522   0.00000  Uiso   1.00
H1404  H     0.48660   0.43860   0.91487   0.00000  Uiso   1.00
H1405  H     0.24408   0.65407   0.76342   0.00000  Uiso   1.00
H1406  H     0.43630   0.39700   0.88583   0.00000  Uiso   1.00
H1407  H     0.15820   0.46341   0.98255   0.00000  Uiso   1.00
H1408  H     0.17651   0.41927   0.69629   0.00000  Uiso   1.00
H1409  H     0.17632   0.34759   0.94265   0.00000  Uiso   1.00
H1410  H     0.12244   0.37540   0.94068   0.00000  Uiso   1.00
H1411  H     0.16451   0.39035   0.89265   0.00000  Uiso   1.00
H1412  H     0.32608   0.57976   0.96883   0.00000  Uiso   1.00
H1413  H     0.34236   0.52005   0.99162   0.00000  Uiso   1.00
H1414  H     0.38138   0.56472   0.74521   0.00000  Uiso   1.00
H1415  H     0.38429   0.61691   0.70542   0.00000  Uiso   1.00
H1416  H     0.25550   0.34588   0.90322   0.00000  Uiso   1.00
H1417  H     0.34252   0.61473   0.75795   0.00000  Uiso   1.00
H1418  H     0.34154   0.60696   0.85661   0.00000  Uiso   1.00
H1419  H     0.39531   0.63834   0.85061   0.00000  Uiso   1.00
H1420  H     0.39381   0.34863   0.96550   0.00000  Uiso   1.00
H1421  H     0.35715   0.37126   0.91124   0.00000  Uiso   1.00
H1422  H     0.33515   0.66128   0.95452   0.00000  Uiso   1.00
N1423  N     0.23744   0.48547   0.67951   0.00000  Uiso   1.00
N1424  N     0.26255   0.51453   0.98716   0.00000  Uiso   1.00
O1425  O     0.25325   0.42871   0.87326   0.00000  Uiso   1.00
O1426  O     0.10306   0.40216   0.82028   0.00000  Uiso   1.00
O1427  O     0.37411   0.42639   0.75249   0.00000  Uiso   1.00
O1428  O     0.12682   0.58586   0.88950   0.00000  Uiso   1.00
O1429  O     0.03067   0.36071   0.75959   0.00000  Uiso   1.00
O1430  O     0.46894   0.64311   0.90937   0.00000  Uiso   1.00
O1431  O     0.22282   0.43948   0.97599   0.00000  Uiso   1.00
O1432  O     0.28625   0.55415   0.69332   0.00000  Uiso   1.00
O1433  O     0.24674   0.57129   0.79341   0.00000  Uiso   1.00
O1434  O     0.24480   0.41892   0.76945   0.00000  Uiso   1.00
O1435  O     0.25520   0.58108   0.89721   0.00000  Uiso   1.00
O1436  O     0.18935   0.50488   0.88524   0.00000  Uiso   1.00
O1437  O     0.31064   0.49512   0.78143   0.00000  Uiso   1.00
O1438  O     0.18090   0.49510   0.78143   0.00000  Uiso   1.00
O1439  O     0.31910   0.50490   0.88523   0.00000  Uiso   1.00
O1440  O     0.39480   0.58649   0.90864   0.00000  Uiso   1.00
C1441  C     0.74870   0.40016   0.81800   0.00000  Uiso   1.00
C1442  C     0.58802   0.44981   0.81328   0.00000  Uiso   1.00
C1443  C     0.88385   0.50570   0.83132   0.00000  Uiso   1.00
C1444  C     0.61612   0.49620   0.83492   0.00000  Uiso   1.00
C1445  C     0.90186   0.46369   0.79381   0.00000  Uiso   1.00
C1446  C     0.59820   0.54332   0.85974   0.00000  Uiso   1.00
C1447  C     0.94823   0.46149   0.79542   0.00000  Uiso   1.00
C1448  C     0.55175   0.54634   0.85659   0.00000  Uiso   1.00
C1449  C     0.97660   0.50510   0.82669   0.00000  Uiso   1.00
C1450  C     0.52326   0.50201   0.82795   0.00000  Uiso   1.00
C1451  C     0.95840   0.55092   0.85850   0.00000  Uiso   1.00
C1452  C     0.75082   0.59981   0.84869   0.00000  Uiso   1.00
C1453  C     0.54135   0.45352   0.80479   0.00000  Uiso   1.00
C1454  C     0.96627   0.41482   0.76917   0.00000  Uiso   1.00
C1455  C     0.53371   0.59318   0.88192   0.00000  Uiso   1.00
C1456  C     0.87378   0.62393   0.88194   0.00000  Uiso   1.00
C1457  C     0.86450   0.33733   0.93131   0.00000  Uiso   1.00
C1458  C     0.62700   0.37927   0.77193   0.00000  Uiso   1.00
C1459  C     0.63047   0.65473   0.77163   0.00000  Uiso   1.00
C1460  C     0.85691   0.38837   0.78158   0.00000  Uiso   1.00
C1461  C     0.63252   0.58531   0.95178   0.00000  Uiso   1.00
C1462  C     0.50699   0.65702   0.71117   0.00000  Uiso   1.00
C1463  C     0.51250   0.40925   0.77522   0.00000  Uiso   1.00
C1464  C     0.98387   0.61314   0.73428   0.00000  Uiso   1.00
C1465  C     0.99442   0.35573   0.90502   0.00000  Uiso   1.00
C1466  C     0.96652   0.40281   0.91851   0.00000  Uiso   1.00
C1467  C     0.67821   0.42938   0.98553   0.00000  Uiso   1.00
C1468  C     0.65877   0.38259   0.93738   0.00000  Uiso   1.00
C1469  C     0.82861   0.55899   0.67281   0.00000  Uiso   1.00
C1470  C     0.86119   0.59089   0.72349   0.00000  Uiso   1.00
C1471  C     0.98725   0.59665   0.88327   0.00000  Uiso   1.00
C1472  C     0.74784   0.34419   0.80951   0.00000  Uiso   1.00
C1473  C     0.75158   0.65575   0.85716   0.00000  Uiso   1.00
C1474  C     0.66457   0.49673   0.83357   0.00000  Uiso   1.00
C1475  C     0.83539   0.50369   0.83325   0.00000  Uiso   1.00
C1476  C     0.91179   0.54931   0.86462   0.00000  Uiso   1.00
Cu1477 Cu    0.75500   0.50579   0.89479   0.00000  Uiso   1.00
Cu1478 Cu    0.74499   0.49421   0.77187   0.00000  Uiso   1.00
H1479  H     0.94367   0.38136   0.74848   0.00000  Uiso   1.00
H1480  H     0.66136   0.39747   0.77969   0.00000  Uiso   1.00
H1481  H     0.61083   0.38279   0.72722   0.00000  Uiso   1.00
H1482  H     0.59742   0.63255   0.75840   0.00000  Uiso   1.00
H1483  H     0.65445   0.63819   0.73947   0.00000  Uiso   1.00
H1484  H     0.64312   0.64964   0.81696   0.00000  Uiso   1.00
H1485  H     0.88316   0.36283   0.79157   0.00000  Uiso   1.00
H1486  H     0.82967   0.36429   0.75046   0.00000  Uiso   1.00
H1487  H     0.84249   0.40529   0.82422   0.00000  Uiso   1.00
H1488  H     0.62782   0.54565   0.96191   0.00000  Uiso   1.00
H1489  H     0.60915   0.61135   0.97656   0.00000  Uiso   1.00
H1490  H     0.55636   0.62695   0.90173   0.00000  Uiso   1.00
H1491  H     0.66720   0.60055   0.96967   0.00000  Uiso   1.00
H1492  H     0.53166   0.63937   0.68061   0.00000  Uiso   1.00
H1493  H     0.98286   0.34067   0.68321   0.00000  Uiso   1.00
H1494  H     0.96510   0.58466   0.69575   0.00000  Uiso   1.00
H1495  H     0.50919   0.59234   0.75627   0.00000  Uiso   1.00
H1496  H     0.96023   0.62915   0.76736   0.00000  Uiso   1.00
H1497  H     0.50539   0.35215   0.85913   0.00000  Uiso   1.00
H1498  H     0.52406   0.36396   0.93900   0.00000  Uiso   1.00
H1499  H     0.95636   0.40874   0.96522   0.00000  Uiso   1.00
H1500  H     0.98660   0.43860   0.91487   0.00000  Uiso   1.00
H1501  H     0.74408   0.65407   0.76342   0.00000  Uiso   1.00
H1502  H     0.93630   0.39700   0.88583   0.00000  Uiso   1.00
H1503  H     0.65820   0.46341   0.98255   0.00000  Uiso   1.00
H1504  H     0.67651   0.41927   0.69629   0.00000  Uiso   1.00
H1505  H     0.67632   0.34759   0.94265   0.00000  Uiso   1.00
H1506  H     0.62244   0.37540   0.94068   0.00000  Uiso   1.00
H1507  H     0.66451   0.39035   0.89265   0.00000  Uiso   1.00
H1508  H     0.82608   0.57976   0.96883   0.00000  Uiso   1.00
H1509  H     0.84236   0.52005   0.99162   0.00000  Uiso   1.00
H1510  H     0.88138   0.56472   0.74521   0.00000  Uiso   1.00
H1511  H     0.88429   0.61691   0.70542   0.00000  Uiso   1.00
H1512  H     0.75550   0.34588   0.90322   0.00000  Uiso   1.00
H1513  H     0.84252   0.61473   0.75795   0.00000  Uiso   1.00
H1514  H     0.84154   0.60696   0.85661   0.00000  Uiso   1.00
H1515  H     0.89531   0.63834   0.85061   0.00000  Uiso   1.00
H1516  H     0.89381   0.34863   0.96550   0.00000  Uiso   1.00
H1517  H     0.85715   0.37126   0.91124   0.00000  Uiso   1.00
H1518  H     0.83515   0.66128   0.95452   0.00000  Uiso   1.00
N1519  N     0.73744   0.48547   0.67951   0.00000  Uiso   1.00
N1520  N     0.76255   0.51453   0.98716   0.00000  Uiso   1.00
O1521  O     0.75325   0.42871   0.87326   0.00000  Uiso   1.00
O1522  O     0.60306   0.40216   0.82028   0.00000  Uiso   1.00
O1523  O     0.87411   0.42639   0.75249   0.00000  Uiso   1.00
O1524  O     0.62682   0.58586   0.88950   0.00000  Uiso   1.00
O1525  O     0.53067   0.36071   0.75959   0.00000  Uiso   1.00
O1526  O     0.96894   0.64311   0.90937   0.00000  Uiso   1.00
O1527  O     0.72282   0.43948   0.97599   0.00000  Uiso   1.00
O1528  O     0.78625   0.55415   0.69332   0.00000  Uiso   1.00
O1529  O     0.74674   0.57129   0.79341   0.00000  Uiso   1.00
O1530  O     0.74480   0.41892   0.76945   0.00000  Uiso   1.00
O1531  O     0.75520   0.58108   0.89721   0.00000  Uiso   1.00
O1532  O     0.68935   0.50488   0.88524   0.00000  Uiso   1.00
O1533  O     0.81064   0.49512   0.78143   0.00000  Uiso   1.00
O1534  O     0.68090   0.49510   0.78143   0.00000  Uiso   1.00
O1535  O     0.81910   0.50490   0.88523   0.00000  Uiso   1.00
O1536  O     0.89480   0.58649   0.90864   0.00000  Uiso   1.00
C1537  C     0.24870   0.73349   0.81800   0.00000  Uiso   1.00
C1538  C     0.08802   0.78314   0.81328   0.00000  Uiso   1.00
C1539  C     0.38385   0.83904   0.83132   0.00000  Uiso   1.00
C1540  C     0.11612   0.82953   0.83492   0.00000  Uiso   1.00
C1541  C     0.40186   0.79702   0.79381   0.00000  Uiso   1.00
C1542  C     0.09820   0.87665   0.85974   0.00000  Uiso   1.00
C1543  C     0.44823   0.79482   0.79542   0.00000  Uiso   1.00
C1544  C     0.05175   0.87967   0.85659   0.00000  Uiso   1.00
C1545  C     0.47660   0.83844   0.82669   0.00000  Uiso   1.00
C1546  C     0.02326   0.83535   0.82795   0.00000  Uiso   1.00
C1547  C     0.45840   0.88425   0.85850   0.00000  Uiso   1.00
C1548  C     0.25082   0.93314   0.84869   0.00000  Uiso   1.00
C1549  C     0.04135   0.78686   0.80479   0.00000  Uiso   1.00
C1550  C     0.46627   0.74816   0.76917   0.00000  Uiso   1.00
C1551  C     0.03371   0.92651   0.88192   0.00000  Uiso   1.00
C1552  C     0.37378   0.95726   0.88194   0.00000  Uiso   1.00
C1553  C     0.36450   0.67066   0.93131   0.00000  Uiso   1.00
C1554  C     0.12700   0.71260   0.77193   0.00000  Uiso   1.00
C1555  C     0.13047   0.98806   0.77163   0.00000  Uiso   1.00
C1556  C     0.35691   0.72171   0.78158   0.00000  Uiso   1.00
C1557  C     0.13252   0.91865   0.95178   0.00000  Uiso   1.00
C1558  C     0.00699   0.99035   0.71117   0.00000  Uiso   1.00
C1559  C     0.01250   0.74258   0.77522   0.00000  Uiso   1.00
C1560  C     0.48387   0.94648   0.73428   0.00000  Uiso   1.00
C1561  C     0.49442   0.68906   0.90502   0.00000  Uiso   1.00
C1562  C     0.46652   0.73614   0.91851   0.00000  Uiso   1.00
C1563  C     0.17821   0.76271   0.98553   0.00000  Uiso   1.00
C1564  C     0.15877   0.71592   0.93738   0.00000  Uiso   1.00
C1565  C     0.32861   0.89232   0.67281   0.00000  Uiso   1.00
C1566  C     0.36119   0.92423   0.72349   0.00000  Uiso   1.00
C1567  C     0.48725   0.92999   0.88327   0.00000  Uiso   1.00
C1568  C     0.24784   0.67753   0.80951   0.00000  Uiso   1.00
C1569  C     0.25158   0.98908   0.85716   0.00000  Uiso   1.00
C1570  C     0.16457   0.83006   0.83357   0.00000  Uiso   1.00
C1571  C     0.33539   0.83703   0.83325   0.00000  Uiso   1.00
C1572  C     0.41179   0.88265   0.86462   0.00000  Uiso   1.00
Cu1573 Cu    0.25500   0.83913   0.89479   0.00000  Uiso   1.00
Cu1574 Cu    0.24499   0.82754   0.77187   0.00000  Uiso   1.00
H1575  H     0.44367   0.71469   0.74848   0.00000  Uiso   1.00
H1576  H     0.16136   0.73080   0.77969   0.00000  Uiso   1.00
H1577  H     0.11083   0.71613   0.72722   0.00000  Uiso   1.00
H1578  H     0.09742   0.96589   0.75840   0.00000  Uiso   1.00
H1579  H     0.15445   0.97152   0.73947   0.00000  Uiso   1.00
H1580  H     0.14312   0.98297   0.81696   0.00000  Uiso   1.00
H1581  H     0.38316   0.69616   0.79157   0.00000  Uiso   1.00
H1582  H     0.32967   0.69762   0.75046   0.00000  Uiso   1.00
H1583  H     0.34249   0.73862   0.82422   0.00000  Uiso   1.00
H1584  H     0.12782   0.87898   0.96191   0.00000  Uiso   1.00
H1585  H     0.10915   0.94468   0.97656   0.00000  Uiso   1.00
H1586  H     0.05636   0.96028   0.90173   0.00000  Uiso   1.00
H1587  H     0.16720   0.93389   0.96967   0.00000  Uiso   1.00
H1588  H     0.03166   0.97271   0.68061   0.00000  Uiso   1.00
H1589  H     0.48286   0.67401   0.68321   0.00000  Uiso   1.00
H1590  H     0.46510   0.91799   0.69575   0.00000  Uiso   1.00
H1591  H     0.00919   0.92567   0.75627   0.00000  Uiso   1.00
H1592  H     0.46023   0.96248   0.76736   0.00000  Uiso   1.00
H1593  H     0.00539   0.68548   0.85913   0.00000  Uiso   1.00
H1594  H     0.02406   0.69729   0.93900   0.00000  Uiso   1.00
H1595  H     0.45636   0.74207   0.96522   0.00000  Uiso   1.00
H1596  H     0.48660   0.77194   0.91487   0.00000  Uiso   1.00
H1597  H     0.24408   0.98740   0.76342   0.00000  Uiso   1.00
H1598  H     0.43630   0.73033   0.88583   0.00000  Uiso   1.00
H1599  H     0.15820   0.79675   0.98255   0.00000  Uiso   1.00
H1600  H     0.17651   0.75260   0.69629   0.00000  Uiso   1.00
H1601  H     0.17632   0.68092   0.94265   0.00000  Uiso   1.00
H1602  H     0.12244   0.70873   0.94068   0.00000  Uiso   1.00
H1603  H     0.16451   0.72369   0.89265   0.00000  Uiso   1.00
H1604  H     0.32608   0.91309   0.96883   0.00000  Uiso   1.00
H1605  H     0.34236   0.85339   0.99162   0.00000  Uiso   1.00
H1606  H     0.38138   0.89806   0.74521   0.00000  Uiso   1.00
H1607  H     0.38429   0.95025   0.70542   0.00000  Uiso   1.00
H1608  H     0.25550   0.67921   0.90322   0.00000  Uiso   1.00
H1609  H     0.34252   0.94806   0.75795   0.00000  Uiso   1.00
H1610  H     0.34154   0.94029   0.85661   0.00000  Uiso   1.00
H1611  H     0.39531   0.97167   0.85061   0.00000  Uiso   1.00
H1612  H     0.39381   0.68197   0.96550   0.00000  Uiso   1.00
H1613  H     0.35715   0.70459   0.91124   0.00000  Uiso   1.00
H1614  H     0.33515   0.99461   0.95452   0.00000  Uiso   1.00
N1615  N     0.23744   0.81881   0.67951   0.00000  Uiso   1.00
N1616  N     0.26255   0.84786   0.98716   0.00000  Uiso   1.00
O1617  O     0.25325   0.76204   0.87326   0.00000  Uiso   1.00
O1618  O     0.10306   0.73549   0.82028   0.00000  Uiso   1.00
O1619  O     0.37411   0.75972   0.75249   0.00000  Uiso   1.00
O1620  O     0.12682   0.91919   0.88950   0.00000  Uiso   1.00
O1621  O     0.03067   0.69404   0.75959   0.00000  Uiso   1.00
O1622  O     0.46894   0.97645   0.90937   0.00000  Uiso   1.00
O1623  O     0.22282   0.77281   0.97599   0.00000  Uiso   1.00
O1624  O     0.28625   0.88748   0.69332   0.00000  Uiso   1.00
O1625  O     0.24674   0.90462   0.79341   0.00000  Uiso   1.00
O1626  O     0.24480   0.75226   0.76945   0.00000  Uiso   1.00
O1627  O     0.25520   0.91441   0.89721   0.00000  Uiso   1.00
O1628  O     0.18935   0.83821   0.88524   0.00000  Uiso   1.00
O1629  O     0.31064   0.82845   0.78143   0.00000  Uiso   1.00
O1630  O     0.18090   0.82843   0.78143   0.00000  Uiso   1.00
O1631  O     0.31910   0.83824   0.88523   0.00000  Uiso   1.00
O1632  O     0.39480   0.91982   0.90864   0.00000  Uiso   1.00
C1633  C     0.74870   0.73349   0.81800   0.00000  Uiso   1.00
C1634  C     0.58802   0.78314   0.81328   0.00000  Uiso   1.00
C1635  C     0.88385   0.83904   0.83132   0.00000  Uiso   1.00
C1636  C     0.61612   0.82953   0.83492   0.00000  Uiso   1.00
C1637  C     0.90186   0.79702   0.79381   0.00000  Uiso   1.00
C1638  C     0.59820   0.87665   0.85974   0.00000  Uiso   1.00
C1639  C     0.94823   0.79482   0.79542   0.00000  Uiso   1.00
C1640  C     0.55175   0.87967   0.85659   0.00000  Uiso   1.00
C1641  C     0.97660   0.83844   0.82669   0.00000  Uiso   1.00
C1642  C     0.52326   0.83535   0.82795   0.00000  Uiso   1.00
C1643  C     0.95840   0.88425   0.85850   0.00000  Uiso   1.00
C1644  C     0.75082   0.93314   0.84869   0.00000  Uiso   1.00
C1645  C     0.54135   0.78686   0.80479   0.00000  Uiso   1.00
C1646  C     0.96627   0.74816   0.76917   0.00000  Uiso   1.00
C1647  C     0.53371   0.92651   0.88192   0.00000  Uiso   1.00
C1648  C     0.87378   0.95726   0.88194   0.00000  Uiso   1.00
C1649  C     0.86450   0.67066   0.93131   0.00000  Uiso   1.00
C1650  C     0.62700   0.71260   0.77193   0.00000  Uiso   1.00
C1651  C     0.63047   0.98806   0.77163   0.00000  Uiso   1.00
C1652  C     0.85691   0.72171   0.78158   0.00000  Uiso   1.00
C1653  C     0.63252   0.91865   0.95178   0.00000  Uiso   1.00
C1654  C     0.50699   0.99035   0.71117   0.00000  Uiso   1.00
C1655  C     0.51250   0.74258   0.77522   0.00000  Uiso   1.00
C1656  C     0.98387   0.94648   0.73428   0.00000  Uiso   1.00
C1657  C     0.99442   0.68906   0.90502   0.00000  Uiso   1.00
C1658  C     0.96652   0.73614   0.91851   0.00000  Uiso   1.00
C1659  C     0.67821   0.76271   0.98553   0.00000  Uiso   1.00
C1660  C     0.65877   0.71592   0.93738   0.00000  Uiso   1.00
C1661  C     0.82861   0.89232   0.67281   0.00000  Uiso   1.00
C1662  C     0.86119   0.92423   0.72349   0.00000  Uiso   1.00
C1663  C     0.98725   0.92999   0.88327   0.00000  Uiso   1.00
C1664  C     0.74784   0.67753   0.80951   0.00000  Uiso   1.00
C1665  C     0.75158   0.98908   0.85716   0.00000  Uiso   1.00
C1666  C     0.66457   0.83006   0.83357   0.00000  Uiso   1.00
C1667  C     0.83539   0.83703   0.83325   0.00000  Uiso   1.00
C1668  C     0.91179   0.88265   0.86462   0.00000  Uiso   1.00
Cu1669 Cu    0.75500   0.83913   0.89479   0.00000  Uiso   1.00
Cu1670 Cu    0.74499   0.82754   0.77187   0.00000  Uiso   1.00
H1671  H     0.94367   0.71469   0.74848   0.00000  Uiso   1.00
H1672  H     0.66136   0.73080   0.77969   0.00000  Uiso   1.00
H1673  H     0.61083   0.71613   0.72722   0.00000  Uiso   1.00
H1674  H     0.59742   0.96589   0.75840   0.00000  Uiso   1.00
H1675  H     0.65445   0.97152   0.73947   0.00000  Uiso   1.00
H1676  H     0.64312   0.98297   0.81696   0.00000  Uiso   1.00
H1677  H     0.88316   0.69616   0.79157   0.00000  Uiso   1.00
H1678  H     0.82967   0.69762   0.75046   0.00000  Uiso   1.00
H1679  H     0.84249   0.73862   0.82422   0.00000  Uiso   1.00
H1680  H     0.62782   0.87898   0.96191   0.00000  Uiso   1.00
H1681  H     0.60915   0.94468   0.97656   0.00000  Uiso   1.00
H1682  H     0.55636   0.96028   0.90173   0.00000  Uiso   1.00
H1683  H     0.66720   0.93389   0.96967   0.00000  Uiso   1.00
H1684  H     0.53166   0.97271   0.68061   0.00000  Uiso   1.00
H1685  H     0.98286   0.67401   0.68321   0.00000  Uiso   1.00
H1686  H     0.96510   0.91799   0.69575   0.00000  Uiso   1.00
H1687  H     0.50919   0.92567   0.75627   0.00000  Uiso   1.00
H1688  H     0.96023   0.96248   0.76736   0.00000  Uiso   1.00
H1689  H     0.50539   0.68548   0.85913   0.00000  Uiso   1.00
H1690  H     0.52406   0.69729   0.93900   0.00000  Uiso   1.00
H1691  H     0.95636   0.74207   0.96522   0.00000  Uiso   1.00
H1692  H     0.98660   0.77194   0.91487   0.00000  Uiso   1.00
H1693  H     0.74408   0.98740   0.76342   0.00000  Uiso   1.00
H1694  H     0.93630   0.73033   0.88583   0.00000  Uiso   1.00
H1695  H     0.65820   0.79675   0.98255   0.00000  Uiso   1.00
H1696  H     0.67651   0.75260   0.69629   0.00000  Uiso   1.00
H1697  H     0.67632   0.68092   0.94265   0.00000  Uiso   1.00
H1698  H     0.62244   0.70873   0.94068   0.00000  Uiso   1.00
H1699  H     0.66451   0.72369   0.89265   0.00000  Uiso   1.00
H1700  H     0.82608   0.91309   0.96883   0.00000  Uiso   1.00
H1701  H     0.84236   0.85339   0.99162   0.00000  Uiso   1.00
H1702  H     0.88138   0.89806   0.74521   0.00000  Uiso   1.00
H1703  H     0.88429   0.95025   0.70542   0.00000  Uiso   1.00
H1704  H     0.75550   0.67921   0.90322   0.00000  Uiso   1.00
H1705  H     0.84252   0.94806   0.75795   0.00000  Uiso   1.00
H1706  H     0.84154   0.94029   0.85661   0.00000  Uiso   1.00
H1707  H     0.89531   0.97167   0.85061   0.00000  Uiso   1.00
H1708  H     0.89381   0.68197   0.96550   0.00000  Uiso   1.00
H1709  H     0.85715   0.70459   0.91124   0.00000  Uiso   1.00
H1710  H     0.83515   0.99461   0.95452   0.00000  Uiso   1.00
N1711  N     0.73744   0.81881   0.67951   0.00000  Uiso   1.00
N1712  N     0.76255   0.84786   0.98716   0.00000  Uiso   1.00
O1713  O     0.75325   0.76204   0.87326   0.00000  Uiso   1.00
O1714  O     0.60306   0.73549   0.82028   0.00000  Uiso   1.00
O1715  O     0.87411   0.75972   0.75249   0.00000  Uiso   1.00
O1716  O     0.62682   0.91919   0.88950   0.00000  Uiso   1.00
O1717  O     0.53067   0.69404   0.75959   0.00000  Uiso   1.00
O1718  O     0.96894   0.97645   0.90937   0.00000  Uiso   1.00
O1719  O     0.72282   0.77281   0.97599   0.00000  Uiso   1.00
O1720  O     0.78625   0.88748   0.69332   0.00000  Uiso   1.00
O1721  O     0.74674   0.90462   0.79341   0.00000  Uiso   1.00
O1722  O     0.74480   0.75226   0.76945   0.00000  Uiso   1.00
O1723  O     0.75520   0.91441   0.89721   0.00000  Uiso   1.00
O1724  O     0.68935   0.83821   0.88524   0.00000  Uiso   1.00
O1725  O     0.81064   0.82845   0.78143   0.00000  Uiso   1.00
O1726  O     0.68090   0.82843   0.78143   0.00000  Uiso   1.00
O1727  O     0.81910   0.83824   0.88523   0.00000  Uiso   1.00
O1728  O     0.89480   0.91982   0.90864   0.00000  Uiso   1.00
loop_
_geom_bond_atom_site_label_1
_geom_bond_atom_site_label_2
_geom_bond_distance
_geom_bond_site_symmetry_2
_ccdc_geom_bond_type
C1     O90     1.301   .     A
C1     O81     1.308   .     A
C1     C32     1.436   .     S
C2     C4      1.413   .     A
C2     C13     1.414   .     A
C2     O82     1.388   .     S
C3     C35     1.461   .     S
C3     C5      1.403   .     A
C3     C36     1.415   .     A
C4     C34     1.461   .     S
C4     C6      1.398   .     A
C5     O83     1.386   .     S
C5     C7      1.398   .     A
C6     O84     1.384   .     S
C6     C8      1.401   .     A
C7     C14     1.399   .     A
C7     C9      1.408   .     A
C8     C15     1.397   .     A
C8     C10     1.407   .     A
C9     C11     1.423   .     A
C9     C106    1.410   .     S
C10    C13     1.422   .     A
C10    C105    1.410   1_455 S
C11    C36     1.420   .     A
C11    C31     1.422   .     A
C12    O91     1.301   .     A
C12    O89     1.308   .     A
C12    C33     1.435   .     S
C13    C23     1.417   .     A
C14    H39     1.075   .     S
C14    C119    1.406   .     S
C15    H50     1.078   .     S
C15    C127    1.409   1_455 S
C16    H75     1.111   .     S
C16    H74     1.105   .     S
C16    O96     1.412   .     S
C16    C209    1.527   .     S
C17    H76     1.109   .     S
C17    H77     1.108   .     S
C17    C400    1.527   1_545 S
C17    H462    1.108   1_545 S
C18    H40     1.099   .     S
C18    H41     1.115   .     S
C18    O82     1.406   .     S
C18    C403    1.524   1_545 S
C19    H42     1.109   .     S
C19    H43     1.107   .     S
C19    H44     1.107   .     S
C19    C210    1.524   .     S
C20    H45     1.104   .     S
C20    H47     1.108   .     S
C20    O83     1.407   .     S
C20    H46     1.108   .     S
C21    H48     1.116   .     S
C21    H49     1.108   .     S
C21    O84     1.415   .     S
C21    H51     1.109   .     S
C22    H52     1.109   .     S
C22    C120    1.521   1_455 S
C22    H341    1.101   1_455 S
C22    O277    1.412   .     S
C23    O85     1.398   .     S
C23    C110    1.406   1_455 S
C24    H54     1.111   .     S
C24    H56     1.109   .     S
C24    C118    1.521   .     S
C24    H151    1.109   .     S
C25    C26     1.521   .     S
C25    H153    1.105   .     S
C25    H154    1.111   .     S
C25    O470    1.418   1_545 S
C26    H59     1.109   .     S
C26    H62     1.108   .     S
C26    H60     1.110   .     S
C27    O87     1.397   .     S
C27    H63     1.114   .     S
C27    C28     1.510   .     S
C27    H640    1.095   .     S
C28    H67     1.104   .     S
C28    H66     1.111   .     S
C28    H65     1.107   .     S
C29    O88     1.401   .     S
C29    C30     1.515   .     S
C29    H1220   1.102   1_554 S
C29    H1221   1.115   1_554 S
C30    H71     1.110   .     S
C30    H70     1.108   .     S
C30    H73     1.104   .     S
C31    O86     1.397   .     S
C31    C111    1.409   .     S
C32    C417    1.328   1_545 S
C32    H445    1.087   1_545 S
C33    C224    1.328   .     S
C33    H264    1.087   .     S
C34    O94     1.312   .     A
C34    O92     1.309   .     A
C35    O93     1.310   .     A
C35    O95     1.310   .     A
C36    O96     1.388   .     S
Cu37   O95     1.960   .     S
Cu37   Cu38    2.733   .     S
Cu37   O81     1.969   .     S
Cu37   N80     2.054   .     S
Cu37   O91     1.961   .     S
Cu37   O92     1.968   .     S
Cu38   O89     1.969   .     S
Cu38   N79     2.054   .     S
Cu38   O94     1.960   .     S
Cu38   O90     1.961   .     S
Cu38   O93     1.968   .     S
H53    C502    1.101   1_545 S
H55    C120    1.109   1_455 S
H57    C121    1.105   1_455 S
H58    C121    1.111   1_455 S
H61    C224    1.087   .     S
H64    C1179   1.095   1_554 S
H68    C605    1.102   .     S
H69    C605    1.115   .     S
H72    C417    1.087   1_545 S
H78    C209    1.108   .     S
N79    N1232   1.301   1_554 S
N79    O1239   1.339   1_554 S
N80    N655    1.301   .     S
N80    O664    1.343   .     S
O85    C406    1.412   1_545 S
O86    C217    1.418   .     S
O87    N655    1.339   .     S
O88    N1232   1.343   1_554 S
C97    O186    1.301   .     A
C97    O177    1.308   .     A
C97    C128    1.436   .     S
C98    C100    1.413   .     A
C98    C109    1.414   .     A
C98    O178    1.388   .     S
C99    C131    1.461   .     S
C99    C101    1.403   .     A
C99    C132    1.415   .     A
C100   C130    1.461   .     S
C100   C102    1.398   .     A
C101   O179    1.386   .     S
C101   C103    1.398   .     A
C102   O180    1.384   .     S
C102   C104    1.401   .     A
C103   C110    1.399   .     A
C103   C105    1.408   .     A
C104   C111    1.397   .     A
C104   C106    1.407   .     A
C105   C107    1.423   .     A
C105   C10     1.410   1_655 S
C106   C109    1.422   .     A
C107   C132    1.420   .     A
C107   C127    1.422   .     A
C108   O187    1.301   .     A
C108   O185    1.308   .     A
C108   C129    1.435   .     S
C109   C119    1.417   .     A
C110   H135    1.075   .     S
C110   C23     1.406   1_655 S
C111   H146    1.078   .     S
C112   H171    1.111   .     S
C112   H170    1.105   .     S
C112   O192    1.412   .     S
C112   C305    1.527   .     S
C113   H172    1.109   .     S
C113   H173    1.108   .     S
C113   C496    1.527   1_545 S
C113   H558    1.108   1_545 S
C114   H136    1.099   .     S
C114   H137    1.115   .     S
C114   O178    1.406   .     S
C114   C499    1.524   1_545 S
C115   H138    1.109   .     S
C115   H139    1.107   .     S
C115   H140    1.107   .     S
C115   C306    1.524   .     S
C116   H141    1.104   .     S
C116   H143    1.108   .     S
C116   O179    1.407   .     S
C116   H142    1.108   .     S
C117   H144    1.116   .     S
C117   H145    1.108   .     S
C117   O180    1.415   .     S
C117   H147    1.109   .     S
C118   H148    1.109   .     S
C118   H245    1.101   .     S
C118   O373    1.412   .     S
C119   O181    1.398   .     S
C120   H150    1.111   .     S
C120   H152    1.109   .     S
C120   C22     1.521   1_655 S
C120   H55     1.109   1_655 S
C121   C122    1.521   .     S
C121   H57     1.105   1_655 S
C121   H58     1.111   1_655 S
C121   O566    1.418   1_545 S
C122   H155    1.109   .     S
C122   H158    1.108   .     S
C122   H156    1.110   .     S
C123   O183    1.397   .     S
C123   H159    1.114   .     S
C123   C124    1.510   .     S
C123   H736    1.095   .     S
C124   H163    1.104   .     S
C124   H162    1.111   .     S
C124   H161    1.107   .     S
C125   O184    1.401   .     S
C125   C126    1.515   .     S
C125   H1316   1.102   1_554 S
C125   H1317   1.115   1_554 S
C126   H167    1.110   .     S
C126   H166    1.108   .     S
C126   H169    1.104   .     S
C127   O182    1.397   .     S
C127   C15     1.409   1_655 S
C128   C513    1.328   1_545 S
C128   H541    1.087   1_545 S
C129   C320    1.328   .     S
C129   H360    1.087   .     S
C130   O190    1.312   .     A
C130   O188    1.309   .     A
C131   O189    1.310   .     A
C131   O191    1.310   .     A
C132   O192    1.388   .     S
Cu133  O191    1.960   .     S
Cu133  Cu134   2.733   .     S
Cu133  O177    1.969   .     S
Cu133  N176    2.054   .     S
Cu133  O187    1.961   .     S
Cu133  O188    1.968   .     S
Cu134  O185    1.969   .     S
Cu134  N175    2.054   .     S
Cu134  O190    1.960   .     S
Cu134  O186    1.961   .     S
Cu134  O189    1.968   .     S
H149   C406    1.101   1_645 S
H157   C320    1.087   .     S
H160   C1275   1.095   1_554 S
H164   C701    1.102   .     S
H165   C701    1.115   .     S
H168   C513    1.087   1_545 S
H174   C305    1.108   .     S
N175   N1328   1.301   1_554 S
N175   O1335   1.339   1_554 S
N176   N751    1.301   .     S
N176   O760    1.343   .     S
O181   C502    1.412   1_545 S
O182   C313    1.418   .     S
O183   N751    1.339   .     S
O184   N1328   1.343   1_554 S
C193   O282    1.301   .     A
C193   O273    1.308   .     A
C193   C224    1.436   .     S
C194   C196    1.413   .     A
C194   C205    1.414   .     A
C194   O274    1.388   .     S
C195   C227    1.461   .     S
C195   C197    1.403   .     A
C195   C228    1.415   .     A
C196   C226    1.461   .     S
C196   C198    1.398   .     A
C197   O275    1.386   .     S
C197   C199    1.398   .     A
C198   O276    1.384   .     S
C198   C200    1.401   .     A
C199   C206    1.399   .     A
C199   C201    1.408   .     A
C200   C207    1.397   .     A
C200   C202    1.407   .     A
C201   C203    1.423   .     A
C201   C298    1.410   .     S
C202   C205    1.422   .     A
C202   C297    1.410   1_455 S
C203   C228    1.420   .     A
C203   C223    1.422   .     A
C204   O283    1.301   .     A
C204   O281    1.308   .     A
C204   C225    1.435   .     S
C205   C215    1.417   .     A
C206   H231    1.075   .     S
C206   C311    1.406   .     S
C207   H242    1.078   .     S
C207   C319    1.409   1_455 S
C208   H267    1.111   .     S
C208   H266    1.105   .     S
C208   O288    1.412   .     S
C208   C401    1.527   .     S
C209   H268    1.109   .     S
C209   H269    1.108   .     S
C210   H232    1.099   .     S
C210   H233    1.115   .     S
C210   O274    1.406   .     S
C211   H234    1.109   .     S
C211   H235    1.107   .     S
C211   H236    1.107   .     S
C211   C402    1.524   .     S
C212   H237    1.104   .     S
C212   H239    1.108   .     S
C212   O275    1.407   .     S
C212   H238    1.108   .     S
C213   H240    1.116   .     S
C213   H241    1.108   .     S
C213   O276    1.415   .     S
C213   H243    1.109   .     S
C214   H244    1.109   .     S
C214   C312    1.521   1_455 S
C214   H533    1.101   1_455 S
C214   O469    1.412   .     S
C215   O277    1.398   .     S
C215   C302    1.406   1_455 S
C216   H246    1.111   .     S
C216   H248    1.109   .     S
C216   C310    1.521   .     S
C216   H343    1.109   .     S
C217   C218    1.521   .     S
C217   H345    1.105   .     S
C217   H346    1.111   .     S
C218   H251    1.109   .     S
C218   H254    1.108   .     S
C218   H252    1.110   .     S
C219   O279    1.397   .     S
C219   H255    1.114   .     S
C219   C220    1.510   .     S
C219   H832    1.095   .     S
C220   H259    1.104   .     S
C220   H258    1.111   .     S
C220   H257    1.107   .     S
C221   O280    1.401   .     S
C221   C222    1.515   .     S
C221   H1412   1.102   1_554 S
C221   H1413   1.115   1_554 S
C222   H263    1.110   .     S
C222   H262    1.108   .     S
C222   H265    1.104   .     S
C223   O278    1.397   .     S
C223   C303    1.409   .     S
C225   C416    1.328   .     S
C225   H456    1.087   .     S
C226   O286    1.312   .     A
C226   O284    1.309   .     A
C227   O285    1.310   .     A
C227   O287    1.310   .     A
C228   O288    1.388   .     S
Cu229  O287    1.960   .     S
Cu229  Cu230   2.733   .     S
Cu229  O273    1.969   .     S
Cu229  N272    2.054   .     S
Cu229  O283    1.961   .     S
Cu229  O284    1.968   .     S
Cu230  O281    1.969   .     S
Cu230  N271    2.054   .     S
Cu230  O286    1.960   .     S
Cu230  O282    1.961   .     S
Cu230  O285    1.968   .     S
H247   C312    1.109   1_455 S
H249   C313    1.105   1_455 S
H250   C313    1.111   1_455 S
H253   C416    1.087   .     S
H256   C1371   1.095   1_554 S
H260   C797    1.102   .     S
H261   C797    1.115   .     S
H270   C401    1.108   .     S
N271   N1424   1.301   1_554 S
N271   O1431   1.339   1_554 S
N272   N847    1.301   .     S
N272   O856    1.343   .     S
O278   C409    1.418   .     S
O279   N847    1.339   .     S
O280   N1424   1.343   1_554 S
C289   O378    1.301   .     A
C289   O369    1.308   .     A
C289   C320    1.436   .     S
C290   C292    1.413   .     A
C290   C301    1.414   .     A
C290   O370    1.388   .     S
C291   C323    1.461   .     S
C291   C293    1.403   .     A
C291   C324    1.415   .     A
C292   C322    1.461   .     S
C292   C294    1.398   .     A
C293   O371    1.386   .     S
C293   C295    1.398   .     A
C294   O372    1.384   .     S
C294   C296    1.401   .     A
C295   C302    1.399   .     A
C295   C297    1.408   .     A
C296   C303    1.397   .     A
C296   C298    1.407   .     A
C297   C299    1.423   .     A
C297   C202    1.410   1_655 S
C298   C301    1.422   .     A
C299   C324    1.420   .     A
C299   C319    1.422   .     A
C300   O379    1.301   .     A
C300   O377    1.308   .     A
C300   C321    1.435   .     S
C301   C311    1.417   .     A
C302   H327    1.075   .     S
C302   C215    1.406   1_655 S
C303   H338    1.078   .     S
C304   H363    1.111   .     S
C304   H362    1.105   .     S
C304   O384    1.412   .     S
C304   C497    1.527   .     S
C305   H364    1.109   .     S
C305   H365    1.108   .     S
C306   H328    1.099   .     S
C306   H329    1.115   .     S
C306   O370    1.406   .     S
C307   H330    1.109   .     S
C307   H331    1.107   .     S
C307   H332    1.107   .     S
C307   C498    1.524   .     S
C308   H333    1.104   .     S
C308   H335    1.108   .     S
C308   O371    1.407   .     S
C308   H334    1.108   .     S
C309   H336    1.116   .     S
C309   H337    1.108   .     S
C309   O372    1.415   .     S
C309   H339    1.109   .     S
C310   H340    1.109   .     S
C310   H437    1.101   .     S
C310   O565    1.412   .     S
C311   O373    1.398   .     S
C312   H342    1.111   .     S
C312   H344    1.109   .     S
C312   C214    1.521   1_655 S
C312   H247    1.109   1_655 S
C313   C314    1.521   .     S
C313   H249    1.105   1_655 S
C313   H250    1.111   1_655 S
C314   H347    1.109   .     S
C314   H350    1.108   .     S
C314   H348    1.110   .     S
C315   O375    1.397   .     S
C315   H351    1.114   .     S
C315   C316    1.510   .     S
C315   H928    1.095   .     S
C316   H355    1.104   .     S
C316   H354    1.111   .     S
C316   H353    1.107   .     S
C317   O376    1.401   .     S
C317   C318    1.515   .     S
C317   H1508   1.102   1_554 S
C317   H1509   1.115   1_554 S
C318   H359    1.110   .     S
C318   H358    1.108   .     S
C318   H361    1.104   .     S
C319   O374    1.397   .     S
C319   C207    1.409   1_655 S
C321   C512    1.328   .     S
C321   H552    1.087   .     S
C322   O382    1.312   .     A
C322   O380    1.309   .     A
C323   O381    1.310   .     A
C323   O383    1.310   .     A
C324   O384    1.388   .     S
Cu325  O383    1.960   .     S
Cu325  Cu326   2.733   .     S
Cu325  O369    1.969   .     S
Cu325  N368    2.054   .     S
Cu325  O379    1.961   .     S
Cu325  O380    1.968   .     S
Cu326  O377    1.969   .     S
Cu326  N367    2.054   .     S
Cu326  O382    1.960   .     S
Cu326  O378    1.961   .     S
Cu326  O381    1.968   .     S
H341   C22     1.101   1_655 S
H349   C512    1.087   .     S
H352   C1467   1.095   1_554 S
H356   C893    1.102   .     S
H357   C893    1.115   .     S
H366   C497    1.108   .     S
N367   N1520   1.301   1_554 S
N367   O1527   1.339   1_554 S
N368   N943    1.301   .     S
N368   O952    1.343   .     S
O374   C505    1.418   .     S
O375   N943    1.339   .     S
O376   N1520   1.343   1_554 S
C385   O474    1.301   .     A
C385   O465    1.308   .     A
C385   C416    1.436   .     S
C386   C388    1.413   .     A
C386   C397    1.414   .     A
C386   O466    1.388   .     S
C387   C419    1.461   .     S
C387   C389    1.403   .     A
C387   C420    1.415   .     A
C388   C418    1.461   .     S
C388   C390    1.398   .     A
C389   O467    1.386   .     S
C389   C391    1.398   .     A
C390   O468    1.384   .     S
C390   C392    1.401   .     A
C391   C398    1.399   .     A
C391   C393    1.408   .     A
C392   C399    1.397   .     A
C392   C394    1.407   .     A
C393   C395    1.423   .     A
C393   C490    1.410   .     S
C394   C397    1.422   .     A
C394   C489    1.410   1_455 S
C395   C420    1.420   .     A
C395   C415    1.422   .     A
C396   O475    1.301   .     A
C396   O473    1.308   .     A
C396   C417    1.435   .     S
C397   C407    1.417   .     A
C398   H423    1.075   .     S
C398   C503    1.406   .     S
C399   H434    1.078   .     S
C399   C511    1.409   1_455 S
C400   H459    1.111   .     S
C400   H458    1.105   .     S
C400   O480    1.412   .     S
C400   C17     1.527   1_565 S
C401   H460    1.109   .     S
C401   H461    1.108   .     S
C402   H424    1.099   .     S
C402   H425    1.115   .     S
C402   O466    1.406   .     S
C403   H426    1.109   .     S
C403   H427    1.107   .     S
C403   H428    1.107   .     S
C403   C18     1.524   1_565 S
C404   H429    1.104   .     S
C404   H431    1.108   .     S
C404   O467    1.407   .     S
C404   H430    1.108   .     S
C405   H432    1.116   .     S
C405   H433    1.108   .     S
C405   O468    1.415   .     S
C405   H435    1.109   .     S
C406   H436    1.109   .     S
C406   C504    1.521   1_455 S
C406   H149    1.101   1_465 S
C406   O85     1.412   1_565 S
C407   O469    1.398   .     S
C407   C494    1.406   1_455 S
C408   H438    1.111   .     S
C408   H440    1.109   .     S
C408   C502    1.521   .     S
C408   H535    1.109   .     S
C409   C410    1.521   .     S
C409   H537    1.105   .     S
C409   H538    1.111   .     S
C410   H443    1.109   .     S
C410   H446    1.108   .     S
C410   H444    1.110   .     S
C411   O471    1.397   .     S
C411   H447    1.114   .     S
C411   C412    1.510   .     S
C411   H1024   1.095   .     S
C412   H451    1.104   .     S
C412   H450    1.111   .     S
C412   H449    1.107   .     S
C413   O472    1.401   .     S
C413   C414    1.515   .     S
C413   H1604   1.102   1_554 S
C413   H1605   1.115   1_554 S
C414   H455    1.110   .     S
C414   H454    1.108   .     S
C414   H457    1.104   .     S
C415   O470    1.397   .     S
C415   C495    1.409   .     S
C417   C32     1.328   1_565 S
C417   H72     1.087   1_565 S
C418   O478    1.312   .     A
C418   O476    1.309   .     A
C419   O477    1.310   .     A
C419   O479    1.310   .     A
C420   O480    1.388   .     S
Cu421  O479    1.960   .     S
Cu421  Cu422   2.733   .     S
Cu421  O465    1.969   .     S
Cu421  N464    2.054   .     S
Cu421  O475    1.961   .     S
Cu421  O476    1.968   .     S
Cu422  O473    1.969   .     S
Cu422  N463    2.054   .     S
Cu422  O478    1.960   .     S
Cu422  O474    1.961   .     S
Cu422  O477    1.968   .     S
H439   C504    1.109   1_455 S
H441   C505    1.105   1_455 S
H442   C505    1.111   1_455 S
H445   C32     1.087   1_565 S
H448   C1563   1.095   1_554 S
H452   C989    1.102   .     S
H453   C989    1.115   .     S
H462   C17     1.108   1_565 S
N463   N1616   1.301   1_554 S
N463   O1623   1.339   1_554 S
N464   N1039   1.301   .     S
N464   O1048   1.343   .     S
O470   C25     1.418   1_565 S
O471   N1039   1.339   .     S
O472   N1616   1.343   1_554 S
C481   O570    1.301   .     A
C481   O561    1.308   .     A
C481   C512    1.436   .     S
C482   C484    1.413   .     A
C482   C493    1.414   .     A
C482   O562    1.388   .     S
C483   C515    1.461   .     S
C483   C485    1.403   .     A
C483   C516    1.415   .     A
C484   C514    1.461   .     S
C484   C486    1.398   .     A
C485   O563    1.386   .     S
C485   C487    1.398   .     A
C486   O564    1.384   .     S
C486   C488    1.401   .     A
C487   C494    1.399   .     A
C487   C489    1.408   .     A
C488   C495    1.397   .     A
C488   C490    1.407   .     A
C489   C491    1.423   .     A
C489   C394    1.410   1_655 S
C490   C493    1.422   .     A
C491   C516    1.420   .     A
C491   C511    1.422   .     A
C492   O571    1.301   .     A
C492   O569    1.308   .     A
C492   C513    1.435   .     S
C493   C503    1.417   .     A
C494   H519    1.075   .     S
C494   C407    1.406   1_655 S
C495   H530    1.078   .     S
C496   H555    1.111   .     S
C496   H554    1.105   .     S
C496   O576    1.412   .     S
C496   C113    1.527   1_565 S
C497   H556    1.109   .     S
C497   H557    1.108   .     S
C498   H520    1.099   .     S
C498   H521    1.115   .     S
C498   O562    1.406   .     S
C499   H522    1.109   .     S
C499   H523    1.107   .     S
C499   H524    1.107   .     S
C499   C114    1.524   1_565 S
C500   H525    1.104   .     S
C500   H527    1.108   .     S
C500   O563    1.407   .     S
C500   H526    1.108   .     S
C501   H528    1.116   .     S
C501   H529    1.108   .     S
C501   O564    1.415   .     S
C501   H531    1.109   .     S
C502   H532    1.109   .     S
C502   H53     1.101   1_565 S
C502   O181    1.412   1_565 S
C503   O565    1.398   .     S
C504   H534    1.111   .     S
C504   H536    1.109   .     S
C504   C406    1.521   1_655 S
C504   H439    1.109   1_655 S
C505   C506    1.521   .     S
C505   H441    1.105   1_655 S
C505   H442    1.111   1_655 S
C506   H539    1.109   .     S
C506   H542    1.108   .     S
C506   H540    1.110   .     S
C507   O567    1.397   .     S
C507   H543    1.114   .     S
C507   C508    1.510   .     S
C507   H1120   1.095   .     S
C508   H547    1.104   .     S
C508   H546    1.111   .     S
C508   H545    1.107   .     S
C509   O568    1.401   .     S
C509   C510    1.515   .     S
C509   H1700   1.102   1_554 S
C509   H1701   1.115   1_554 S
C510   H551    1.110   .     S
C510   H550    1.108   .     S
C510   H553    1.104   .     S
C511   O566    1.397   .     S
C511   C399    1.409   1_655 S
C513   C128    1.328   1_565 S
C513   H168    1.087   1_565 S
C514   O574    1.312   .     A
C514   O572    1.309   .     A
C515   O573    1.310   .     A
C515   O575    1.310   .     A
C516   O576    1.388   .     S
Cu517  O575    1.960   .     S
Cu517  Cu518   2.733   .     S
Cu517  O561    1.969   .     S
Cu517  N560    2.054   .     S
Cu517  O571    1.961   .     S
Cu517  O572    1.968   .     S
Cu518  O569    1.969   .     S
Cu518  N559    2.054   .     S
Cu518  O574    1.960   .     S
Cu518  O570    1.961   .     S
Cu518  O573    1.968   .     S
H533   C214    1.101   1_655 S
H541   C128    1.087   1_565 S
H544   C1659   1.095   1_554 S
H548   C1085   1.102   .     S
H549   C1085   1.115   .     S
H558   C113    1.108   1_565 S
N559   N1712   1.301   1_554 S
N559   O1719   1.339   1_554 S
N560   N1135   1.301   .     S
N560   O1144   1.343   .     S
O566   C121    1.418   1_565 S
O567   N1135   1.339   .     S
O568   N1712   1.343   1_554 S
C577   O666    1.301   .     A
C577   O657    1.308   .     A
C577   C608    1.436   .     S
C578   C580    1.413   .     A
C578   C589    1.414   .     A
C578   O658    1.388   .     S
C579   C611    1.461   .     S
C579   C581    1.403   .     A
C579   C612    1.415   .     A
C580   C610    1.461   .     S
C580   C582    1.398   .     A
C581   O659    1.386   .     S
C581   C583    1.398   .     A
C582   O660    1.384   .     S
C582   C584    1.401   .     A
C583   C590    1.399   .     A
C583   C585    1.408   .     A
C584   C591    1.397   .     A
C584   C586    1.407   .     A
C585   C587    1.423   .     A
C585   C682    1.410   .     S
C586   C589    1.422   .     A
C586   C681    1.410   1_455 S
C587   C612    1.420   .     A
C587   C607    1.422   .     A
C588   O667    1.301   .     A
C588   O665    1.308   .     A
C588   C609    1.435   .     S
C589   C599    1.417   .     A
C590   H615    1.075   .     S
C590   C695    1.406   .     S
C591   H626    1.078   .     S
C591   C703    1.409   1_455 S
C592   H651    1.111   .     S
C592   H650    1.105   .     S
C592   O672    1.412   .     S
C592   C785    1.527   .     S
C593   H652    1.109   .     S
C593   H653    1.108   .     S
C593   C976    1.527   1_545 S
C593   H1038   1.108   1_545 S
C594   H616    1.099   .     S
C594   H617    1.115   .     S
C594   O658    1.406   .     S
C594   C979    1.524   1_545 S
C595   H618    1.109   .     S
C595   H619    1.107   .     S
C595   H620    1.107   .     S
C595   C786    1.524   .     S
C596   H621    1.104   .     S
C596   H623    1.108   .     S
C596   O659    1.407   .     S
C596   H622    1.108   .     S
C597   H624    1.116   .     S
C597   H625    1.108   .     S
C597   O660    1.415   .     S
C597   H627    1.109   .     S
C598   H628    1.109   .     S
C598   C696    1.521   1_455 S
C598   H917    1.101   1_455 S
C598   O853    1.412   .     S
C599   O661    1.398   .     S
C599   C686    1.406   1_455 S
C600   H630    1.111   .     S
C600   H632    1.109   .     S
C600   C694    1.521   .     S
C600   H727    1.109   .     S
C601   C602    1.521   .     S
C601   H729    1.105   .     S
C601   H730    1.111   .     S
C601   O1046   1.418   1_545 S
C602   H635    1.109   .     S
C602   H638    1.108   .     S
C602   H636    1.110   .     S
C603   O663    1.397   .     S
C603   H639    1.114   .     S
C603   C604    1.510   .     S
C603   H1216   1.095   .     S
C604   H643    1.104   .     S
C604   H642    1.111   .     S
C604   H641    1.107   .     S
C605   O664    1.401   .     S
C605   C606    1.515   .     S
C606   H647    1.110   .     S
C606   H646    1.108   .     S
C606   H649    1.104   .     S
C607   O662    1.397   .     S
C607   C687    1.409   .     S
C608   C993    1.328   1_545 S
C608   H1021   1.087   1_545 S
C609   C800    1.328   .     S
C609   H840    1.087   .     S
C610   O670    1.312   .     A
C610   O668    1.309   .     A
C611   O669    1.310   .     A
C611   O671    1.310   .     A
C612   O672    1.388   .     S
Cu613  O671    1.960   .     S
Cu613  Cu614   2.733   .     S
Cu613  O657    1.969   .     S
Cu613  N656    2.054   .     S
Cu613  O667    1.961   .     S
Cu613  O668    1.968   .     S
Cu614  O665    1.969   .     S
Cu614  N655    2.054   .     S
Cu614  O670    1.960   .     S
Cu614  O666    1.961   .     S
Cu614  O669    1.968   .     S
H629   C1078   1.101   1_545 S
H631   C696    1.109   1_455 S
H633   C697    1.105   1_455 S
H634   C697    1.111   1_455 S
H637   C800    1.087   .     S
H644   C1181   1.102   .     S
H645   C1181   1.115   .     S
H648   C993    1.087   1_545 S
H654   C785    1.108   .     S
N656   N1231   1.301   .     S
N656   O1240   1.343   .     S
O661   C982    1.412   1_545 S
O662   C793    1.418   .     S
O663   N1231   1.339   .     S
C673   O762    1.301   .     A
C673   O753    1.308   .     A
C673   C704    1.436   .     S
C674   C676    1.413   .     A
C674   C685    1.414   .     A
C674   O754    1.388   .     S
C675   C707    1.461   .     S
C675   C677    1.403   .     A
C675   C708    1.415   .     A
C676   C706    1.461   .     S
C676   C678    1.398   .     A
C677   O755    1.386   .     S
C677   C679    1.398   .     A
C678   O756    1.384   .     S
C678   C680    1.401   .     A
C679   C686    1.399   .     A
C679   C681    1.408   .     A
C680   C687    1.397   .     A
C680   C682    1.407   .     A
C681   C683    1.423   .     A
C681   C586    1.410   1_655 S
C682   C685    1.422   .     A
C683   C708    1.420   .     A
C683   C703    1.422   .     A
C684   O763    1.301   .     A
C684   O761    1.308   .     A
C684   C705    1.435   .     S
C685   C695    1.417   .     A
C686   H711    1.075   .     S
C686   C599    1.406   1_655 S
C687   H722    1.078   .     S
C688   H747    1.111   .     S
C688   H746    1.105   .     S
C688   O768    1.412   .     S
C688   C881    1.527   .     S
C689   H748    1.109   .     S
C689   H749    1.108   .     S
C689   C1072   1.527   1_545 S
C689   H1134   1.108   1_545 S
C690   H712    1.099   .     S
C690   H713    1.115   .     S
C690   O754    1.406   .     S
C690   C1075   1.524   1_545 S
C691   H714    1.109   .     S
C691   H715    1.107   .     S
C691   H716    1.107   .     S
C691   C882    1.524   .     S
C692   H717    1.104   .     S
C692   H719    1.108   .     S
C692   O755    1.407   .     S
C692   H718    1.108   .     S
C693   H720    1.116   .     S
C693   H721    1.108   .     S
C693   O756    1.415   .     S
C693   H723    1.109   .     S
C694   H724    1.109   .     S
C694   H821    1.101   .     S
C694   O949    1.412   .     S
C695   O757    1.398   .     S
C696   H726    1.111   .     S
C696   H728    1.109   .     S
C696   C598    1.521   1_655 S
C696   H631    1.109   1_655 S
C697   C698    1.521   .     S
C697   H633    1.105   1_655 S
C697   H634    1.111   1_655 S
C697   O1142   1.418   1_545 S
C698   H731    1.109   .     S
C698   H734    1.108   .     S
C698   H732    1.110   .     S
C699   O759    1.397   .     S
C699   H735    1.114   .     S
C699   C700    1.510   .     S
C699   H1312   1.095   .     S
C700   H739    1.104   .     S
C700   H738    1.111   .     S
C700   H737    1.107   .     S
C701   O760    1.401   .     S
C701   C702    1.515   .     S
C702   H743    1.110   .     S
C702   H742    1.108   .     S
C702   H745    1.104   .     S
C703   O758    1.397   .     S
C703   C591    1.409   1_655 S
C704   C1089   1.328   1_545 S
C704   H1117   1.087   1_545 S
C705   C896    1.328   .     S
C705   H936    1.087   .     S
C706   O766    1.312   .     A
C706   O764    1.309   .     A
C707   O765    1.310   .     A
C707   O767    1.310   .     A
C708   O768    1.388   .     S
Cu709  O767    1.960   .     S
Cu709  Cu710   2.733   .     S
Cu709  O753    1.969   .     S
Cu709  N752    2.054   .     S
Cu709  O763    1.961   .     S
Cu709  O764    1.968   .     S
Cu710  O761    1.969   .     S
Cu710  N751    2.054   .     S
Cu710  O766    1.960   .     S
Cu710  O762    1.961   .     S
Cu710  O765    1.968   .     S
H725   C982    1.101   1_645 S
H733   C896    1.087   .     S
H740   C1277   1.102   .     S
H741   C1277   1.115   .     S
H744   C1089   1.087   1_545 S
H750   C881    1.108   .     S
N752   N1327   1.301   .     S
N752   O1336   1.343   .     S
O757   C1078   1.412   1_545 S
O758   C889    1.418   .     S
O759   N1327   1.339   .     S
C769   O858    1.301   .     A
C769   O849    1.308   .     A
C769   C800    1.436   .     S
C770   C772    1.413   .     A
C770   C781    1.414   .     A
C770   O850    1.388   .     S
C771   C803    1.461   .     S
C771   C773    1.403   .     A
C771   C804    1.415   .     A
C772   C802    1.461   .     S
C772   C774    1.398   .     A
C773   O851    1.386   .     S
C773   C775    1.398   .     A
C774   O852    1.384   .     S
C774   C776    1.401   .     A
C775   C782    1.399   .     A
C775   C777    1.408   .     A
C776   C783    1.397   .     A
C776   C778    1.407   .     A
C777   C779    1.423   .     A
C777   C874    1.410   .     S
C778   C781    1.422   .     A
C778   C873    1.410   1_455 S
C779   C804    1.420   .     A
C779   C799    1.422   .     A
C780   O859    1.301   .     A
C780   O857    1.308   .     A
C780   C801    1.435   .     S
C781   C791    1.417   .     A
C782   H807    1.075   .     S
C782   C887    1.406   .     S
C783   H818    1.078   .     S
C783   C895    1.409   1_455 S
C784   H843    1.111   .     S
C784   H842    1.105   .     S
C784   O864    1.412   .     S
C784   C977    1.527   .     S
C785   H844    1.109   .     S
C785   H845    1.108   .     S
C786   H808    1.099   .     S
C786   H809    1.115   .     S
C786   O850    1.406   .     S
C787   H810    1.109   .     S
C787   H811    1.107   .     S
C787   H812    1.107   .     S
C787   C978    1.524   .     S
C788   H813    1.104   .     S
C788   H815    1.108   .     S
C788   O851    1.407   .     S
C788   H814    1.108   .     S
C789   H816    1.116   .     S
C789   H817    1.108   .     S
C789   O852    1.415   .     S
C789   H819    1.109   .     S
C790   H820    1.109   .     S
C790   C888    1.521   1_455 S
C790   H1109   1.101   1_455 S
C790   O1045   1.412   .     S
C791   O853    1.398   .     S
C791   C878    1.406   1_455 S
C792   H822    1.111   .     S
C792   H824    1.109   .     S
C792   C886    1.521   .     S
C792   H919    1.109   .     S
C793   C794    1.521   .     S
C793   H921    1.105   .     S
C793   H922    1.111   .     S
C794   H827    1.109   .     S
C794   H830    1.108   .     S
C794   H828    1.110   .     S
C795   O855    1.397   .     S
C795   H831    1.114   .     S
C795   C796    1.510   .     S
C795   H1408   1.095   .     S
C796   H835    1.104   .     S
C796   H834    1.111   .     S
C796   H833    1.107   .     S
C797   O856    1.401   .     S
C797   C798    1.515   .     S
C798   H839    1.110   .     S
C798   H838    1.108   .     S
C798   H841    1.104   .     S
C799   O854    1.397   .     S
C799   C879    1.409   .     S
C801   C992    1.328   .     S
C801   H1032   1.087   .     S
C802   O862    1.312   .     A
C802   O860    1.309   .     A
C803   O861    1.310   .     A
C803   O863    1.310   .     A
C804   O864    1.388   .     S
Cu805  O863    1.960   .     S
Cu805  Cu806   2.733   .     S
Cu805  O849    1.969   .     S
Cu805  N848    2.054   .     S
Cu805  O859    1.961   .     S
Cu805  O860    1.968   .     S
Cu806  O857    1.969   .     S
Cu806  N847    2.054   .     S
Cu806  O862    1.960   .     S
Cu806  O858    1.961   .     S
Cu806  O861    1.968   .     S
H823   C888    1.109   1_455 S
H825   C889    1.105   1_455 S
H826   C889    1.111   1_455 S
H829   C992    1.087   .     S
H836   C1373   1.102   .     S
H837   C1373   1.115   .     S
H846   C977    1.108   .     S
N848   N1423   1.301   .     S
N848   O1432   1.343   .     S
O854   C985    1.418   .     S
O855   N1423   1.339   .     S
C865   O954    1.301   .     A
C865   O945    1.308   .     A
C865   C896    1.436   .     S
C866   C868    1.413   .     A
C866   C877    1.414   .     A
C866   O946    1.388   .     S
C867   C899    1.461   .     S
C867   C869    1.403   .     A
C867   C900    1.415   .     A
C868   C898    1.461   .     S
C868   C870    1.398   .     A
C869   O947    1.386   .     S
C869   C871    1.398   .     A
C870   O948    1.384   .     S
C870   C872    1.401   .     A
C871   C878    1.399   .     A
C871   C873    1.408   .     A
C872   C879    1.397   .     A
C872   C874    1.407   .     A
C873   C875    1.423   .     A
C873   C778    1.410   1_655 S
C874   C877    1.422   .     A
C875   C900    1.420   .     A
C875   C895    1.422   .     A
C876   O955    1.301   .     A
C876   O953    1.308   .     A
C876   C897    1.435   .     S
C877   C887    1.417   .     A
C878   H903    1.075   .     S
C878   C791    1.406   1_655 S
C879   H914    1.078   .     S
C880   H939    1.111   .     S
C880   H938    1.105   .     S
C880   O960    1.412   .     S
C880   C1073   1.527   .     S
C881   H940    1.109   .     S
C881   H941    1.108   .     S
C882   H904    1.099   .     S
C882   H905    1.115   .     S
C882   O946    1.406   .     S
C883   H906    1.109   .     S
C883   H907    1.107   .     S
C883   H908    1.107   .     S
C883   C1074   1.524   .     S
C884   H909    1.104   .     S
C884   H911    1.108   .     S
C884   O947    1.407   .     S
C884   H910    1.108   .     S
C885   H912    1.116   .     S
C885   H913    1.108   .     S
C885   O948    1.415   .     S
C885   H915    1.109   .     S
C886   H916    1.109   .     S
C886   H1013   1.101   .     S
C886   O1141   1.412   .     S
C887   O949    1.398   .     S
C888   H918    1.111   .     S
C888   H920    1.109   .     S
C888   C790    1.521   1_655 S
C888   H823    1.109   1_655 S
C889   C890    1.521   .     S
C889   H825    1.105   1_655 S
C889   H826    1.111   1_655 S
C890   H923    1.109   .     S
C890   H926    1.108   .     S
C890   H924    1.110   .     S
C891   O951    1.397   .     S
C891   H927    1.114   .     S
C891   C892    1.510   .     S
C891   H1504   1.095   .     S
C892   H931    1.104   .     S
C892   H930    1.111   .     S
C892   H929    1.107   .     S
C893   O952    1.401   .     S
C893   C894    1.515   .     S
C894   H935    1.110   .     S
C894   H934    1.108   .     S
C894   H937    1.104   .     S
C895   O950    1.397   .     S
C895   C783    1.409   1_655 S
C897   C1088   1.328   .     S
C897   H1128   1.087   .     S
C898   O958    1.312   .     A
C898   O956    1.309   .     A
C899   O957    1.310   .     A
C899   O959    1.310   .     A
C900   O960    1.388   .     S
Cu901  O959    1.960   .     S
Cu901  Cu902   2.733   .     S
Cu901  O945    1.969   .     S
Cu901  N944    2.054   .     S
Cu901  O955    1.961   .     S
Cu901  O956    1.968   .     S
Cu902  O953    1.969   .     S
Cu902  N943    2.054   .     S
Cu902  O958    1.960   .     S
Cu902  O954    1.961   .     S
Cu902  O957    1.968   .     S
H917   C598    1.101   1_655 S
H925   C1088   1.087   .     S
H932   C1469   1.102   .     S
H933   C1469   1.115   .     S
H942   C1073   1.108   .     S
N944   N1519   1.301   .     S
N944   O1528   1.343   .     S
O950   C1081   1.418   .     S
O951   N1519   1.339   .     S
C961   O1050   1.301   .     A
C961   O1041   1.308   .     A
C961   C992    1.436   .     S
C962   C964    1.413   .     A
C962   C973    1.414   .     A
C962   O1042   1.388   .     S
C963   C995    1.461   .     S
C963   C965    1.403   .     A
C963   C996    1.415   .     A
C964   C994    1.461   .     S
C964   C966    1.398   .     A
C965   O1043   1.386   .     S
C965   C967    1.398   .     A
C966   O1044   1.384   .     S
C966   C968    1.401   .     A
C967   C974    1.399   .     A
C967   C969    1.408   .     A
C968   C975    1.397   .     A
C968   C970    1.407   .     A
C969   C971    1.423   .     A
C969   C1066   1.410   .     S
C970   C973    1.422   .     A
C970   C1065   1.410   1_455 S
C971   C996    1.420   .     A
C971   C991    1.422   .     A
C972   O1051   1.301   .     A
C972   O1049   1.308   .     A
C972   C993    1.435   .     S
C973   C983    1.417   .     A
C974   H999    1.075   .     S
C974   C1079   1.406   .     S
C975   H1010   1.078   .     S
C975   C1087   1.409   1_455 S
C976   H1035   1.111   .     S
C976   H1034   1.105   .     S
C976   O1056   1.412   .     S
C976   C593    1.527   1_565 S
C977   H1036   1.109   .     S
C977   H1037   1.108   .     S
C978   H1000   1.099   .     S
C978   H1001   1.115   .     S
C978   O1042   1.406   .     S
C979   H1002   1.109   .     S
C979   H1003   1.107   .     S
C979   H1004   1.107   .     S
C979   C594    1.524   1_565 S
C980   H1005   1.104   .     S
C980   H1007   1.108   .     S
C980   O1043   1.407   .     S
C980   H1006   1.108   .     S
C981   H1008   1.116   .     S
C981   H1009   1.108   .     S
C981   O1044   1.415   .     S
C981   H1011   1.109   .     S
C982   H1012   1.109   .     S
C982   C1080   1.521   1_455 S
C982   H725    1.101   1_465 S
C982   O661    1.412   1_565 S
C983   O1045   1.398   .     S
C983   C1070   1.406   1_455 S
C984   H1014   1.111   .     S
C984   H1016   1.109   .     S
C984   C1078   1.521   .     S
C984   H1111   1.109   .     S
C985   C986    1.521   .     S
C985   H1113   1.105   .     S
C985   H1114   1.111   .     S
C986   H1019   1.109   .     S
C986   H1022   1.108   .     S
C986   H1020   1.110   .     S
C987   O1047   1.397   .     S
C987   H1023   1.114   .     S
C987   C988    1.510   .     S
C987   H1600   1.095   .     S
C988   H1027   1.104   .     S
C988   H1026   1.111   .     S
C988   H1025   1.107   .     S
C989   O1048   1.401   .     S
C989   C990    1.515   .     S
C990   H1031   1.110   .     S
C990   H1030   1.108   .     S
C990   H1033   1.104   .     S
C991   O1046   1.397   .     S
C991   C1071   1.409   .     S
C993   C608    1.328   1_565 S
C993   H648    1.087   1_565 S
C994   O1054   1.312   .     A
C994   O1052   1.309   .     A
C995   O1053   1.310   .     A
C995   O1055   1.310   .     A
C996   O1056   1.388   .     S
Cu997  O1055   1.960   .     S
Cu997  Cu998   2.733   .     S
Cu997  O1041   1.969   .     S
Cu997  N1040   2.054   .     S
Cu997  O1051   1.961   .     S
Cu997  O1052   1.968   .     S
Cu998  O1049   1.969   .     S
Cu998  N1039   2.054   .     S
Cu998  O1054   1.960   .     S
Cu998  O1050   1.961   .     S
Cu998  O1053   1.968   .     S
H1015  C1080   1.109   1_455 S
H1017  C1081   1.105   1_455 S
H1018  C1081   1.111   1_455 S
H1021  C608    1.087   1_565 S
H1028  C1565   1.102   .     S
H1029  C1565   1.115   .     S
H1038  C593    1.108   1_565 S
N1040  N1615   1.301   .     S
N1040  O1624   1.343   .     S
O1046  C601    1.418   1_565 S
O1047  N1615   1.339   .     S
C1057  O1146   1.301   .     A
C1057  O1137   1.308   .     A
C1057  C1088   1.436   .     S
C1058  C1060   1.413   .     A
C1058  C1069   1.414   .     A
C1058  O1138   1.388   .     S
C1059  C1091   1.461   .     S
C1059  C1061   1.403   .     A
C1059  C1092   1.415   .     A
C1060  C1090   1.461   .     S
C1060  C1062   1.398   .     A
C1061  O1139   1.386   .     S
C1061  C1063   1.398   .     A
C1062  O1140   1.384   .     S
C1062  C1064   1.401   .     A
C1063  C1070   1.399   .     A
C1063  C1065   1.408   .     A
C1064  C1071   1.397   .     A
C1064  C1066   1.407   .     A
C1065  C1067   1.423   .     A
C1065  C970    1.410   1_655 S
C1066  C1069   1.422   .     A
C1067  C1092   1.420   .     A
C1067  C1087   1.422   .     A
C1068  O1147   1.301   .     A
C1068  O1145   1.308   .     A
C1068  C1089   1.435   .     S
C1069  C1079   1.417   .     A
C1070  H1095   1.075   .     S
C1070  C983    1.406   1_655 S
C1071  H1106   1.078   .     S
C1072  H1131   1.111   .     S
C1072  H1130   1.105   .     S
C1072  O1152   1.412   .     S
C1072  C689    1.527   1_565 S
C1073  H1132   1.109   .     S
C1073  H1133   1.108   .     S
C1074  H1096   1.099   .     S
C1074  H1097   1.115   .     S
C1074  O1138   1.406   .     S
C1075  H1098   1.109   .     S
C1075  H1099   1.107   .     S
C1075  H1100   1.107   .     S
C1075  C690    1.524   1_565 S
C1076  H1101   1.104   .     S
C1076  H1103   1.108   .     S
C1076  O1139   1.407   .     S
C1076  H1102   1.108   .     S
C1077  H1104   1.116   .     S
C1077  H1105   1.108   .     S
C1077  O1140   1.415   .     S
C1077  H1107   1.109   .     S
C1078  H1108   1.109   .     S
C1078  H629    1.101   1_565 S
C1078  O757    1.412   1_565 S
C1079  O1141   1.398   .     S
C1080  H1110   1.111   .     S
C1080  H1112   1.109   .     S
C1080  C982    1.521   1_655 S
C1080  H1015   1.109   1_655 S
C1081  C1082   1.521   .     S
C1081  H1017   1.105   1_655 S
C1081  H1018   1.111   1_655 S
C1082  H1115   1.109   .     S
C1082  H1118   1.108   .     S
C1082  H1116   1.110   .     S
C1083  O1143   1.397   .     S
C1083  H1119   1.114   .     S
C1083  C1084   1.510   .     S
C1083  H1696   1.095   .     S
C1084  H1123   1.104   .     S
C1084  H1122   1.111   .     S
C1084  H1121   1.107   .     S
C1085  O1144   1.401   .     S
C1085  C1086   1.515   .     S
C1086  H1127   1.110   .     S
C1086  H1126   1.108   .     S
C1086  H1129   1.104   .     S
C1087  O1142   1.397   .     S
C1087  C975    1.409   1_655 S
C1089  C704    1.328   1_565 S
C1089  H744    1.087   1_565 S
C1090  O1150   1.312   .     A
C1090  O1148   1.309   .     A
C1091  O1149   1.310   .     A
C1091  O1151   1.310   .     A
C1092  O1152   1.388   .     S
Cu1093 O1151   1.960   .     S
Cu1093 Cu1094  2.733   .     S
Cu1093 O1137   1.969   .     S
Cu1093 N1136   2.054   .     S
Cu1093 O1147   1.961   .     S
Cu1093 O1148   1.968   .     S
Cu1094 O1145   1.969   .     S
Cu1094 N1135   2.054   .     S
Cu1094 O1150   1.960   .     S
Cu1094 O1146   1.961   .     S
Cu1094 O1149   1.968   .     S
H1109  C790    1.101   1_655 S
H1117  C704    1.087   1_565 S
H1124  C1661   1.102   .     S
H1125  C1661   1.115   .     S
H1134  C689    1.108   1_565 S
N1136  N1711   1.301   .     S
N1136  O1720   1.343   .     S
O1142  C697    1.418   1_565 S
O1143  N1711   1.339   .     S
C1153  O1242   1.301   .     A
C1153  O1233   1.308   .     A
C1153  C1184   1.436   .     S
C1154  C1156   1.413   .     A
C1154  C1165   1.414   .     A
C1154  O1234   1.388   .     S
C1155  C1187   1.461   .     S
C1155  C1157   1.403   .     A
C1155  C1188   1.415   .     A
C1156  C1186   1.461   .     S
C1156  C1158   1.398   .     A
C1157  O1235   1.386   .     S
C1157  C1159   1.398   .     A
C1158  O1236   1.384   .     S
C1158  C1160   1.401   .     A
C1159  C1166   1.399   .     A
C1159  C1161   1.408   .     A
C1160  C1167   1.397   .     A
C1160  C1162   1.407   .     A
C1161  C1163   1.423   .     A
C1161  C1258   1.410   .     S
C1162  C1165   1.422   .     A
C1162  C1257   1.410   1_455 S
C1163  C1188   1.420   .     A
C1163  C1183   1.422   .     A
C1164  O1243   1.301   .     A
C1164  O1241   1.308   .     A
C1164  C1185   1.435   .     S
C1165  C1175   1.417   .     A
C1166  H1191   1.075   .     S
C1166  C1271   1.406   .     S
C1167  H1202   1.078   .     S
C1167  C1279   1.409   1_455 S
C1168  H1227   1.111   .     S
C1168  H1226   1.105   .     S
C1168  O1248   1.412   .     S
C1168  C1361   1.527   .     S
C1169  H1228   1.109   .     S
C1169  H1229   1.108   .     S
C1169  C1552   1.527   1_545 S
C1169  H1614   1.108   1_545 S
C1170  H1192   1.099   .     S
C1170  H1193   1.115   .     S
C1170  O1234   1.406   .     S
C1170  C1555   1.524   1_545 S
C1171  H1194   1.109   .     S
C1171  H1195   1.107   .     S
C1171  H1196   1.107   .     S
C1171  C1362   1.524   .     S
C1172  H1197   1.104   .     S
C1172  H1199   1.108   .     S
C1172  O1235   1.407   .     S
C1172  H1198   1.108   .     S
C1173  H1200   1.116   .     S
C1173  H1201   1.108   .     S
C1173  O1236   1.415   .     S
C1173  H1203   1.109   .     S
C1174  H1204   1.109   .     S
C1174  C1272   1.521   1_455 S
C1174  H1493   1.101   1_455 S
C1174  O1429   1.412   .     S
C1175  O1237   1.398   .     S
C1175  C1262   1.406   1_455 S
C1176  H1206   1.111   .     S
C1176  H1208   1.109   .     S
C1176  C1270   1.521   .     S
C1176  H1303   1.109   .     S
C1177  C1178   1.521   .     S
C1177  H1305   1.105   .     S
C1177  H1306   1.111   .     S
C1177  O1622   1.418   1_545 S
C1178  H1211   1.109   .     S
C1178  H1214   1.108   .     S
C1178  H1212   1.110   .     S
C1179  O1239   1.397   .     S
C1179  H1215   1.114   .     S
C1179  C1180   1.510   .     S
C1179  H64     1.095   1_556 S
C1180  H1219   1.104   .     S
C1180  H1218   1.111   .     S
C1180  H1217   1.107   .     S
C1181  O1240   1.401   .     S
C1181  C1182   1.515   .     S
C1182  H1223   1.110   .     S
C1182  H1222   1.108   .     S
C1182  H1225   1.104   .     S
C1183  O1238   1.397   .     S
C1183  C1263   1.409   .     S
C1184  C1569   1.328   1_545 S
C1184  H1597   1.087   1_545 S
C1185  C1376   1.328   .     S
C1185  H1416   1.087   .     S
C1186  O1246   1.312   .     A
C1186  O1244   1.309   .     A
C1187  O1245   1.310   .     A
C1187  O1247   1.310   .     A
C1188  O1248   1.388   .     S
Cu1189 O1247   1.960   .     S
Cu1189 Cu1190  2.733   .     S
Cu1189 O1233   1.969   .     S
Cu1189 N1232   2.054   .     S
Cu1189 O1243   1.961   .     S
Cu1189 O1244   1.968   .     S
Cu1190 O1241   1.969   .     S
Cu1190 N1231   2.054   .     S
Cu1190 O1246   1.960   .     S
Cu1190 O1242   1.961   .     S
Cu1190 O1245   1.968   .     S
H1205  C1654   1.101   1_545 S
H1207  C1272   1.109   1_455 S
H1209  C1273   1.105   1_455 S
H1210  C1273   1.111   1_455 S
H1213  C1376   1.087   .     S
H1220  C29     1.102   1_556 S
H1221  C29     1.115   1_556 S
H1224  C1569   1.087   1_545 S
H1230  C1361   1.108   .     S
N1232  N79     1.301   1_556 S
N1232  O88     1.343   1_556 S
O1237  C1558   1.412   1_545 S
O1238  C1369   1.418   .     S
O1239  N79     1.339   1_556 S
C1249  O1338   1.301   .     A
C1249  O1329   1.308   .     A
C1249  C1280   1.436   .     S
C1250  C1252   1.413   .     A
C1250  C1261   1.414   .     A
C1250  O1330   1.388   .     S
C1251  C1283   1.461   .     S
C1251  C1253   1.403   .     A
C1251  C1284   1.415   .     A
C1252  C1282   1.461   .     S
C1252  C1254   1.398   .     A
C1253  O1331   1.386   .     S
C1253  C1255   1.398   .     A
C1254  O1332   1.384   .     S
C1254  C1256   1.401   .     A
C1255  C1262   1.399   .     A
C1255  C1257   1.408   .     A
C1256  C1263   1.397   .     A
C1256  C1258   1.407   .     A
C1257  C1259   1.423   .     A
C1257  C1162   1.410   1_655 S
C1258  C1261   1.422   .     A
C1259  C1284   1.420   .     A
C1259  C1279   1.422   .     A
C1260  O1339   1.301   .     A
C1260  O1337   1.308   .     A
C1260  C1281   1.435   .     S
C1261  C1271   1.417   .     A
C1262  H1287   1.075   .     S
C1262  C1175   1.406   1_655 S
C1263  H1298   1.078   .     S
C1264  H1323   1.111   .     S
C1264  H1322   1.105   .     S
C1264  O1344   1.412   .     S
C1264  C1457   1.527   .     S
C1265  H1324   1.109   .     S
C1265  H1325   1.108   .     S
C1265  C1648   1.527   1_545 S
C1265  H1710   1.108   1_545 S
C1266  H1288   1.099   .     S
C1266  H1289   1.115   .     S
C1266  O1330   1.406   .     S
C1266  C1651   1.524   1_545 S
C1267  H1290   1.109   .     S
C1267  H1291   1.107   .     S
C1267  H1292   1.107   .     S
C1267  C1458   1.524   .     S
C1268  H1293   1.104   .     S
C1268  H1295   1.108   .     S
C1268  O1331   1.407   .     S
C1268  H1294   1.108   .     S
C1269  H1296   1.116   .     S
C1269  H1297   1.108   .     S
C1269  O1332   1.415   .     S
C1269  H1299   1.109   .     S
C1270  H1300   1.109   .     S
C1270  H1397   1.101   .     S
C1270  O1525   1.412   .     S
C1271  O1333   1.398   .     S
C1272  H1302   1.111   .     S
C1272  H1304   1.109   .     S
C1272  C1174   1.521   1_655 S
C1272  H1207   1.109   1_655 S
C1273  C1274   1.521   .     S
C1273  H1209   1.105   1_655 S
C1273  H1210   1.111   1_655 S
C1273  O1718   1.418   1_545 S
C1274  H1307   1.109   .     S
C1274  H1310   1.108   .     S
C1274  H1308   1.110   .     S
C1275  O1335   1.397   .     S
C1275  H1311   1.114   .     S
C1275  C1276   1.510   .     S
C1275  H160    1.095   1_556 S
C1276  H1315   1.104   .     S
C1276  H1314   1.111   .     S
C1276  H1313   1.107   .     S
C1277  O1336   1.401   .     S
C1277  C1278   1.515   .     S
C1278  H1319   1.110   .     S
C1278  H1318   1.108   .     S
C1278  H1321   1.104   .     S
C1279  O1334   1.397   .     S
C1279  C1167   1.409   1_655 S
C1280  C1665   1.328   1_545 S
C1280  H1693   1.087   1_545 S
C1281  C1472   1.328   .     S
C1281  H1512   1.087   .     S
C1282  O1342   1.312   .     A
C1282  O1340   1.309   .     A
C1283  O1341   1.310   .     A
C1283  O1343   1.310   .     A
C1284  O1344   1.388   .     S
Cu1285 O1343   1.960   .     S
Cu1285 Cu1286  2.733   .     S
Cu1285 O1329   1.969   .     S
Cu1285 N1328   2.054   .     S
Cu1285 O1339   1.961   .     S
Cu1285 O1340   1.968   .     S
Cu1286 O1337   1.969   .     S
Cu1286 N1327   2.054   .     S
Cu1286 O1342   1.960   .     S
Cu1286 O1338   1.961   .     S
Cu1286 O1341   1.968   .     S
H1301  C1558   1.101   1_645 S
H1309  C1472   1.087   .     S
H1316  C125    1.102   1_556 S
H1317  C125    1.115   1_556 S
H1320  C1665   1.087   1_545 S
H1326  C1457   1.108   .     S
N1328  N175    1.301   1_556 S
N1328  O184    1.343   1_556 S
O1333  C1654   1.412   1_545 S
O1334  C1465   1.418   .     S
O1335  N175    1.339   1_556 S
C1345  O1434   1.301   .     A
C1345  O1425   1.308   .     A
C1345  C1376   1.436   .     S
C1346  C1348   1.413   .     A
C1346  C1357   1.414   .     A
C1346  O1426   1.388   .     S
C1347  C1379   1.461   .     S
C1347  C1349   1.403   .     A
C1347  C1380   1.415   .     A
C1348  C1378   1.461   .     S
C1348  C1350   1.398   .     A
C1349  O1427   1.386   .     S
C1349  C1351   1.398   .     A
C1350  O1428   1.384   .     S
C1350  C1352   1.401   .     A
C1351  C1358   1.399   .     A
C1351  C1353   1.408   .     A
C1352  C1359   1.397   .     A
C1352  C1354   1.407   .     A
C1353  C1355   1.423   .     A
C1353  C1450   1.410   .     S
C1354  C1357   1.422   .     A
C1354  C1449   1.410   1_455 S
C1355  C1380   1.420   .     A
C1355  C1375   1.422   .     A
C1356  O1435   1.301   .     A
C1356  O1433   1.308   .     A
C1356  C1377   1.435   .     S
C1357  C1367   1.417   .     A
C1358  H1383   1.075   .     S
C1358  C1463   1.406   .     S
C1359  H1394   1.078   .     S
C1359  C1471   1.409   1_455 S
C1360  H1419   1.111   .     S
C1360  H1418   1.105   .     S
C1360  O1440   1.412   .     S
C1360  C1553   1.527   .     S
C1361  H1420   1.109   .     S
C1361  H1421   1.108   .     S
C1362  H1384   1.099   .     S
C1362  H1385   1.115   .     S
C1362  O1426   1.406   .     S
C1363  H1386   1.109   .     S
C1363  H1387   1.107   .     S
C1363  H1388   1.107   .     S
C1363  C1554   1.524   .     S
C1364  H1389   1.104   .     S
C1364  H1391   1.108   .     S
C1364  O1427   1.407   .     S
C1364  H1390   1.108   .     S
C1365  H1392   1.116   .     S
C1365  H1393   1.108   .     S
C1365  O1428   1.415   .     S
C1365  H1395   1.109   .     S
C1366  H1396   1.109   .     S
C1366  C1464   1.521   1_455 S
C1366  H1685   1.101   1_455 S
C1366  O1621   1.412   .     S
C1367  O1429   1.398   .     S
C1367  C1454   1.406   1_455 S
C1368  H1398   1.111   .     S
C1368  H1400   1.109   .     S
C1368  C1462   1.521   .     S
C1368  H1495   1.109   .     S
C1369  C1370   1.521   .     S
C1369  H1497   1.105   .     S
C1369  H1498   1.111   .     S
C1370  H1403   1.109   .     S
C1370  H1406   1.108   .     S
C1370  H1404   1.110   .     S
C1371  O1431   1.397   .     S
C1371  H1407   1.114   .     S
C1371  C1372   1.510   .     S
C1371  H256    1.095   1_556 S
C1372  H1411   1.104   .     S
C1372  H1410   1.111   .     S
C1372  H1409   1.107   .     S
C1373  O1432   1.401   .     S
C1373  C1374   1.515   .     S
C1374  H1415   1.110   .     S
C1374  H1414   1.108   .     S
C1374  H1417   1.104   .     S
C1375  O1430   1.397   .     S
C1375  C1455   1.409   .     S
C1377  C1568   1.328   .     S
C1377  H1608   1.087   .     S
C1378  O1438   1.312   .     A
C1378  O1436   1.309   .     A
C1379  O1437   1.310   .     A
C1379  O1439   1.310   .     A
C1380  O1440   1.388   .     S
Cu1381 O1439   1.960   .     S
Cu1381 Cu1382  2.733   .     S
Cu1381 O1425   1.969   .     S
Cu1381 N1424   2.054   .     S
Cu1381 O1435   1.961   .     S
Cu1381 O1436   1.968   .     S
Cu1382 O1433   1.969   .     S
Cu1382 N1423   2.054   .     S
Cu1382 O1438   1.960   .     S
Cu1382 O1434   1.961   .     S
Cu1382 O1437   1.968   .     S
H1399  C1464   1.109   1_455 S
H1401  C1465   1.105   1_455 S
H1402  C1465   1.111   1_455 S
H1405  C1568   1.087   .     S
H1412  C221    1.102   1_556 S
H1413  C221    1.115   1_556 S
H1422  C1553   1.108   .     S
N1424  N271    1.301   1_556 S
N1424  O280    1.343   1_556 S
O1430  C1561   1.418   .     S
O1431  N271    1.339   1_556 S
C1441  O1530   1.301   .     A
C1441  O1521   1.308   .     A
C1441  C1472   1.436   .     S
C1442  C1444   1.413   .     A
C1442  C1453   1.414   .     A
C1442  O1522   1.388   .     S
C1443  C1475   1.461   .     S
C1443  C1445   1.403   .     A
C1443  C1476   1.415   .     A
C1444  C1474   1.461   .     S
C1444  C1446   1.398   .     A
C1445  O1523   1.386   .     S
C1445  C1447   1.398   .     A
C1446  O1524   1.384   .     S
C1446  C1448   1.401   .     A
C1447  C1454   1.399   .     A
C1447  C1449   1.408   .     A
C1448  C1455   1.397   .     A
C1448  C1450   1.407   .     A
C1449  C1451   1.423   .     A
C1449  C1354   1.410   1_655 S
C1450  C1453   1.422   .     A
C1451  C1476   1.420   .     A
C1451  C1471   1.422   .     A
C1452  O1531   1.301   .     A
C1452  O1529   1.308   .     A
C1452  C1473   1.435   .     S
C1453  C1463   1.417   .     A
C1454  H1479   1.075   .     S
C1454  C1367   1.406   1_655 S
C1455  H1490   1.078   .     S
C1456  H1515   1.111   .     S
C1456  H1514   1.105   .     S
C1456  O1536   1.412   .     S
C1456  C1649   1.527   .     S
C1457  H1516   1.109   .     S
C1457  H1517   1.108   .     S
C1458  H1480   1.099   .     S
C1458  H1481   1.115   .     S
C1458  O1522   1.406   .     S
C1459  H1482   1.109   .     S
C1459  H1483   1.107   .     S
C1459  H1484   1.107   .     S
C1459  C1650   1.524   .     S
C1460  H1485   1.104   .     S
C1460  H1487   1.108   .     S
C1460  O1523   1.407   .     S
C1460  H1486   1.108   .     S
C1461  H1488   1.116   .     S
C1461  H1489   1.108   .     S
C1461  O1524   1.415   .     S
C1461  H1491   1.109   .     S
C1462  H1492   1.109   .     S
C1462  H1589   1.101   .     S
C1462  O1717   1.412   .     S
C1463  O1525   1.398   .     S
C1464  H1494   1.111   .     S
C1464  H1496   1.109   .     S
C1464  C1366   1.521   1_655 S
C1464  H1399   1.109   1_655 S
C1465  C1466   1.521   .     S
C1465  H1401   1.105   1_655 S
C1465  H1402   1.111   1_655 S
C1466  H1499   1.109   .     S
C1466  H1502   1.108   .     S
C1466  H1500   1.110   .     S
C1467  O1527   1.397   .     S
C1467  H1503   1.114   .     S
C1467  C1468   1.510   .     S
C1467  H352    1.095   1_556 S
C1468  H1507   1.104   .     S
C1468  H1506   1.111   .     S
C1468  H1505   1.107   .     S
C1469  O1528   1.401   .     S
C1469  C1470   1.515   .     S
C1470  H1511   1.110   .     S
C1470  H1510   1.108   .     S
C1470  H1513   1.104   .     S
C1471  O1526   1.397   .     S
C1471  C1359   1.409   1_655 S
C1473  C1664   1.328   .     S
C1473  H1704   1.087   .     S
C1474  O1534   1.312   .     A
C1474  O1532   1.309   .     A
C1475  O1533   1.310   .     A
C1475  O1535   1.310   .     A
C1476  O1536   1.388   .     S
Cu1477 O1535   1.960   .     S
Cu1477 Cu1478  2.733   .     S
Cu1477 O1521   1.969   .     S
Cu1477 N1520   2.054   .     S
Cu1477 O1531   1.961   .     S
Cu1477 O1532   1.968   .     S
Cu1478 O1529   1.969   .     S
Cu1478 N1519   2.054   .     S
Cu1478 O1534   1.960   .     S
Cu1478 O1530   1.961   .     S
Cu1478 O1533   1.968   .     S
H1493  C1174   1.101   1_655 S
H1501  C1664   1.087   .     S
H1508  C317    1.102   1_556 S
H1509  C317    1.115   1_556 S
H1518  C1649   1.108   .     S
N1520  N367    1.301   1_556 S
N1520  O376    1.343   1_556 S
O1526  C1657   1.418   .     S
O1527  N367    1.339   1_556 S
C1537  O1626   1.301   .     A
C1537  O1617   1.308   .     A
C1537  C1568   1.436   .     S
C1538  C1540   1.413   .     A
C1538  C1549   1.414   .     A
C1538  O1618   1.388   .     S
C1539  C1571   1.461   .     S
C1539  C1541   1.403   .     A
C1539  C1572   1.415   .     A
C1540  C1570   1.461   .     S
C1540  C1542   1.398   .     A
C1541  O1619   1.386   .     S
C1541  C1543   1.398   .     A
C1542  O1620   1.384   .     S
C1542  C1544   1.401   .     A
C1543  C1550   1.399   .     A
C1543  C1545   1.408   .     A
C1544  C1551   1.397   .     A
C1544  C1546   1.407   .     A
C1545  C1547   1.423   .     A
C1545  C1642   1.410   .     S
C1546  C1549   1.422   .     A
C1546  C1641   1.410   1_455 S
C1547  C1572   1.420   .     A
C1547  C1567   1.422   .     A
C1548  O1627   1.301   .     A
C1548  O1625   1.308   .     A
C1548  C1569   1.435   .     S
C1549  C1559   1.417   .     A
C1550  H1575   1.075   .     S
C1550  C1655   1.406   .     S
C1551  H1586   1.078   .     S
C1551  C1663   1.409   1_455 S
C1552  H1611   1.111   .     S
C1552  H1610   1.105   .     S
C1552  O1632   1.412   .     S
C1552  C1169   1.527   1_565 S
C1553  H1612   1.109   .     S
C1553  H1613   1.108   .     S
C1554  H1576   1.099   .     S
C1554  H1577   1.115   .     S
C1554  O1618   1.406   .     S
C1555  H1578   1.109   .     S
C1555  H1579   1.107   .     S
C1555  H1580   1.107   .     S
C1555  C1170   1.524   1_565 S
C1556  H1581   1.104   .     S
C1556  H1583   1.108   .     S
C1556  O1619   1.407   .     S
C1556  H1582   1.108   .     S
C1557  H1584   1.116   .     S
C1557  H1585   1.108   .     S
C1557  O1620   1.415   .     S
C1557  H1587   1.109   .     S
C1558  H1588   1.109   .     S
C1558  C1656   1.521   1_455 S
C1558  H1301   1.101   1_465 S
C1558  O1237   1.412   1_565 S
C1559  O1621   1.398   .     S
C1559  C1646   1.406   1_455 S
C1560  H1590   1.111   .     S
C1560  H1592   1.109   .     S
C1560  C1654   1.521   .     S
C1560  H1687   1.109   .     S
C1561  C1562   1.521   .     S
C1561  H1689   1.105   .     S
C1561  H1690   1.111   .     S
C1562  H1595   1.109   .     S
C1562  H1598   1.108   .     S
C1562  H1596   1.110   .     S
C1563  O1623   1.397   .     S
C1563  H1599   1.114   .     S
C1563  C1564   1.510   .     S
C1563  H448    1.095   1_556 S
C1564  H1603   1.104   .     S
C1564  H1602   1.111   .     S
C1564  H1601   1.107   .     S
C1565  O1624   1.401   .     S
C1565  C1566   1.515   .     S
C1566  H1607   1.110   .     S
C1566  H1606   1.108   .     S
C1566  H1609   1.104   .     S
C1567  O1622   1.397   .     S
C1567  C1647   1.409   .     S
C1569  C1184   1.328   1_565 S
C1569  H1224   1.087   1_565 S
C1570  O1630   1.312   .     A
C1570  O1628   1.309   .     A
C1571  O1629   1.310   .     A
C1571  O1631   1.310   .     A
C1572  O1632   1.388   .     S
Cu1573 O1631   1.960   .     S
Cu1573 Cu1574  2.733   .     S
Cu1573 O1617   1.969   .     S
Cu1573 N1616   2.054   .     S
Cu1573 O1627   1.961   .     S
Cu1573 O1628   1.968   .     S
Cu1574 O1625   1.969   .     S
Cu1574 N1615   2.054   .     S
Cu1574 O1630   1.960   .     S
Cu1574 O1626   1.961   .     S
Cu1574 O1629   1.968   .     S
H1591  C1656   1.109   1_455 S
H1593  C1657   1.105   1_455 S
H1594  C1657   1.111   1_455 S
H1597  C1184   1.087   1_565 S
H1604  C413    1.102   1_556 S
H1605  C413    1.115   1_556 S
H1614  C1169   1.108   1_565 S
N1616  N463    1.301   1_556 S
N1616  O472    1.343   1_556 S
O1622  C1177   1.418   1_565 S
O1623  N463    1.339   1_556 S
C1633  O1722   1.301   .     A
C1633  O1713   1.308   .     A
C1633  C1664   1.436   .     S
C1634  C1636   1.413   .     A
C1634  C1645   1.414   .     A
C1634  O1714   1.388   .     S
C1635  C1667   1.461   .     S
C1635  C1637   1.403   .     A
C1635  C1668   1.415   .     A
C1636  C1666   1.461   .     S
C1636  C1638   1.398   .     A
C1637  O1715   1.386   .     S
C1637  C1639   1.398   .     A
C1638  O1716   1.384   .     S
C1638  C1640   1.401   .     A
C1639  C1646   1.399   .     A
C1639  C1641   1.408   .     A
C1640  C1647   1.397   .     A
C1640  C1642   1.407   .     A
C1641  C1643   1.423   .     A
C1641  C1546   1.410   1_655 S
C1642  C1645   1.422   .     A
C1643  C1668   1.420   .     A
C1643  C1663   1.422   .     A
C1644  O1723   1.301   .     A
C1644  O1721   1.308   .     A
C1644  C1665   1.435   .     S
C1645  C1655   1.417   .     A
C1646  H1671   1.075   .     S
C1646  C1559   1.406   1_655 S
C1647  H1682   1.078   .     S
C1648  H1707   1.111   .     S
C1648  H1706   1.105   .     S
C1648  O1728   1.412   .     S
C1648  C1265   1.527   1_565 S
C1649  H1708   1.109   .     S
C1649  H1709   1.108   .     S
C1650  H1672   1.099   .     S
C1650  H1673   1.115   .     S
C1650  O1714   1.406   .     S
C1651  H1674   1.109   .     S
C1651  H1675   1.107   .     S
C1651  H1676   1.107   .     S
C1651  C1266   1.524   1_565 S
C1652  H1677   1.104   .     S
C1652  H1679   1.108   .     S
C1652  O1715   1.407   .     S
C1652  H1678   1.108   .     S
C1653  H1680   1.116   .     S
C1653  H1681   1.108   .     S
C1653  O1716   1.415   .     S
C1653  H1683   1.109   .     S
C1654  H1684   1.109   .     S
C1654  H1205   1.101   1_565 S
C1654  O1333   1.412   1_565 S
C1655  O1717   1.398   .     S
C1656  H1686   1.111   .     S
C1656  H1688   1.109   .     S
C1656  C1558   1.521   1_655 S
C1656  H1591   1.109   1_655 S
C1657  C1658   1.521   .     S
C1657  H1593   1.105   1_655 S
C1657  H1594   1.111   1_655 S
C1658  H1691   1.109   .     S
C1658  H1694   1.108   .     S
C1658  H1692   1.110   .     S
C1659  O1719   1.397   .     S
C1659  H1695   1.114   .     S
C1659  C1660   1.510   .     S
C1659  H544    1.095   1_556 S
C1660  H1699   1.104   .     S
C1660  H1698   1.111   .     S
C1660  H1697   1.107   .     S
C1661  O1720   1.401   .     S
C1661  C1662   1.515   .     S
C1662  H1703   1.110   .     S
C1662  H1702   1.108   .     S
C1662  H1705   1.104   .     S
C1663  O1718   1.397   .     S
C1663  C1551   1.409   1_655 S
C1665  C1280   1.328   1_565 S
C1665  H1320   1.087   1_565 S
C1666  O1726   1.312   .     A
C1666  O1724   1.309   .     A
C1667  O1725   1.310   .     A
C1667  O1727   1.310   .     A
C1668  O1728   1.388   .     S
Cu1669 O1727   1.960   .     S
Cu1669 Cu1670  2.733   .     S
Cu1669 O1713   1.969   .     S
Cu1669 N1712   2.054   .     S
Cu1669 O1723   1.961   .     S
Cu1669 O1724   1.968   .     S
Cu1670 O1721   1.969   .     S
Cu1670 N1711   2.054   .     S
Cu1670 O1726   1.960   .     S
Cu1670 O1722   1.961   .     S
Cu1670 O1725   1.968   .     S
H1685  C1366   1.101   1_655 S
H1693  C1280   1.087   1_565 S
H1700  C509    1.102   1_556 S
H1701  C509    1.115   1_556 S
H1710  C1265   1.108   1_565 S
N1712  N559    1.301   1_556 S
N1712  O568    1.343   1_556 S
O1718  C1273   1.418   1_565 S
O1719  N559    1.339   1_556 S
