data_str_m2_o10_o17_pcu_sym.220
_audit_creation_date              2020-01-03
_audit_creation_method            'Materials Studio'
_symmetry_space_group_name_H-M    'P1'
_symmetry_Int_Tables_number       1
_symmetry_cell_setting            triclinic
loop_
_symmetry_equiv_pos_as_xyz
  x,y,z
_cell_length_a                    30.1022
_cell_length_b                    26.2952
_cell_length_c                    22.6016
_cell_angle_alpha                 103.5477
_cell_angle_beta                  94.1022
_cell_angle_gamma                 93.3918
loop_
_atom_site_label
_atom_site_type_symbol
_atom_site_fract_x
_atom_site_fract_y
_atom_site_fract_z
_atom_site_U_iso_or_equiv
_atom_site_adp_type
_atom_site_occupancy
C1     C     0.24751   0.06682   0.15138   0.00000  Uiso   1.00
C2     C     0.25249   0.26651   0.18195   0.00000  Uiso   1.00
C3     C     0.01819   0.07211   0.13744   0.00000  Uiso   1.00
C4     C     0.48181   0.26123   0.19589   0.00000  Uiso   1.00
C5     C     0.24069   0.01114   0.14471   0.00000  Uiso   1.00
C6     C     0.25931   0.32220   0.18863   0.00000  Uiso   1.00
C7     C     0.16498   0.16763   0.16771   0.00000  Uiso   1.00
C8     C     0.33502   0.16570   0.16562   0.00000  Uiso   1.00
C9     C     0.40861   0.21357   0.17758   0.00000  Uiso   1.00
C10    C     0.09139   0.11977   0.15575   0.00000  Uiso   1.00
C11    C     0.38293   0.16529   0.16309   0.00000  Uiso   1.00
C12    C     0.11707   0.16804   0.17024   0.00000  Uiso   1.00
C13    C     0.40242   0.11696   0.14630   0.00000  Uiso   1.00
C14    C     0.09758   0.21638   0.18703   0.00000  Uiso   1.00
C15    C     0.44978   0.11692   0.14711   0.00000  Uiso   1.00
C16    C     0.05022   0.21641   0.18622   0.00000  Uiso   1.00
C17    C     0.47626   0.16592   0.16516   0.00000  Uiso   1.00
C18    C     0.02374   0.16741   0.16817   0.00000  Uiso   1.00
C19    C     0.45544   0.21367   0.17946   0.00000  Uiso   1.00
C20    C     0.04456   0.11966   0.15387   0.00000  Uiso   1.00
C21    C     0.47187   0.06984   0.13093   0.00000  Uiso   1.00
C22    C     0.02813   0.26349   0.20240   0.00000  Uiso   1.00
Cu23   Cu    0.25500   0.17246   0.22813   0.00000  Uiso   1.00
Cu24   Cu    0.24499   0.16087   0.10521   0.00000  Uiso   1.00
H25    H     0.03315   0.03508   0.12910   0.00000  Uiso   1.00
H26    H     0.46685   0.29826   0.20423   0.00000  Uiso   1.00
N27    N     0.23744   0.15214   0.01284   0.00000  Uiso   1.00
N28    N     0.26255   0.18119   0.32049   0.00000  Uiso   1.00
O29    O     0.25325   0.09538   0.20659   0.00000  Uiso   1.00
O30    O     0.24674   0.23796   0.12674   0.00000  Uiso   1.00
O31    O     0.24480   0.08559   0.10279   0.00000  Uiso   1.00
O32    O     0.25520   0.24774   0.23055   0.00000  Uiso   1.00
O33    O     0.18935   0.17155   0.21857   0.00000  Uiso   1.00
O34    O     0.31064   0.16179   0.11476   0.00000  Uiso   1.00
O35    O     0.18090   0.16176   0.11477   0.00000  Uiso   1.00
O36    O     0.31910   0.17157   0.21857   0.00000  Uiso   1.00
C37    C     0.38617   0.26515   0.19058   0.00000  Uiso   1.00
H38    H     0.34927   0.26091   0.18618   0.00000  Uiso   1.00
H39    H     0.39669   0.28835   0.23769   0.00000  Uiso   1.00
H40    H     0.39554   0.28789   0.15732   0.00000  Uiso   1.00
C41    C     0.11383   0.06818   0.14275   0.00000  Uiso   1.00
H42    H     0.15073   0.07242   0.14714   0.00000  Uiso   1.00
H43    H     0.10445   0.04544   0.17600   0.00000  Uiso   1.00
H44    H     0.10331   0.04499   0.09564   0.00000  Uiso   1.00
C45    C     0.37236   0.06614   0.12848   0.00000  Uiso   1.00
H46    H     0.38027   0.04136   0.16068   0.00000  Uiso   1.00
H47    H     0.33631   0.07102   0.12989   0.00000  Uiso   1.00
H48    H     0.37628   0.04557   0.08063   0.00000  Uiso   1.00
C49    C     0.12764   0.26719   0.20486   0.00000  Uiso   1.00
H50    H     0.12372   0.28777   0.25271   0.00000  Uiso   1.00
H51    H     0.16369   0.26232   0.20345   0.00000  Uiso   1.00
H52    H     0.11973   0.29197   0.17266   0.00000  Uiso   1.00
O53    O     0.44893   0.02061   0.11463   0.00000  Uiso   1.00
C54    C     0.45514   0.32909   0.05340   0.00000  Uiso   1.00
H55    H     0.49045   0.32022   0.04806   0.00000  Uiso   1.00
H56    H     0.44477   0.02060   0.02187   0.00000  Uiso   1.00
C57    C     0.42688   0.27706   0.03474   0.00000  Uiso   1.00
H58    H     0.39097   0.28379   0.03767   0.00000  Uiso   1.00
H59    H     0.43217   0.25686   0.32048   0.00000  Uiso   1.00
H60    H     0.43673   0.25130   0.06513   0.00000  Uiso   1.00
O61    O     0.05107   0.31272   0.21870   0.00000  Uiso   1.00
C62    C     0.04486   0.00424   0.27993   0.00000  Uiso   1.00
H63    H     0.05521   0.31273   0.31146   0.00000  Uiso   1.00
H64    H     0.00954   0.01313   0.28526   0.00000  Uiso   1.00
C65    C     0.07312   0.05628   0.29859   0.00000  Uiso   1.00
H66    H     0.06328   0.08204   0.26819   0.00000  Uiso   1.00
H67    H     0.06783   0.07648   0.01285   0.00000  Uiso   1.00
H68    H     0.10903   0.04954   0.29567   0.00000  Uiso   1.00
C69    C     0.20877   0.31503   0.09042   0.00000  Uiso   1.00
H70    H     0.19046   0.00871   0.06822   0.00000  Uiso   1.00
H71    H     0.22756   0.29092   0.05497   0.00000  Uiso   1.00
H72    H     0.18285   0.29010   0.10525   0.00000  Uiso   1.00
C73    C     0.29123   0.01831   0.24292   0.00000  Uiso   1.00
H74    H     0.30953   0.32463   0.26511   0.00000  Uiso   1.00
H75    H     0.31715   0.04323   0.22808   0.00000  Uiso   1.00
H76    H     0.27244   0.04241   0.27836   0.00000  Uiso   1.00
C77    C     0.19425   0.12964   0.31698   0.00000  Uiso   1.00
H78    H     0.18013   0.10335   0.01054   0.00000  Uiso   1.00
H79    H     0.17102   0.16090   0.31709   0.00000  Uiso   1.00
H80    H     0.19636   0.10392   0.27144   0.00000  Uiso   1.00
C81    C     0.30575   0.20369   0.01635   0.00000  Uiso   1.00
H82    H     0.32898   0.17244   0.01625   0.00000  Uiso   1.00
H83    H     0.31987   0.22999   0.32279   0.00000  Uiso   1.00
H84    H     0.30364   0.22942   0.06189   0.00000  Uiso   1.00
C85    C     0.74751   0.06682   0.15138   0.00000  Uiso   1.00
C86    C     0.75249   0.26651   0.18195   0.00000  Uiso   1.00
C87    C     0.51819   0.07211   0.13744   0.00000  Uiso   1.00
C88    C     0.98181   0.26123   0.19589   0.00000  Uiso   1.00
C89    C     0.74069   0.01114   0.14471   0.00000  Uiso   1.00
C90    C     0.75931   0.32220   0.18863   0.00000  Uiso   1.00
C91    C     0.66498   0.16763   0.16771   0.00000  Uiso   1.00
C92    C     0.83502   0.16570   0.16562   0.00000  Uiso   1.00
C93    C     0.90861   0.21357   0.17758   0.00000  Uiso   1.00
C94    C     0.59139   0.11977   0.15575   0.00000  Uiso   1.00
C95    C     0.88293   0.16529   0.16309   0.00000  Uiso   1.00
C96    C     0.61707   0.16804   0.17024   0.00000  Uiso   1.00
C97    C     0.90242   0.11696   0.14630   0.00000  Uiso   1.00
C98    C     0.59758   0.21638   0.18703   0.00000  Uiso   1.00
C99    C     0.94978   0.11692   0.14711   0.00000  Uiso   1.00
C100   C     0.55022   0.21641   0.18622   0.00000  Uiso   1.00
C101   C     0.97626   0.16592   0.16516   0.00000  Uiso   1.00
C102   C     0.52374   0.16741   0.16817   0.00000  Uiso   1.00
C103   C     0.95544   0.21367   0.17946   0.00000  Uiso   1.00
C104   C     0.54456   0.11966   0.15387   0.00000  Uiso   1.00
C105   C     0.97187   0.06984   0.13093   0.00000  Uiso   1.00
C106   C     0.52813   0.26349   0.20240   0.00000  Uiso   1.00
Cu107  Cu    0.75500   0.17246   0.22813   0.00000  Uiso   1.00
Cu108  Cu    0.74499   0.16087   0.10521   0.00000  Uiso   1.00
H109   H     0.53315   0.03508   0.12910   0.00000  Uiso   1.00
H110   H     0.96685   0.29826   0.20423   0.00000  Uiso   1.00
N111   N     0.73744   0.15214   0.01284   0.00000  Uiso   1.00
N112   N     0.76255   0.18119   0.32049   0.00000  Uiso   1.00
O113   O     0.75325   0.09538   0.20659   0.00000  Uiso   1.00
O114   O     0.74674   0.23796   0.12674   0.00000  Uiso   1.00
O115   O     0.74480   0.08559   0.10279   0.00000  Uiso   1.00
O116   O     0.75520   0.24774   0.23055   0.00000  Uiso   1.00
O117   O     0.68935   0.17155   0.21857   0.00000  Uiso   1.00
O118   O     0.81064   0.16179   0.11476   0.00000  Uiso   1.00
O119   O     0.68090   0.16176   0.11477   0.00000  Uiso   1.00
O120   O     0.81910   0.17157   0.21857   0.00000  Uiso   1.00
C121   C     0.88617   0.26515   0.19058   0.00000  Uiso   1.00
H122   H     0.84927   0.26091   0.18618   0.00000  Uiso   1.00
H123   H     0.89669   0.28835   0.23769   0.00000  Uiso   1.00
H124   H     0.89554   0.28789   0.15732   0.00000  Uiso   1.00
C125   C     0.61383   0.06818   0.14275   0.00000  Uiso   1.00
H126   H     0.65073   0.07242   0.14714   0.00000  Uiso   1.00
H127   H     0.60445   0.04544   0.17600   0.00000  Uiso   1.00
H128   H     0.60331   0.04499   0.09564   0.00000  Uiso   1.00
C129   C     0.87236   0.06614   0.12848   0.00000  Uiso   1.00
H130   H     0.88027   0.04136   0.16068   0.00000  Uiso   1.00
H131   H     0.83631   0.07102   0.12989   0.00000  Uiso   1.00
H132   H     0.87628   0.04557   0.08063   0.00000  Uiso   1.00
C133   C     0.62764   0.26719   0.20486   0.00000  Uiso   1.00
H134   H     0.62372   0.28777   0.25271   0.00000  Uiso   1.00
H135   H     0.66369   0.26232   0.20345   0.00000  Uiso   1.00
H136   H     0.61973   0.29197   0.17266   0.00000  Uiso   1.00
O137   O     0.94893   0.02061   0.11463   0.00000  Uiso   1.00
C138   C     0.95514   0.32909   0.05340   0.00000  Uiso   1.00
H139   H     0.99045   0.32022   0.04806   0.00000  Uiso   1.00
H140   H     0.94477   0.02060   0.02187   0.00000  Uiso   1.00
C141   C     0.92688   0.27706   0.03474   0.00000  Uiso   1.00
H142   H     0.89097   0.28379   0.03767   0.00000  Uiso   1.00
H143   H     0.93217   0.25686   0.32048   0.00000  Uiso   1.00
H144   H     0.93673   0.25130   0.06513   0.00000  Uiso   1.00
O145   O     0.55107   0.31272   0.21870   0.00000  Uiso   1.00
C146   C     0.54486   0.00424   0.27993   0.00000  Uiso   1.00
H147   H     0.55521   0.31273   0.31146   0.00000  Uiso   1.00
H148   H     0.50954   0.01313   0.28526   0.00000  Uiso   1.00
C149   C     0.57312   0.05628   0.29859   0.00000  Uiso   1.00
H150   H     0.56328   0.08204   0.26819   0.00000  Uiso   1.00
H151   H     0.56783   0.07648   0.01285   0.00000  Uiso   1.00
H152   H     0.60903   0.04954   0.29567   0.00000  Uiso   1.00
C153   C     0.70877   0.31503   0.09042   0.00000  Uiso   1.00
H154   H     0.69046   0.00871   0.06822   0.00000  Uiso   1.00
H155   H     0.72756   0.29092   0.05497   0.00000  Uiso   1.00
H156   H     0.68285   0.29010   0.10525   0.00000  Uiso   1.00
C157   C     0.79123   0.01831   0.24292   0.00000  Uiso   1.00
H158   H     0.80953   0.32463   0.26511   0.00000  Uiso   1.00
H159   H     0.81715   0.04323   0.22808   0.00000  Uiso   1.00
H160   H     0.77244   0.04241   0.27836   0.00000  Uiso   1.00
C161   C     0.69425   0.12964   0.31698   0.00000  Uiso   1.00
H162   H     0.68013   0.10335   0.01054   0.00000  Uiso   1.00
H163   H     0.67102   0.16090   0.31709   0.00000  Uiso   1.00
H164   H     0.69636   0.10392   0.27144   0.00000  Uiso   1.00
C165   C     0.80575   0.20369   0.01635   0.00000  Uiso   1.00
H166   H     0.82898   0.17244   0.01625   0.00000  Uiso   1.00
H167   H     0.81987   0.22999   0.32279   0.00000  Uiso   1.00
H168   H     0.80364   0.22942   0.06189   0.00000  Uiso   1.00
C169   C     0.24751   0.40016   0.15138   0.00000  Uiso   1.00
C170   C     0.25249   0.59984   0.18195   0.00000  Uiso   1.00
C171   C     0.01819   0.40544   0.13744   0.00000  Uiso   1.00
C172   C     0.48181   0.59456   0.19589   0.00000  Uiso   1.00
C173   C     0.24069   0.34447   0.14471   0.00000  Uiso   1.00
C174   C     0.25931   0.65553   0.18863   0.00000  Uiso   1.00
C175   C     0.16498   0.50096   0.16771   0.00000  Uiso   1.00
C176   C     0.33502   0.49904   0.16562   0.00000  Uiso   1.00
C177   C     0.40861   0.54690   0.17758   0.00000  Uiso   1.00
C178   C     0.09139   0.45310   0.15575   0.00000  Uiso   1.00
C179   C     0.38293   0.49862   0.16309   0.00000  Uiso   1.00
C180   C     0.11707   0.50138   0.17024   0.00000  Uiso   1.00
C181   C     0.40242   0.45029   0.14630   0.00000  Uiso   1.00
C182   C     0.09758   0.54971   0.18703   0.00000  Uiso   1.00
C183   C     0.44978   0.45026   0.14711   0.00000  Uiso   1.00
C184   C     0.05022   0.54974   0.18622   0.00000  Uiso   1.00
C185   C     0.47626   0.49925   0.16516   0.00000  Uiso   1.00
C186   C     0.02374   0.50075   0.16817   0.00000  Uiso   1.00
C187   C     0.45544   0.54701   0.17946   0.00000  Uiso   1.00
C188   C     0.04456   0.45300   0.15387   0.00000  Uiso   1.00
C189   C     0.47187   0.40317   0.13093   0.00000  Uiso   1.00
C190   C     0.02813   0.59683   0.20240   0.00000  Uiso   1.00
Cu191  Cu    0.25500   0.50579   0.22813   0.00000  Uiso   1.00
Cu192  Cu    0.24499   0.49421   0.10521   0.00000  Uiso   1.00
H193   H     0.03315   0.36841   0.12910   0.00000  Uiso   1.00
H194   H     0.46685   0.63159   0.20423   0.00000  Uiso   1.00
N195   N     0.23744   0.48547   0.01284   0.00000  Uiso   1.00
N196   N     0.26255   0.51453   0.32049   0.00000  Uiso   1.00
O197   O     0.25325   0.42871   0.20659   0.00000  Uiso   1.00
O198   O     0.24674   0.57129   0.12674   0.00000  Uiso   1.00
O199   O     0.24480   0.41892   0.10279   0.00000  Uiso   1.00
O200   O     0.25520   0.58108   0.23055   0.00000  Uiso   1.00
O201   O     0.18935   0.50488   0.21857   0.00000  Uiso   1.00
O202   O     0.31064   0.49512   0.11476   0.00000  Uiso   1.00
O203   O     0.18090   0.49510   0.11477   0.00000  Uiso   1.00
O204   O     0.31910   0.50490   0.21857   0.00000  Uiso   1.00
C205   C     0.38617   0.59849   0.19058   0.00000  Uiso   1.00
H206   H     0.34927   0.59425   0.18618   0.00000  Uiso   1.00
H207   H     0.39669   0.62168   0.23769   0.00000  Uiso   1.00
H208   H     0.39554   0.62123   0.15732   0.00000  Uiso   1.00
C209   C     0.11383   0.40151   0.14275   0.00000  Uiso   1.00
H210   H     0.15073   0.40576   0.14714   0.00000  Uiso   1.00
H211   H     0.10445   0.37877   0.17600   0.00000  Uiso   1.00
H212   H     0.10331   0.37832   0.09564   0.00000  Uiso   1.00
C213   C     0.37236   0.39948   0.12848   0.00000  Uiso   1.00
H214   H     0.38027   0.37470   0.16068   0.00000  Uiso   1.00
H215   H     0.33631   0.40435   0.12989   0.00000  Uiso   1.00
H216   H     0.37628   0.37890   0.08063   0.00000  Uiso   1.00
C217   C     0.12764   0.60052   0.20486   0.00000  Uiso   1.00
H218   H     0.12372   0.62110   0.25271   0.00000  Uiso   1.00
H219   H     0.16369   0.59565   0.20345   0.00000  Uiso   1.00
H220   H     0.11973   0.62531   0.17266   0.00000  Uiso   1.00
O221   O     0.44893   0.35394   0.11463   0.00000  Uiso   1.00
C222   C     0.45514   0.66243   0.05340   0.00000  Uiso   1.00
H223   H     0.49045   0.65355   0.04806   0.00000  Uiso   1.00
H224   H     0.44477   0.35394   0.02187   0.00000  Uiso   1.00
C225   C     0.42688   0.61039   0.03474   0.00000  Uiso   1.00
H226   H     0.39097   0.61712   0.03767   0.00000  Uiso   1.00
H227   H     0.43217   0.59020   0.32048   0.00000  Uiso   1.00
H228   H     0.43673   0.58463   0.06513   0.00000  Uiso   1.00
O229   O     0.05107   0.64606   0.21870   0.00000  Uiso   1.00
C230   C     0.04486   0.33758   0.27993   0.00000  Uiso   1.00
H231   H     0.05521   0.64607   0.31146   0.00000  Uiso   1.00
H232   H     0.00954   0.34646   0.28526   0.00000  Uiso   1.00
C233   C     0.07312   0.38961   0.29859   0.00000  Uiso   1.00
H234   H     0.06328   0.41537   0.26819   0.00000  Uiso   1.00
H235   H     0.06783   0.40981   0.01285   0.00000  Uiso   1.00
H236   H     0.10903   0.38287   0.29567   0.00000  Uiso   1.00
C237   C     0.20877   0.64836   0.09042   0.00000  Uiso   1.00
H238   H     0.19046   0.34204   0.06822   0.00000  Uiso   1.00
H239   H     0.22756   0.62425   0.05497   0.00000  Uiso   1.00
H240   H     0.18285   0.62343   0.10525   0.00000  Uiso   1.00
C241   C     0.29123   0.35164   0.24292   0.00000  Uiso   1.00
H242   H     0.30953   0.65796   0.26511   0.00000  Uiso   1.00
H243   H     0.31715   0.37657   0.22808   0.00000  Uiso   1.00
H244   H     0.27244   0.37575   0.27836   0.00000  Uiso   1.00
C245   C     0.19425   0.46298   0.31698   0.00000  Uiso   1.00
H246   H     0.18013   0.43668   0.01054   0.00000  Uiso   1.00
H247   H     0.17102   0.49423   0.31709   0.00000  Uiso   1.00
H248   H     0.19636   0.43725   0.27144   0.00000  Uiso   1.00
C249   C     0.30575   0.53702   0.01635   0.00000  Uiso   1.00
H250   H     0.32898   0.50577   0.01625   0.00000  Uiso   1.00
H251   H     0.31987   0.56332   0.32279   0.00000  Uiso   1.00
H252   H     0.30364   0.56275   0.06189   0.00000  Uiso   1.00
C253   C     0.74751   0.40016   0.15138   0.00000  Uiso   1.00
C254   C     0.75249   0.59984   0.18195   0.00000  Uiso   1.00
C255   C     0.51819   0.40544   0.13744   0.00000  Uiso   1.00
C256   C     0.98181   0.59456   0.19589   0.00000  Uiso   1.00
C257   C     0.74069   0.34447   0.14471   0.00000  Uiso   1.00
C258   C     0.75931   0.65553   0.18863   0.00000  Uiso   1.00
C259   C     0.66498   0.50096   0.16771   0.00000  Uiso   1.00
C260   C     0.83502   0.49904   0.16562   0.00000  Uiso   1.00
C261   C     0.90861   0.54690   0.17758   0.00000  Uiso   1.00
C262   C     0.59139   0.45310   0.15575   0.00000  Uiso   1.00
C263   C     0.88293   0.49862   0.16309   0.00000  Uiso   1.00
C264   C     0.61707   0.50138   0.17024   0.00000  Uiso   1.00
C265   C     0.90242   0.45029   0.14630   0.00000  Uiso   1.00
C266   C     0.59758   0.54971   0.18703   0.00000  Uiso   1.00
C267   C     0.94978   0.45026   0.14711   0.00000  Uiso   1.00
C268   C     0.55022   0.54974   0.18622   0.00000  Uiso   1.00
C269   C     0.97626   0.49925   0.16516   0.00000  Uiso   1.00
C270   C     0.52374   0.50075   0.16817   0.00000  Uiso   1.00
C271   C     0.95544   0.54701   0.17946   0.00000  Uiso   1.00
C272   C     0.54456   0.45300   0.15387   0.00000  Uiso   1.00
C273   C     0.97187   0.40317   0.13093   0.00000  Uiso   1.00
C274   C     0.52813   0.59683   0.20240   0.00000  Uiso   1.00
Cu275  Cu    0.75500   0.50579   0.22813   0.00000  Uiso   1.00
Cu276  Cu    0.74499   0.49421   0.10521   0.00000  Uiso   1.00
H277   H     0.53315   0.36841   0.12910   0.00000  Uiso   1.00
H278   H     0.96685   0.63159   0.20423   0.00000  Uiso   1.00
N279   N     0.73744   0.48547   0.01284   0.00000  Uiso   1.00
N280   N     0.76255   0.51453   0.32049   0.00000  Uiso   1.00
O281   O     0.75325   0.42871   0.20659   0.00000  Uiso   1.00
O282   O     0.74674   0.57129   0.12674   0.00000  Uiso   1.00
O283   O     0.74480   0.41892   0.10279   0.00000  Uiso   1.00
O284   O     0.75520   0.58108   0.23055   0.00000  Uiso   1.00
O285   O     0.68935   0.50488   0.21857   0.00000  Uiso   1.00
O286   O     0.81064   0.49512   0.11476   0.00000  Uiso   1.00
O287   O     0.68090   0.49510   0.11477   0.00000  Uiso   1.00
O288   O     0.81910   0.50490   0.21857   0.00000  Uiso   1.00
C289   C     0.88617   0.59849   0.19058   0.00000  Uiso   1.00
H290   H     0.84927   0.59425   0.18618   0.00000  Uiso   1.00
H291   H     0.89669   0.62168   0.23769   0.00000  Uiso   1.00
H292   H     0.89554   0.62123   0.15732   0.00000  Uiso   1.00
C293   C     0.61383   0.40151   0.14275   0.00000  Uiso   1.00
H294   H     0.65073   0.40576   0.14714   0.00000  Uiso   1.00
H295   H     0.60445   0.37877   0.17600   0.00000  Uiso   1.00
H296   H     0.60331   0.37832   0.09564   0.00000  Uiso   1.00
C297   C     0.87236   0.39948   0.12848   0.00000  Uiso   1.00
H298   H     0.88027   0.37470   0.16068   0.00000  Uiso   1.00
H299   H     0.83631   0.40435   0.12989   0.00000  Uiso   1.00
H300   H     0.87628   0.37890   0.08063   0.00000  Uiso   1.00
C301   C     0.62764   0.60052   0.20486   0.00000  Uiso   1.00
H302   H     0.62372   0.62110   0.25271   0.00000  Uiso   1.00
H303   H     0.66369   0.59565   0.20345   0.00000  Uiso   1.00
H304   H     0.61973   0.62531   0.17266   0.00000  Uiso   1.00
O305   O     0.94893   0.35394   0.11463   0.00000  Uiso   1.00
C306   C     0.95514   0.66243   0.05340   0.00000  Uiso   1.00
H307   H     0.99045   0.65355   0.04806   0.00000  Uiso   1.00
H308   H     0.94477   0.35394   0.02187   0.00000  Uiso   1.00
C309   C     0.92688   0.61039   0.03474   0.00000  Uiso   1.00
H310   H     0.89097   0.61712   0.03767   0.00000  Uiso   1.00
H311   H     0.93217   0.59020   0.32048   0.00000  Uiso   1.00
H312   H     0.93673   0.58463   0.06513   0.00000  Uiso   1.00
O313   O     0.55107   0.64606   0.21870   0.00000  Uiso   1.00
C314   C     0.54486   0.33758   0.27993   0.00000  Uiso   1.00
H315   H     0.55521   0.64607   0.31146   0.00000  Uiso   1.00
H316   H     0.50954   0.34646   0.28526   0.00000  Uiso   1.00
C317   C     0.57312   0.38961   0.29859   0.00000  Uiso   1.00
H318   H     0.56328   0.41537   0.26819   0.00000  Uiso   1.00
H319   H     0.56783   0.40981   0.01285   0.00000  Uiso   1.00
H320   H     0.60903   0.38287   0.29567   0.00000  Uiso   1.00
C321   C     0.70877   0.64836   0.09042   0.00000  Uiso   1.00
H322   H     0.69046   0.34204   0.06822   0.00000  Uiso   1.00
H323   H     0.72756   0.62425   0.05497   0.00000  Uiso   1.00
H324   H     0.68285   0.62343   0.10525   0.00000  Uiso   1.00
C325   C     0.79123   0.35164   0.24292   0.00000  Uiso   1.00
H326   H     0.80953   0.65796   0.26511   0.00000  Uiso   1.00
H327   H     0.81715   0.37657   0.22808   0.00000  Uiso   1.00
H328   H     0.77244   0.37575   0.27836   0.00000  Uiso   1.00
C329   C     0.69425   0.46298   0.31698   0.00000  Uiso   1.00
H330   H     0.68013   0.43668   0.01054   0.00000  Uiso   1.00
H331   H     0.67102   0.49423   0.31709   0.00000  Uiso   1.00
H332   H     0.69636   0.43725   0.27144   0.00000  Uiso   1.00
C333   C     0.80575   0.53702   0.01635   0.00000  Uiso   1.00
H334   H     0.82898   0.50577   0.01625   0.00000  Uiso   1.00
H335   H     0.81987   0.56332   0.32279   0.00000  Uiso   1.00
H336   H     0.80364   0.56275   0.06189   0.00000  Uiso   1.00
C337   C     0.24751   0.73349   0.15138   0.00000  Uiso   1.00
C338   C     0.25249   0.93318   0.18195   0.00000  Uiso   1.00
C339   C     0.01819   0.73877   0.13744   0.00000  Uiso   1.00
C340   C     0.48181   0.92789   0.19589   0.00000  Uiso   1.00
C341   C     0.24069   0.67780   0.14471   0.00000  Uiso   1.00
C342   C     0.25931   0.98886   0.18863   0.00000  Uiso   1.00
C343   C     0.16498   0.83430   0.16771   0.00000  Uiso   1.00
C344   C     0.33502   0.83237   0.16562   0.00000  Uiso   1.00
C345   C     0.40861   0.88023   0.17758   0.00000  Uiso   1.00
C346   C     0.09139   0.78643   0.15575   0.00000  Uiso   1.00
C347   C     0.38293   0.83196   0.16309   0.00000  Uiso   1.00
C348   C     0.11707   0.83471   0.17024   0.00000  Uiso   1.00
C349   C     0.40242   0.78363   0.14630   0.00000  Uiso   1.00
C350   C     0.09758   0.88304   0.18703   0.00000  Uiso   1.00
C351   C     0.44978   0.78359   0.14711   0.00000  Uiso   1.00
C352   C     0.05022   0.88308   0.18622   0.00000  Uiso   1.00
C353   C     0.47626   0.83259   0.16516   0.00000  Uiso   1.00
C354   C     0.02374   0.83408   0.16817   0.00000  Uiso   1.00
C355   C     0.45544   0.88034   0.17946   0.00000  Uiso   1.00
C356   C     0.04456   0.78633   0.15387   0.00000  Uiso   1.00
C357   C     0.47187   0.73651   0.13093   0.00000  Uiso   1.00
C358   C     0.02813   0.93016   0.20240   0.00000  Uiso   1.00
Cu359  Cu    0.25500   0.83913   0.22813   0.00000  Uiso   1.00
Cu360  Cu    0.24499   0.82754   0.10521   0.00000  Uiso   1.00
H361   H     0.03315   0.70174   0.12910   0.00000  Uiso   1.00
H362   H     0.46685   0.96492   0.20423   0.00000  Uiso   1.00
N363   N     0.23744   0.81881   0.01284   0.00000  Uiso   1.00
N364   N     0.26255   0.84786   0.32049   0.00000  Uiso   1.00
O365   O     0.25325   0.76204   0.20659   0.00000  Uiso   1.00
O366   O     0.24674   0.90462   0.12674   0.00000  Uiso   1.00
O367   O     0.24480   0.75226   0.10279   0.00000  Uiso   1.00
O368   O     0.25520   0.91441   0.23055   0.00000  Uiso   1.00
O369   O     0.18935   0.83821   0.21857   0.00000  Uiso   1.00
O370   O     0.31064   0.82845   0.11476   0.00000  Uiso   1.00
O371   O     0.18090   0.82843   0.11477   0.00000  Uiso   1.00
O372   O     0.31910   0.83824   0.21857   0.00000  Uiso   1.00
C373   C     0.38617   0.93182   0.19058   0.00000  Uiso   1.00
H374   H     0.34927   0.92758   0.18618   0.00000  Uiso   1.00
H375   H     0.39669   0.95501   0.23769   0.00000  Uiso   1.00
H376   H     0.39554   0.95456   0.15732   0.00000  Uiso   1.00
C377   C     0.11383   0.73485   0.14275   0.00000  Uiso   1.00
H378   H     0.15073   0.73909   0.14714   0.00000  Uiso   1.00
H379   H     0.10445   0.71211   0.17600   0.00000  Uiso   1.00
H380   H     0.10331   0.71166   0.09564   0.00000  Uiso   1.00
C381   C     0.37236   0.73281   0.12848   0.00000  Uiso   1.00
H382   H     0.38027   0.70803   0.16068   0.00000  Uiso   1.00
H383   H     0.33631   0.73768   0.12989   0.00000  Uiso   1.00
H384   H     0.37628   0.71223   0.08063   0.00000  Uiso   1.00
C385   C     0.12764   0.93386   0.20486   0.00000  Uiso   1.00
H386   H     0.12372   0.95443   0.25271   0.00000  Uiso   1.00
H387   H     0.16369   0.92898   0.20345   0.00000  Uiso   1.00
H388   H     0.11973   0.95864   0.17266   0.00000  Uiso   1.00
O389   O     0.44893   0.68728   0.11463   0.00000  Uiso   1.00
C390   C     0.45514   0.99576   0.05340   0.00000  Uiso   1.00
H391   H     0.49045   0.98688   0.04806   0.00000  Uiso   1.00
H392   H     0.44477   0.68727   0.02187   0.00000  Uiso   1.00
C393   C     0.42688   0.94373   0.03474   0.00000  Uiso   1.00
H394   H     0.39097   0.95045   0.03767   0.00000  Uiso   1.00
H395   H     0.43217   0.92353   0.32048   0.00000  Uiso   1.00
H396   H     0.43673   0.91796   0.06513   0.00000  Uiso   1.00
O397   O     0.05107   0.97939   0.21870   0.00000  Uiso   1.00
C398   C     0.04486   0.67091   0.27993   0.00000  Uiso   1.00
H399   H     0.05521   0.97940   0.31146   0.00000  Uiso   1.00
H400   H     0.00954   0.67979   0.28526   0.00000  Uiso   1.00
C401   C     0.07312   0.72294   0.29859   0.00000  Uiso   1.00
H402   H     0.06328   0.74870   0.26819   0.00000  Uiso   1.00
H403   H     0.06783   0.74314   0.01285   0.00000  Uiso   1.00
H404   H     0.10903   0.71621   0.29567   0.00000  Uiso   1.00
C405   C     0.20877   0.98169   0.09042   0.00000  Uiso   1.00
H406   H     0.19046   0.67537   0.06822   0.00000  Uiso   1.00
H407   H     0.22756   0.95759   0.05497   0.00000  Uiso   1.00
H408   H     0.18285   0.95677   0.10525   0.00000  Uiso   1.00
C409   C     0.29123   0.68497   0.24292   0.00000  Uiso   1.00
H410   H     0.30953   0.99129   0.26511   0.00000  Uiso   1.00
H411   H     0.31715   0.70990   0.22808   0.00000  Uiso   1.00
H412   H     0.27244   0.70908   0.27836   0.00000  Uiso   1.00
C413   C     0.19425   0.79631   0.31698   0.00000  Uiso   1.00
H414   H     0.18013   0.77001   0.01054   0.00000  Uiso   1.00
H415   H     0.17102   0.82756   0.31709   0.00000  Uiso   1.00
H416   H     0.19636   0.77058   0.27144   0.00000  Uiso   1.00
C417   C     0.30575   0.87036   0.01635   0.00000  Uiso   1.00
H418   H     0.32898   0.83910   0.01625   0.00000  Uiso   1.00
H419   H     0.31987   0.89665   0.32279   0.00000  Uiso   1.00
H420   H     0.30364   0.89608   0.06189   0.00000  Uiso   1.00
C421   C     0.74751   0.73349   0.15138   0.00000  Uiso   1.00
C422   C     0.75249   0.93318   0.18195   0.00000  Uiso   1.00
C423   C     0.51819   0.73877   0.13744   0.00000  Uiso   1.00
C424   C     0.98181   0.92789   0.19589   0.00000  Uiso   1.00
C425   C     0.74069   0.67780   0.14471   0.00000  Uiso   1.00
C426   C     0.75931   0.98886   0.18863   0.00000  Uiso   1.00
C427   C     0.66498   0.83430   0.16771   0.00000  Uiso   1.00
C428   C     0.83502   0.83237   0.16562   0.00000  Uiso   1.00
C429   C     0.90861   0.88023   0.17758   0.00000  Uiso   1.00
C430   C     0.59139   0.78643   0.15575   0.00000  Uiso   1.00
C431   C     0.88293   0.83196   0.16309   0.00000  Uiso   1.00
C432   C     0.61707   0.83471   0.17024   0.00000  Uiso   1.00
C433   C     0.90242   0.78363   0.14630   0.00000  Uiso   1.00
C434   C     0.59758   0.88304   0.18703   0.00000  Uiso   1.00
C435   C     0.94978   0.78359   0.14711   0.00000  Uiso   1.00
C436   C     0.55022   0.88308   0.18622   0.00000  Uiso   1.00
C437   C     0.97626   0.83259   0.16516   0.00000  Uiso   1.00
C438   C     0.52374   0.83408   0.16817   0.00000  Uiso   1.00
C439   C     0.95544   0.88034   0.17946   0.00000  Uiso   1.00
C440   C     0.54456   0.78633   0.15387   0.00000  Uiso   1.00
C441   C     0.97187   0.73651   0.13093   0.00000  Uiso   1.00
C442   C     0.52813   0.93016   0.20240   0.00000  Uiso   1.00
Cu443  Cu    0.75500   0.83913   0.22813   0.00000  Uiso   1.00
Cu444  Cu    0.74499   0.82754   0.10521   0.00000  Uiso   1.00
H445   H     0.53315   0.70174   0.12910   0.00000  Uiso   1.00
H446   H     0.96685   0.96492   0.20423   0.00000  Uiso   1.00
N447   N     0.73744   0.81881   0.01284   0.00000  Uiso   1.00
N448   N     0.76255   0.84786   0.32049   0.00000  Uiso   1.00
O449   O     0.75325   0.76204   0.20659   0.00000  Uiso   1.00
O450   O     0.74674   0.90462   0.12674   0.00000  Uiso   1.00
O451   O     0.74480   0.75226   0.10279   0.00000  Uiso   1.00
O452   O     0.75520   0.91441   0.23055   0.00000  Uiso   1.00
O453   O     0.68935   0.83821   0.21857   0.00000  Uiso   1.00
O454   O     0.81064   0.82845   0.11476   0.00000  Uiso   1.00
O455   O     0.68090   0.82843   0.11477   0.00000  Uiso   1.00
O456   O     0.81910   0.83824   0.21857   0.00000  Uiso   1.00
C457   C     0.88617   0.93182   0.19058   0.00000  Uiso   1.00
H458   H     0.84927   0.92758   0.18618   0.00000  Uiso   1.00
H459   H     0.89669   0.95501   0.23769   0.00000  Uiso   1.00
H460   H     0.89554   0.95456   0.15732   0.00000  Uiso   1.00
C461   C     0.61383   0.73485   0.14275   0.00000  Uiso   1.00
H462   H     0.65073   0.73909   0.14714   0.00000  Uiso   1.00
H463   H     0.60445   0.71211   0.17600   0.00000  Uiso   1.00
H464   H     0.60331   0.71166   0.09564   0.00000  Uiso   1.00
C465   C     0.87236   0.73281   0.12848   0.00000  Uiso   1.00
H466   H     0.88027   0.70803   0.16068   0.00000  Uiso   1.00
H467   H     0.83631   0.73768   0.12989   0.00000  Uiso   1.00
H468   H     0.87628   0.71223   0.08063   0.00000  Uiso   1.00
C469   C     0.62764   0.93386   0.20486   0.00000  Uiso   1.00
H470   H     0.62372   0.95443   0.25271   0.00000  Uiso   1.00
H471   H     0.66369   0.92898   0.20345   0.00000  Uiso   1.00
H472   H     0.61973   0.95864   0.17266   0.00000  Uiso   1.00
O473   O     0.94893   0.68728   0.11463   0.00000  Uiso   1.00
C474   C     0.95514   0.99576   0.05340   0.00000  Uiso   1.00
H475   H     0.99045   0.98688   0.04806   0.00000  Uiso   1.00
H476   H     0.94477   0.68727   0.02187   0.00000  Uiso   1.00
C477   C     0.92688   0.94373   0.03474   0.00000  Uiso   1.00
H478   H     0.89097   0.95045   0.03767   0.00000  Uiso   1.00
H479   H     0.93217   0.92353   0.32048   0.00000  Uiso   1.00
H480   H     0.93673   0.91796   0.06513   0.00000  Uiso   1.00
O481   O     0.55107   0.97939   0.21870   0.00000  Uiso   1.00
C482   C     0.54486   0.67091   0.27993   0.00000  Uiso   1.00
H483   H     0.55521   0.97940   0.31146   0.00000  Uiso   1.00
H484   H     0.50954   0.67979   0.28526   0.00000  Uiso   1.00
C485   C     0.57312   0.72294   0.29859   0.00000  Uiso   1.00
H486   H     0.56328   0.74870   0.26819   0.00000  Uiso   1.00
H487   H     0.56783   0.74314   0.01285   0.00000  Uiso   1.00
H488   H     0.60903   0.71621   0.29567   0.00000  Uiso   1.00
C489   C     0.70877   0.98169   0.09042   0.00000  Uiso   1.00
H490   H     0.69046   0.67537   0.06822   0.00000  Uiso   1.00
H491   H     0.72756   0.95759   0.05497   0.00000  Uiso   1.00
H492   H     0.68285   0.95677   0.10525   0.00000  Uiso   1.00
C493   C     0.79123   0.68497   0.24292   0.00000  Uiso   1.00
H494   H     0.80953   0.99129   0.26511   0.00000  Uiso   1.00
H495   H     0.81715   0.70990   0.22808   0.00000  Uiso   1.00
H496   H     0.77244   0.70908   0.27836   0.00000  Uiso   1.00
C497   C     0.69425   0.79631   0.31698   0.00000  Uiso   1.00
H498   H     0.68013   0.77001   0.01054   0.00000  Uiso   1.00
H499   H     0.67102   0.82756   0.31709   0.00000  Uiso   1.00
H500   H     0.69636   0.77058   0.27144   0.00000  Uiso   1.00
C501   C     0.80575   0.87036   0.01635   0.00000  Uiso   1.00
H502   H     0.82898   0.83910   0.01625   0.00000  Uiso   1.00
H503   H     0.81987   0.89665   0.32279   0.00000  Uiso   1.00
H504   H     0.80364   0.89608   0.06189   0.00000  Uiso   1.00
C505   C     0.24751   0.06682   0.48471   0.00000  Uiso   1.00
C506   C     0.25249   0.26651   0.51529   0.00000  Uiso   1.00
C507   C     0.01819   0.07211   0.47077   0.00000  Uiso   1.00
C508   C     0.48181   0.26123   0.52922   0.00000  Uiso   1.00
C509   C     0.24069   0.01114   0.47804   0.00000  Uiso   1.00
C510   C     0.25931   0.32220   0.52196   0.00000  Uiso   1.00
C511   C     0.16498   0.16763   0.50105   0.00000  Uiso   1.00
C512   C     0.33502   0.16570   0.49895   0.00000  Uiso   1.00
C513   C     0.40861   0.21357   0.51091   0.00000  Uiso   1.00
C514   C     0.09139   0.11977   0.48908   0.00000  Uiso   1.00
C515   C     0.38293   0.16529   0.49642   0.00000  Uiso   1.00
C516   C     0.11707   0.16804   0.50357   0.00000  Uiso   1.00
C517   C     0.40242   0.11696   0.47964   0.00000  Uiso   1.00
C518   C     0.09758   0.21638   0.52036   0.00000  Uiso   1.00
C519   C     0.44978   0.11692   0.48045   0.00000  Uiso   1.00
C520   C     0.05022   0.21641   0.51955   0.00000  Uiso   1.00
C521   C     0.47626   0.16592   0.49850   0.00000  Uiso   1.00
C522   C     0.02374   0.16741   0.50150   0.00000  Uiso   1.00
C523   C     0.45544   0.21367   0.51279   0.00000  Uiso   1.00
C524   C     0.04456   0.11966   0.48720   0.00000  Uiso   1.00
C525   C     0.47187   0.06984   0.46426   0.00000  Uiso   1.00
C526   C     0.02813   0.26349   0.53574   0.00000  Uiso   1.00
Cu527  Cu    0.25500   0.17246   0.56146   0.00000  Uiso   1.00
Cu528  Cu    0.24499   0.16087   0.43854   0.00000  Uiso   1.00
H529   H     0.03315   0.03508   0.46243   0.00000  Uiso   1.00
H530   H     0.46685   0.29826   0.53756   0.00000  Uiso   1.00
N531   N     0.23744   0.15214   0.34617   0.00000  Uiso   1.00
N532   N     0.26255   0.18119   0.65383   0.00000  Uiso   1.00
O533   O     0.25325   0.09538   0.53992   0.00000  Uiso   1.00
O534   O     0.24674   0.23796   0.46008   0.00000  Uiso   1.00
O535   O     0.24480   0.08559   0.43612   0.00000  Uiso   1.00
O536   O     0.25520   0.24774   0.56388   0.00000  Uiso   1.00
O537   O     0.18935   0.17155   0.55191   0.00000  Uiso   1.00
O538   O     0.31064   0.16179   0.44809   0.00000  Uiso   1.00
O539   O     0.18090   0.16176   0.44810   0.00000  Uiso   1.00
O540   O     0.31910   0.17157   0.55190   0.00000  Uiso   1.00
C541   C     0.38617   0.26515   0.52391   0.00000  Uiso   1.00
H542   H     0.34927   0.26091   0.51952   0.00000  Uiso   1.00
H543   H     0.39669   0.28835   0.57102   0.00000  Uiso   1.00
H544   H     0.39554   0.28789   0.49065   0.00000  Uiso   1.00
C545   C     0.11383   0.06818   0.47608   0.00000  Uiso   1.00
H546   H     0.15073   0.07242   0.48048   0.00000  Uiso   1.00
H547   H     0.10445   0.04544   0.50934   0.00000  Uiso   1.00
H548   H     0.10331   0.04499   0.42897   0.00000  Uiso   1.00
C549   C     0.37236   0.06614   0.46182   0.00000  Uiso   1.00
H550   H     0.38027   0.04136   0.49401   0.00000  Uiso   1.00
H551   H     0.33631   0.07102   0.46323   0.00000  Uiso   1.00
H552   H     0.37628   0.04557   0.41397   0.00000  Uiso   1.00
C553   C     0.12764   0.26719   0.53819   0.00000  Uiso   1.00
H554   H     0.12372   0.28777   0.58604   0.00000  Uiso   1.00
H555   H     0.16369   0.26232   0.53678   0.00000  Uiso   1.00
H556   H     0.11973   0.29197   0.50600   0.00000  Uiso   1.00
O557   O     0.44893   0.02061   0.44796   0.00000  Uiso   1.00
C558   C     0.45514   0.32909   0.38673   0.00000  Uiso   1.00
H559   H     0.49045   0.32022   0.38140   0.00000  Uiso   1.00
H560   H     0.44477   0.02060   0.35521   0.00000  Uiso   1.00
C561   C     0.42688   0.27706   0.36807   0.00000  Uiso   1.00
H562   H     0.39097   0.28379   0.37101   0.00000  Uiso   1.00
H563   H     0.43217   0.25686   0.65381   0.00000  Uiso   1.00
H564   H     0.43673   0.25130   0.39847   0.00000  Uiso   1.00
O565   O     0.05107   0.31272   0.55203   0.00000  Uiso   1.00
C566   C     0.04486   0.00424   0.61326   0.00000  Uiso   1.00
H567   H     0.05521   0.31273   0.64479   0.00000  Uiso   1.00
H568   H     0.00954   0.01313   0.61859   0.00000  Uiso   1.00
C569   C     0.07312   0.05628   0.63192   0.00000  Uiso   1.00
H570   H     0.06328   0.08204   0.60152   0.00000  Uiso   1.00
H571   H     0.06783   0.07648   0.34618   0.00000  Uiso   1.00
H572   H     0.10903   0.04954   0.62900   0.00000  Uiso   1.00
C573   C     0.20877   0.31503   0.42375   0.00000  Uiso   1.00
H574   H     0.19046   0.00871   0.40156   0.00000  Uiso   1.00
H575   H     0.22756   0.29092   0.38830   0.00000  Uiso   1.00
H576   H     0.18285   0.29010   0.43859   0.00000  Uiso   1.00
C577   C     0.29123   0.01831   0.57625   0.00000  Uiso   1.00
H578   H     0.30953   0.32463   0.59844   0.00000  Uiso   1.00
H579   H     0.31715   0.04323   0.56141   0.00000  Uiso   1.00
H580   H     0.27244   0.04241   0.61170   0.00000  Uiso   1.00
C581   C     0.19425   0.12964   0.65031   0.00000  Uiso   1.00
H582   H     0.18013   0.10335   0.34388   0.00000  Uiso   1.00
H583   H     0.17102   0.16090   0.65042   0.00000  Uiso   1.00
H584   H     0.19636   0.10392   0.60477   0.00000  Uiso   1.00
C585   C     0.30575   0.20369   0.34969   0.00000  Uiso   1.00
H586   H     0.32898   0.17244   0.34958   0.00000  Uiso   1.00
H587   H     0.31987   0.22999   0.65612   0.00000  Uiso   1.00
H588   H     0.30364   0.22942   0.39523   0.00000  Uiso   1.00
C589   C     0.74751   0.06682   0.48471   0.00000  Uiso   1.00
C590   C     0.75249   0.26651   0.51529   0.00000  Uiso   1.00
C591   C     0.51819   0.07211   0.47077   0.00000  Uiso   1.00
C592   C     0.98181   0.26123   0.52922   0.00000  Uiso   1.00
C593   C     0.74069   0.01114   0.47804   0.00000  Uiso   1.00
C594   C     0.75931   0.32220   0.52196   0.00000  Uiso   1.00
C595   C     0.66498   0.16763   0.50105   0.00000  Uiso   1.00
C596   C     0.83502   0.16570   0.49895   0.00000  Uiso   1.00
C597   C     0.90861   0.21357   0.51091   0.00000  Uiso   1.00
C598   C     0.59139   0.11977   0.48908   0.00000  Uiso   1.00
C599   C     0.88293   0.16529   0.49642   0.00000  Uiso   1.00
C600   C     0.61707   0.16804   0.50357   0.00000  Uiso   1.00
C601   C     0.90242   0.11696   0.47964   0.00000  Uiso   1.00
C602   C     0.59758   0.21638   0.52036   0.00000  Uiso   1.00
C603   C     0.94978   0.11692   0.48045   0.00000  Uiso   1.00
C604   C     0.55022   0.21641   0.51955   0.00000  Uiso   1.00
C605   C     0.97626   0.16592   0.49850   0.00000  Uiso   1.00
C606   C     0.52374   0.16741   0.50150   0.00000  Uiso   1.00
C607   C     0.95544   0.21367   0.51279   0.00000  Uiso   1.00
C608   C     0.54456   0.11966   0.48720   0.00000  Uiso   1.00
C609   C     0.97187   0.06984   0.46426   0.00000  Uiso   1.00
C610   C     0.52813   0.26349   0.53574   0.00000  Uiso   1.00
Cu611  Cu    0.75500   0.17246   0.56146   0.00000  Uiso   1.00
Cu612  Cu    0.74499   0.16087   0.43854   0.00000  Uiso   1.00
H613   H     0.53315   0.03508   0.46243   0.00000  Uiso   1.00
H614   H     0.96685   0.29826   0.53756   0.00000  Uiso   1.00
N615   N     0.73744   0.15214   0.34617   0.00000  Uiso   1.00
N616   N     0.76255   0.18119   0.65383   0.00000  Uiso   1.00
O617   O     0.75325   0.09538   0.53992   0.00000  Uiso   1.00
O618   O     0.74674   0.23796   0.46008   0.00000  Uiso   1.00
O619   O     0.74480   0.08559   0.43612   0.00000  Uiso   1.00
O620   O     0.75520   0.24774   0.56388   0.00000  Uiso   1.00
O621   O     0.68935   0.17155   0.55191   0.00000  Uiso   1.00
O622   O     0.81064   0.16179   0.44809   0.00000  Uiso   1.00
O623   O     0.68090   0.16176   0.44810   0.00000  Uiso   1.00
O624   O     0.81910   0.17157   0.55190   0.00000  Uiso   1.00
C625   C     0.88617   0.26515   0.52391   0.00000  Uiso   1.00
H626   H     0.84927   0.26091   0.51952   0.00000  Uiso   1.00
H627   H     0.89669   0.28835   0.57102   0.00000  Uiso   1.00
H628   H     0.89554   0.28789   0.49065   0.00000  Uiso   1.00
C629   C     0.61383   0.06818   0.47608   0.00000  Uiso   1.00
H630   H     0.65073   0.07242   0.48048   0.00000  Uiso   1.00
H631   H     0.60445   0.04544   0.50934   0.00000  Uiso   1.00
H632   H     0.60331   0.04499   0.42897   0.00000  Uiso   1.00
C633   C     0.87236   0.06614   0.46182   0.00000  Uiso   1.00
H634   H     0.88027   0.04136   0.49401   0.00000  Uiso   1.00
H635   H     0.83631   0.07102   0.46323   0.00000  Uiso   1.00
H636   H     0.87628   0.04557   0.41397   0.00000  Uiso   1.00
C637   C     0.62764   0.26719   0.53819   0.00000  Uiso   1.00
H638   H     0.62372   0.28777   0.58604   0.00000  Uiso   1.00
H639   H     0.66369   0.26232   0.53678   0.00000  Uiso   1.00
H640   H     0.61973   0.29197   0.50600   0.00000  Uiso   1.00
O641   O     0.94893   0.02061   0.44796   0.00000  Uiso   1.00
C642   C     0.95514   0.32909   0.38673   0.00000  Uiso   1.00
H643   H     0.99045   0.32022   0.38140   0.00000  Uiso   1.00
H644   H     0.94477   0.02060   0.35521   0.00000  Uiso   1.00
C645   C     0.92688   0.27706   0.36807   0.00000  Uiso   1.00
H646   H     0.89097   0.28379   0.37101   0.00000  Uiso   1.00
H647   H     0.93217   0.25686   0.65381   0.00000  Uiso   1.00
H648   H     0.93673   0.25130   0.39847   0.00000  Uiso   1.00
O649   O     0.55107   0.31272   0.55203   0.00000  Uiso   1.00
C650   C     0.54486   0.00424   0.61326   0.00000  Uiso   1.00
H651   H     0.55521   0.31273   0.64479   0.00000  Uiso   1.00
H652   H     0.50954   0.01313   0.61859   0.00000  Uiso   1.00
C653   C     0.57312   0.05628   0.63192   0.00000  Uiso   1.00
H654   H     0.56328   0.08204   0.60152   0.00000  Uiso   1.00
H655   H     0.56783   0.07648   0.34618   0.00000  Uiso   1.00
H656   H     0.60903   0.04954   0.62900   0.00000  Uiso   1.00
C657   C     0.70877   0.31503   0.42375   0.00000  Uiso   1.00
H658   H     0.69046   0.00871   0.40156   0.00000  Uiso   1.00
H659   H     0.72756   0.29092   0.38830   0.00000  Uiso   1.00
H660   H     0.68285   0.29010   0.43859   0.00000  Uiso   1.00
C661   C     0.79123   0.01831   0.57625   0.00000  Uiso   1.00
H662   H     0.80953   0.32463   0.59844   0.00000  Uiso   1.00
H663   H     0.81715   0.04323   0.56141   0.00000  Uiso   1.00
H664   H     0.77244   0.04241   0.61170   0.00000  Uiso   1.00
C665   C     0.69425   0.12964   0.65031   0.00000  Uiso   1.00
H666   H     0.68013   0.10335   0.34388   0.00000  Uiso   1.00
H667   H     0.67102   0.16090   0.65042   0.00000  Uiso   1.00
H668   H     0.69636   0.10392   0.60477   0.00000  Uiso   1.00
C669   C     0.80575   0.20369   0.34969   0.00000  Uiso   1.00
H670   H     0.82898   0.17244   0.34958   0.00000  Uiso   1.00
H671   H     0.81987   0.22999   0.65612   0.00000  Uiso   1.00
H672   H     0.80364   0.22942   0.39523   0.00000  Uiso   1.00
C673   C     0.24751   0.40016   0.48471   0.00000  Uiso   1.00
C674   C     0.25249   0.59984   0.51529   0.00000  Uiso   1.00
C675   C     0.01819   0.40544   0.47077   0.00000  Uiso   1.00
C676   C     0.48181   0.59456   0.52922   0.00000  Uiso   1.00
C677   C     0.24069   0.34447   0.47804   0.00000  Uiso   1.00
C678   C     0.25931   0.65553   0.52196   0.00000  Uiso   1.00
C679   C     0.16498   0.50096   0.50105   0.00000  Uiso   1.00
C680   C     0.33502   0.49904   0.49895   0.00000  Uiso   1.00
C681   C     0.40861   0.54690   0.51091   0.00000  Uiso   1.00
C682   C     0.09139   0.45310   0.48908   0.00000  Uiso   1.00
C683   C     0.38293   0.49862   0.49642   0.00000  Uiso   1.00
C684   C     0.11707   0.50138   0.50357   0.00000  Uiso   1.00
C685   C     0.40242   0.45029   0.47964   0.00000  Uiso   1.00
C686   C     0.09758   0.54971   0.52036   0.00000  Uiso   1.00
C687   C     0.44978   0.45026   0.48045   0.00000  Uiso   1.00
C688   C     0.05022   0.54974   0.51955   0.00000  Uiso   1.00
C689   C     0.47626   0.49925   0.49850   0.00000  Uiso   1.00
C690   C     0.02374   0.50075   0.50150   0.00000  Uiso   1.00
C691   C     0.45544   0.54701   0.51279   0.00000  Uiso   1.00
C692   C     0.04456   0.45300   0.48720   0.00000  Uiso   1.00
C693   C     0.47187   0.40317   0.46426   0.00000  Uiso   1.00
C694   C     0.02813   0.59683   0.53574   0.00000  Uiso   1.00
Cu695  Cu    0.25500   0.50579   0.56146   0.00000  Uiso   1.00
Cu696  Cu    0.24499   0.49421   0.43854   0.00000  Uiso   1.00
H697   H     0.03315   0.36841   0.46243   0.00000  Uiso   1.00
H698   H     0.46685   0.63159   0.53756   0.00000  Uiso   1.00
N699   N     0.23744   0.48547   0.34617   0.00000  Uiso   1.00
N700   N     0.26255   0.51453   0.65383   0.00000  Uiso   1.00
O701   O     0.25325   0.42871   0.53992   0.00000  Uiso   1.00
O702   O     0.24674   0.57129   0.46008   0.00000  Uiso   1.00
O703   O     0.24480   0.41892   0.43612   0.00000  Uiso   1.00
O704   O     0.25520   0.58108   0.56388   0.00000  Uiso   1.00
O705   O     0.18935   0.50488   0.55191   0.00000  Uiso   1.00
O706   O     0.31064   0.49512   0.44809   0.00000  Uiso   1.00
O707   O     0.18090   0.49510   0.44810   0.00000  Uiso   1.00
O708   O     0.31910   0.50490   0.55190   0.00000  Uiso   1.00
C709   C     0.38617   0.59849   0.52391   0.00000  Uiso   1.00
H710   H     0.34927   0.59425   0.51952   0.00000  Uiso   1.00
H711   H     0.39669   0.62168   0.57102   0.00000  Uiso   1.00
H712   H     0.39554   0.62123   0.49065   0.00000  Uiso   1.00
C713   C     0.11383   0.40151   0.47608   0.00000  Uiso   1.00
H714   H     0.15073   0.40576   0.48048   0.00000  Uiso   1.00
H715   H     0.10445   0.37877   0.50934   0.00000  Uiso   1.00
H716   H     0.10331   0.37832   0.42897   0.00000  Uiso   1.00
C717   C     0.37236   0.39948   0.46182   0.00000  Uiso   1.00
H718   H     0.38027   0.37470   0.49401   0.00000  Uiso   1.00
H719   H     0.33631   0.40435   0.46323   0.00000  Uiso   1.00
H720   H     0.37628   0.37890   0.41397   0.00000  Uiso   1.00
C721   C     0.12764   0.60052   0.53819   0.00000  Uiso   1.00
H722   H     0.12372   0.62110   0.58604   0.00000  Uiso   1.00
H723   H     0.16369   0.59565   0.53678   0.00000  Uiso   1.00
H724   H     0.11973   0.62531   0.50600   0.00000  Uiso   1.00
O725   O     0.44893   0.35394   0.44796   0.00000  Uiso   1.00
C726   C     0.45514   0.66243   0.38673   0.00000  Uiso   1.00
H727   H     0.49045   0.65355   0.38140   0.00000  Uiso   1.00
H728   H     0.44477   0.35394   0.35521   0.00000  Uiso   1.00
C729   C     0.42688   0.61039   0.36807   0.00000  Uiso   1.00
H730   H     0.39097   0.61712   0.37101   0.00000  Uiso   1.00
H731   H     0.43217   0.59020   0.65381   0.00000  Uiso   1.00
H732   H     0.43673   0.58463   0.39847   0.00000  Uiso   1.00
O733   O     0.05107   0.64606   0.55203   0.00000  Uiso   1.00
C734   C     0.04486   0.33758   0.61326   0.00000  Uiso   1.00
H735   H     0.05521   0.64607   0.64479   0.00000  Uiso   1.00
H736   H     0.00954   0.34646   0.61859   0.00000  Uiso   1.00
C737   C     0.07312   0.38961   0.63192   0.00000  Uiso   1.00
H738   H     0.06328   0.41537   0.60152   0.00000  Uiso   1.00
H739   H     0.06783   0.40981   0.34618   0.00000  Uiso   1.00
H740   H     0.10903   0.38287   0.62900   0.00000  Uiso   1.00
C741   C     0.20877   0.64836   0.42375   0.00000  Uiso   1.00
H742   H     0.19046   0.34204   0.40156   0.00000  Uiso   1.00
H743   H     0.22756   0.62425   0.38830   0.00000  Uiso   1.00
H744   H     0.18285   0.62343   0.43859   0.00000  Uiso   1.00
C745   C     0.29123   0.35164   0.57625   0.00000  Uiso   1.00
H746   H     0.30953   0.65796   0.59844   0.00000  Uiso   1.00
H747   H     0.31715   0.37657   0.56141   0.00000  Uiso   1.00
H748   H     0.27244   0.37575   0.61170   0.00000  Uiso   1.00
C749   C     0.19425   0.46298   0.65031   0.00000  Uiso   1.00
H750   H     0.18013   0.43668   0.34388   0.00000  Uiso   1.00
H751   H     0.17102   0.49423   0.65042   0.00000  Uiso   1.00
H752   H     0.19636   0.43725   0.60477   0.00000  Uiso   1.00
C753   C     0.30575   0.53702   0.34969   0.00000  Uiso   1.00
H754   H     0.32898   0.50577   0.34958   0.00000  Uiso   1.00
H755   H     0.31987   0.56332   0.65612   0.00000  Uiso   1.00
H756   H     0.30364   0.56275   0.39523   0.00000  Uiso   1.00
C757   C     0.74751   0.40016   0.48471   0.00000  Uiso   1.00
C758   C     0.75249   0.59984   0.51529   0.00000  Uiso   1.00
C759   C     0.51819   0.40544   0.47077   0.00000  Uiso   1.00
C760   C     0.98181   0.59456   0.52922   0.00000  Uiso   1.00
C761   C     0.74069   0.34447   0.47804   0.00000  Uiso   1.00
C762   C     0.75931   0.65553   0.52196   0.00000  Uiso   1.00
C763   C     0.66498   0.50096   0.50105   0.00000  Uiso   1.00
C764   C     0.83502   0.49904   0.49895   0.00000  Uiso   1.00
C765   C     0.90861   0.54690   0.51091   0.00000  Uiso   1.00
C766   C     0.59139   0.45310   0.48908   0.00000  Uiso   1.00
C767   C     0.88293   0.49862   0.49642   0.00000  Uiso   1.00
C768   C     0.61707   0.50138   0.50357   0.00000  Uiso   1.00
C769   C     0.90242   0.45029   0.47964   0.00000  Uiso   1.00
C770   C     0.59758   0.54971   0.52036   0.00000  Uiso   1.00
C771   C     0.94978   0.45026   0.48045   0.00000  Uiso   1.00
C772   C     0.55022   0.54974   0.51955   0.00000  Uiso   1.00
C773   C     0.97626   0.49925   0.49850   0.00000  Uiso   1.00
C774   C     0.52374   0.50075   0.50150   0.00000  Uiso   1.00
C775   C     0.95544   0.54701   0.51279   0.00000  Uiso   1.00
C776   C     0.54456   0.45300   0.48720   0.00000  Uiso   1.00
C777   C     0.97187   0.40317   0.46426   0.00000  Uiso   1.00
C778   C     0.52813   0.59683   0.53574   0.00000  Uiso   1.00
Cu779  Cu    0.75500   0.50579   0.56146   0.00000  Uiso   1.00
Cu780  Cu    0.74499   0.49421   0.43854   0.00000  Uiso   1.00
H781   H     0.53315   0.36841   0.46243   0.00000  Uiso   1.00
H782   H     0.96685   0.63159   0.53756   0.00000  Uiso   1.00
N783   N     0.73744   0.48547   0.34617   0.00000  Uiso   1.00
N784   N     0.76255   0.51453   0.65383   0.00000  Uiso   1.00
O785   O     0.75325   0.42871   0.53992   0.00000  Uiso   1.00
O786   O     0.74674   0.57129   0.46008   0.00000  Uiso   1.00
O787   O     0.74480   0.41892   0.43612   0.00000  Uiso   1.00
O788   O     0.75520   0.58108   0.56388   0.00000  Uiso   1.00
O789   O     0.68935   0.50488   0.55191   0.00000  Uiso   1.00
O790   O     0.81064   0.49512   0.44809   0.00000  Uiso   1.00
O791   O     0.68090   0.49510   0.44810   0.00000  Uiso   1.00
O792   O     0.81910   0.50490   0.55190   0.00000  Uiso   1.00
C793   C     0.88617   0.59849   0.52391   0.00000  Uiso   1.00
H794   H     0.84927   0.59425   0.51952   0.00000  Uiso   1.00
H795   H     0.89669   0.62168   0.57102   0.00000  Uiso   1.00
H796   H     0.89554   0.62123   0.49065   0.00000  Uiso   1.00
C797   C     0.61383   0.40151   0.47608   0.00000  Uiso   1.00
H798   H     0.65073   0.40576   0.48048   0.00000  Uiso   1.00
H799   H     0.60445   0.37877   0.50934   0.00000  Uiso   1.00
H800   H     0.60331   0.37832   0.42897   0.00000  Uiso   1.00
C801   C     0.87236   0.39948   0.46182   0.00000  Uiso   1.00
H802   H     0.88027   0.37470   0.49401   0.00000  Uiso   1.00
H803   H     0.83631   0.40435   0.46323   0.00000  Uiso   1.00
H804   H     0.87628   0.37890   0.41397   0.00000  Uiso   1.00
C805   C     0.62764   0.60052   0.53819   0.00000  Uiso   1.00
H806   H     0.62372   0.62110   0.58604   0.00000  Uiso   1.00
H807   H     0.66369   0.59565   0.53678   0.00000  Uiso   1.00
H808   H     0.61973   0.62531   0.50600   0.00000  Uiso   1.00
O809   O     0.94893   0.35394   0.44796   0.00000  Uiso   1.00
C810   C     0.95514   0.66243   0.38673   0.00000  Uiso   1.00
H811   H     0.99045   0.65355   0.38140   0.00000  Uiso   1.00
H812   H     0.94477   0.35394   0.35521   0.00000  Uiso   1.00
C813   C     0.92688   0.61039   0.36807   0.00000  Uiso   1.00
H814   H     0.89097   0.61712   0.37101   0.00000  Uiso   1.00
H815   H     0.93217   0.59020   0.65381   0.00000  Uiso   1.00
H816   H     0.93673   0.58463   0.39847   0.00000  Uiso   1.00
O817   O     0.55107   0.64606   0.55203   0.00000  Uiso   1.00
C818   C     0.54486   0.33758   0.61326   0.00000  Uiso   1.00
H819   H     0.55521   0.64607   0.64479   0.00000  Uiso   1.00
H820   H     0.50954   0.34646   0.61859   0.00000  Uiso   1.00
C821   C     0.57312   0.38961   0.63192   0.00000  Uiso   1.00
H822   H     0.56328   0.41537   0.60152   0.00000  Uiso   1.00
H823   H     0.56783   0.40981   0.34618   0.00000  Uiso   1.00
H824   H     0.60903   0.38287   0.62900   0.00000  Uiso   1.00
C825   C     0.70877   0.64836   0.42375   0.00000  Uiso   1.00
H826   H     0.69046   0.34204   0.40156   0.00000  Uiso   1.00
H827   H     0.72756   0.62425   0.38830   0.00000  Uiso   1.00
H828   H     0.68285   0.62343   0.43859   0.00000  Uiso   1.00
C829   C     0.79123   0.35164   0.57625   0.00000  Uiso   1.00
H830   H     0.80953   0.65796   0.59844   0.00000  Uiso   1.00
H831   H     0.81715   0.37657   0.56141   0.00000  Uiso   1.00
H832   H     0.77244   0.37575   0.61170   0.00000  Uiso   1.00
C833   C     0.69425   0.46298   0.65031   0.00000  Uiso   1.00
H834   H     0.68013   0.43668   0.34388   0.00000  Uiso   1.00
H835   H     0.67102   0.49423   0.65042   0.00000  Uiso   1.00
H836   H     0.69636   0.43725   0.60477   0.00000  Uiso   1.00
C837   C     0.80575   0.53702   0.34969   0.00000  Uiso   1.00
H838   H     0.82898   0.50577   0.34958   0.00000  Uiso   1.00
H839   H     0.81987   0.56332   0.65612   0.00000  Uiso   1.00
H840   H     0.80364   0.56275   0.39523   0.00000  Uiso   1.00
C841   C     0.24751   0.73349   0.48471   0.00000  Uiso   1.00
C842   C     0.25249   0.93318   0.51529   0.00000  Uiso   1.00
C843   C     0.01819   0.73877   0.47077   0.00000  Uiso   1.00
C844   C     0.48181   0.92789   0.52922   0.00000  Uiso   1.00
C845   C     0.24069   0.67780   0.47804   0.00000  Uiso   1.00
C846   C     0.25931   0.98886   0.52196   0.00000  Uiso   1.00
C847   C     0.16498   0.83430   0.50105   0.00000  Uiso   1.00
C848   C     0.33502   0.83237   0.49895   0.00000  Uiso   1.00
C849   C     0.40861   0.88023   0.51091   0.00000  Uiso   1.00
C850   C     0.09139   0.78643   0.48908   0.00000  Uiso   1.00
C851   C     0.38293   0.83196   0.49642   0.00000  Uiso   1.00
C852   C     0.11707   0.83471   0.50357   0.00000  Uiso   1.00
C853   C     0.40242   0.78363   0.47964   0.00000  Uiso   1.00
C854   C     0.09758   0.88304   0.52036   0.00000  Uiso   1.00
C855   C     0.44978   0.78359   0.48045   0.00000  Uiso   1.00
C856   C     0.05022   0.88308   0.51955   0.00000  Uiso   1.00
C857   C     0.47626   0.83259   0.49850   0.00000  Uiso   1.00
C858   C     0.02374   0.83408   0.50150   0.00000  Uiso   1.00
C859   C     0.45544   0.88034   0.51279   0.00000  Uiso   1.00
C860   C     0.04456   0.78633   0.48720   0.00000  Uiso   1.00
C861   C     0.47187   0.73651   0.46426   0.00000  Uiso   1.00
C862   C     0.02813   0.93016   0.53574   0.00000  Uiso   1.00
Cu863  Cu    0.25500   0.83913   0.56146   0.00000  Uiso   1.00
Cu864  Cu    0.24499   0.82754   0.43854   0.00000  Uiso   1.00
H865   H     0.03315   0.70174   0.46243   0.00000  Uiso   1.00
H866   H     0.46685   0.96492   0.53756   0.00000  Uiso   1.00
N867   N     0.23744   0.81881   0.34617   0.00000  Uiso   1.00
N868   N     0.26255   0.84786   0.65383   0.00000  Uiso   1.00
O869   O     0.25325   0.76204   0.53992   0.00000  Uiso   1.00
O870   O     0.24674   0.90462   0.46008   0.00000  Uiso   1.00
O871   O     0.24480   0.75226   0.43612   0.00000  Uiso   1.00
O872   O     0.25520   0.91441   0.56388   0.00000  Uiso   1.00
O873   O     0.18935   0.83821   0.55191   0.00000  Uiso   1.00
O874   O     0.31064   0.82845   0.44809   0.00000  Uiso   1.00
O875   O     0.18090   0.82843   0.44810   0.00000  Uiso   1.00
O876   O     0.31910   0.83824   0.55190   0.00000  Uiso   1.00
C877   C     0.38617   0.93182   0.52391   0.00000  Uiso   1.00
H878   H     0.34927   0.92758   0.51952   0.00000  Uiso   1.00
H879   H     0.39669   0.95501   0.57102   0.00000  Uiso   1.00
H880   H     0.39554   0.95456   0.49065   0.00000  Uiso   1.00
C881   C     0.11383   0.73485   0.47608   0.00000  Uiso   1.00
H882   H     0.15073   0.73909   0.48048   0.00000  Uiso   1.00
H883   H     0.10445   0.71211   0.50934   0.00000  Uiso   1.00
H884   H     0.10331   0.71166   0.42897   0.00000  Uiso   1.00
C885   C     0.37236   0.73281   0.46182   0.00000  Uiso   1.00
H886   H     0.38027   0.70803   0.49401   0.00000  Uiso   1.00
H887   H     0.33631   0.73768   0.46323   0.00000  Uiso   1.00
H888   H     0.37628   0.71223   0.41397   0.00000  Uiso   1.00
C889   C     0.12764   0.93386   0.53819   0.00000  Uiso   1.00
H890   H     0.12372   0.95443   0.58604   0.00000  Uiso   1.00
H891   H     0.16369   0.92898   0.53678   0.00000  Uiso   1.00
H892   H     0.11973   0.95864   0.50600   0.00000  Uiso   1.00
O893   O     0.44893   0.68728   0.44796   0.00000  Uiso   1.00
C894   C     0.45514   0.99576   0.38673   0.00000  Uiso   1.00
H895   H     0.49045   0.98688   0.38140   0.00000  Uiso   1.00
H896   H     0.44477   0.68727   0.35521   0.00000  Uiso   1.00
C897   C     0.42688   0.94373   0.36807   0.00000  Uiso   1.00
H898   H     0.39097   0.95045   0.37101   0.00000  Uiso   1.00
H899   H     0.43217   0.92353   0.65381   0.00000  Uiso   1.00
H900   H     0.43673   0.91796   0.39847   0.00000  Uiso   1.00
O901   O     0.05107   0.97939   0.55203   0.00000  Uiso   1.00
C902   C     0.04486   0.67091   0.61326   0.00000  Uiso   1.00
H903   H     0.05521   0.97940   0.64479   0.00000  Uiso   1.00
H904   H     0.00954   0.67979   0.61859   0.00000  Uiso   1.00
C905   C     0.07312   0.72294   0.63192   0.00000  Uiso   1.00
H906   H     0.06328   0.74870   0.60152   0.00000  Uiso   1.00
H907   H     0.06783   0.74314   0.34618   0.00000  Uiso   1.00
H908   H     0.10903   0.71621   0.62900   0.00000  Uiso   1.00
C909   C     0.20877   0.98169   0.42375   0.00000  Uiso   1.00
H910   H     0.19046   0.67537   0.40156   0.00000  Uiso   1.00
H911   H     0.22756   0.95759   0.38830   0.00000  Uiso   1.00
H912   H     0.18285   0.95677   0.43859   0.00000  Uiso   1.00
C913   C     0.29123   0.68497   0.57625   0.00000  Uiso   1.00
H914   H     0.30953   0.99129   0.59844   0.00000  Uiso   1.00
H915   H     0.31715   0.70990   0.56141   0.00000  Uiso   1.00
H916   H     0.27244   0.70908   0.61170   0.00000  Uiso   1.00
C917   C     0.19425   0.79631   0.65031   0.00000  Uiso   1.00
H918   H     0.18013   0.77001   0.34388   0.00000  Uiso   1.00
H919   H     0.17102   0.82756   0.65042   0.00000  Uiso   1.00
H920   H     0.19636   0.77058   0.60477   0.00000  Uiso   1.00
C921   C     0.30575   0.87036   0.34969   0.00000  Uiso   1.00
H922   H     0.32898   0.83910   0.34958   0.00000  Uiso   1.00
H923   H     0.31987   0.89665   0.65612   0.00000  Uiso   1.00
H924   H     0.30364   0.89608   0.39523   0.00000  Uiso   1.00
C925   C     0.74751   0.73349   0.48471   0.00000  Uiso   1.00
C926   C     0.75249   0.93318   0.51529   0.00000  Uiso   1.00
C927   C     0.51819   0.73877   0.47077   0.00000  Uiso   1.00
C928   C     0.98181   0.92789   0.52922   0.00000  Uiso   1.00
C929   C     0.74069   0.67780   0.47804   0.00000  Uiso   1.00
C930   C     0.75931   0.98886   0.52196   0.00000  Uiso   1.00
C931   C     0.66498   0.83430   0.50105   0.00000  Uiso   1.00
C932   C     0.83502   0.83237   0.49895   0.00000  Uiso   1.00
C933   C     0.90861   0.88023   0.51091   0.00000  Uiso   1.00
C934   C     0.59139   0.78643   0.48908   0.00000  Uiso   1.00
C935   C     0.88293   0.83196   0.49642   0.00000  Uiso   1.00
C936   C     0.61707   0.83471   0.50357   0.00000  Uiso   1.00
C937   C     0.90242   0.78363   0.47964   0.00000  Uiso   1.00
C938   C     0.59758   0.88304   0.52036   0.00000  Uiso   1.00
C939   C     0.94978   0.78359   0.48045   0.00000  Uiso   1.00
C940   C     0.55022   0.88308   0.51955   0.00000  Uiso   1.00
C941   C     0.97626   0.83259   0.49850   0.00000  Uiso   1.00
C942   C     0.52374   0.83408   0.50150   0.00000  Uiso   1.00
C943   C     0.95544   0.88034   0.51279   0.00000  Uiso   1.00
C944   C     0.54456   0.78633   0.48720   0.00000  Uiso   1.00
C945   C     0.97187   0.73651   0.46426   0.00000  Uiso   1.00
C946   C     0.52813   0.93016   0.53574   0.00000  Uiso   1.00
Cu947  Cu    0.75500   0.83913   0.56146   0.00000  Uiso   1.00
Cu948  Cu    0.74499   0.82754   0.43854   0.00000  Uiso   1.00
H949   H     0.53315   0.70174   0.46243   0.00000  Uiso   1.00
H950   H     0.96685   0.96492   0.53756   0.00000  Uiso   1.00
N951   N     0.73744   0.81881   0.34617   0.00000  Uiso   1.00
N952   N     0.76255   0.84786   0.65383   0.00000  Uiso   1.00
O953   O     0.75325   0.76204   0.53992   0.00000  Uiso   1.00
O954   O     0.74674   0.90462   0.46008   0.00000  Uiso   1.00
O955   O     0.74480   0.75226   0.43612   0.00000  Uiso   1.00
O956   O     0.75520   0.91441   0.56388   0.00000  Uiso   1.00
O957   O     0.68935   0.83821   0.55191   0.00000  Uiso   1.00
O958   O     0.81064   0.82845   0.44809   0.00000  Uiso   1.00
O959   O     0.68090   0.82843   0.44810   0.00000  Uiso   1.00
O960   O     0.81910   0.83824   0.55190   0.00000  Uiso   1.00
C961   C     0.88617   0.93182   0.52391   0.00000  Uiso   1.00
H962   H     0.84927   0.92758   0.51952   0.00000  Uiso   1.00
H963   H     0.89669   0.95501   0.57102   0.00000  Uiso   1.00
H964   H     0.89554   0.95456   0.49065   0.00000  Uiso   1.00
C965   C     0.61383   0.73485   0.47608   0.00000  Uiso   1.00
H966   H     0.65073   0.73909   0.48048   0.00000  Uiso   1.00
H967   H     0.60445   0.71211   0.50934   0.00000  Uiso   1.00
H968   H     0.60331   0.71166   0.42897   0.00000  Uiso   1.00
C969   C     0.87236   0.73281   0.46182   0.00000  Uiso   1.00
H970   H     0.88027   0.70803   0.49401   0.00000  Uiso   1.00
H971   H     0.83631   0.73768   0.46323   0.00000  Uiso   1.00
H972   H     0.87628   0.71223   0.41397   0.00000  Uiso   1.00
C973   C     0.62764   0.93386   0.53819   0.00000  Uiso   1.00
H974   H     0.62372   0.95443   0.58604   0.00000  Uiso   1.00
H975   H     0.66369   0.92898   0.53678   0.00000  Uiso   1.00
H976   H     0.61973   0.95864   0.50600   0.00000  Uiso   1.00
O977   O     0.94893   0.68728   0.44796   0.00000  Uiso   1.00
C978   C     0.95514   0.99576   0.38673   0.00000  Uiso   1.00
H979   H     0.99045   0.98688   0.38140   0.00000  Uiso   1.00
H980   H     0.94477   0.68727   0.35521   0.00000  Uiso   1.00
C981   C     0.92688   0.94373   0.36807   0.00000  Uiso   1.00
H982   H     0.89097   0.95045   0.37101   0.00000  Uiso   1.00
H983   H     0.93217   0.92353   0.65381   0.00000  Uiso   1.00
H984   H     0.93673   0.91796   0.39847   0.00000  Uiso   1.00
O985   O     0.55107   0.97939   0.55203   0.00000  Uiso   1.00
C986   C     0.54486   0.67091   0.61326   0.00000  Uiso   1.00
H987   H     0.55521   0.97940   0.64479   0.00000  Uiso   1.00
H988   H     0.50954   0.67979   0.61859   0.00000  Uiso   1.00
C989   C     0.57312   0.72294   0.63192   0.00000  Uiso   1.00
H990   H     0.56328   0.74870   0.60152   0.00000  Uiso   1.00
H991   H     0.56783   0.74314   0.34618   0.00000  Uiso   1.00
H992   H     0.60903   0.71621   0.62900   0.00000  Uiso   1.00
C993   C     0.70877   0.98169   0.42375   0.00000  Uiso   1.00
H994   H     0.69046   0.67537   0.40156   0.00000  Uiso   1.00
H995   H     0.72756   0.95759   0.38830   0.00000  Uiso   1.00
H996   H     0.68285   0.95677   0.43859   0.00000  Uiso   1.00
C997   C     0.79123   0.68497   0.57625   0.00000  Uiso   1.00
H998   H     0.80953   0.99129   0.59844   0.00000  Uiso   1.00
H999   H     0.81715   0.70990   0.56141   0.00000  Uiso   1.00
H1000  H     0.77244   0.70908   0.61170   0.00000  Uiso   1.00
C1001  C     0.69425   0.79631   0.65031   0.00000  Uiso   1.00
H1002  H     0.68013   0.77001   0.34388   0.00000  Uiso   1.00
H1003  H     0.67102   0.82756   0.65042   0.00000  Uiso   1.00
H1004  H     0.69636   0.77058   0.60477   0.00000  Uiso   1.00
C1005  C     0.80575   0.87036   0.34969   0.00000  Uiso   1.00
H1006  H     0.82898   0.83910   0.34958   0.00000  Uiso   1.00
H1007  H     0.81987   0.89665   0.65612   0.00000  Uiso   1.00
H1008  H     0.80364   0.89608   0.39523   0.00000  Uiso   1.00
C1009  C     0.24751   0.06682   0.81805   0.00000  Uiso   1.00
C1010  C     0.25249   0.26651   0.84862   0.00000  Uiso   1.00
C1011  C     0.01819   0.07211   0.80411   0.00000  Uiso   1.00
C1012  C     0.48181   0.26123   0.86256   0.00000  Uiso   1.00
C1013  C     0.24069   0.01114   0.81137   0.00000  Uiso   1.00
C1014  C     0.25931   0.32220   0.85529   0.00000  Uiso   1.00
C1015  C     0.16498   0.16763   0.83438   0.00000  Uiso   1.00
C1016  C     0.33502   0.16570   0.83228   0.00000  Uiso   1.00
C1017  C     0.40861   0.21357   0.84425   0.00000  Uiso   1.00
C1018  C     0.09139   0.11977   0.82242   0.00000  Uiso   1.00
C1019  C     0.38293   0.16529   0.82976   0.00000  Uiso   1.00
C1020  C     0.11707   0.16804   0.83691   0.00000  Uiso   1.00
C1021  C     0.40242   0.11696   0.81297   0.00000  Uiso   1.00
C1022  C     0.09758   0.21638   0.85370   0.00000  Uiso   1.00
C1023  C     0.44978   0.11692   0.81378   0.00000  Uiso   1.00
C1024  C     0.05022   0.21641   0.85289   0.00000  Uiso   1.00
C1025  C     0.47626   0.16592   0.83183   0.00000  Uiso   1.00
C1026  C     0.02374   0.16741   0.83483   0.00000  Uiso   1.00
C1027  C     0.45544   0.21367   0.84613   0.00000  Uiso   1.00
C1028  C     0.04456   0.11966   0.82054   0.00000  Uiso   1.00
C1029  C     0.47187   0.06984   0.79759   0.00000  Uiso   1.00
C1030  C     0.02813   0.26349   0.86907   0.00000  Uiso   1.00
Cu1031 Cu    0.25500   0.17246   0.89479   0.00000  Uiso   1.00
Cu1032 Cu    0.24499   0.16087   0.77187   0.00000  Uiso   1.00
H1033  H     0.03315   0.03508   0.79577   0.00000  Uiso   1.00
H1034  H     0.46685   0.29826   0.87089   0.00000  Uiso   1.00
N1035  N     0.23744   0.15214   0.67951   0.00000  Uiso   1.00
N1036  N     0.26255   0.18119   0.98716   0.00000  Uiso   1.00
O1037  O     0.25325   0.09538   0.87326   0.00000  Uiso   1.00
O1038  O     0.24674   0.23796   0.79341   0.00000  Uiso   1.00
O1039  O     0.24480   0.08559   0.76945   0.00000  Uiso   1.00
O1040  O     0.25520   0.24774   0.89721   0.00000  Uiso   1.00
O1041  O     0.18935   0.17155   0.88524   0.00000  Uiso   1.00
O1042  O     0.31064   0.16179   0.78143   0.00000  Uiso   1.00
O1043  O     0.18090   0.16176   0.78143   0.00000  Uiso   1.00
O1044  O     0.31910   0.17157   0.88523   0.00000  Uiso   1.00
C1045  C     0.38617   0.26515   0.85724   0.00000  Uiso   1.00
H1046  H     0.34927   0.26091   0.85285   0.00000  Uiso   1.00
H1047  H     0.39669   0.28835   0.90435   0.00000  Uiso   1.00
H1048  H     0.39554   0.28789   0.82399   0.00000  Uiso   1.00
C1049  C     0.11383   0.06818   0.80942   0.00000  Uiso   1.00
H1050  H     0.15073   0.07242   0.81381   0.00000  Uiso   1.00
H1051  H     0.10445   0.04544   0.84267   0.00000  Uiso   1.00
H1052  H     0.10331   0.04499   0.76231   0.00000  Uiso   1.00
C1053  C     0.37236   0.06614   0.79515   0.00000  Uiso   1.00
H1054  H     0.38027   0.04136   0.82734   0.00000  Uiso   1.00
H1055  H     0.33631   0.07102   0.79656   0.00000  Uiso   1.00
H1056  H     0.37628   0.04557   0.74730   0.00000  Uiso   1.00
C1057  C     0.12764   0.26719   0.87152   0.00000  Uiso   1.00
H1058  H     0.12372   0.28777   0.91938   0.00000  Uiso   1.00
H1059  H     0.16369   0.26232   0.87012   0.00000  Uiso   1.00
H1060  H     0.11973   0.29197   0.83933   0.00000  Uiso   1.00
O1061  O     0.44893   0.02061   0.78130   0.00000  Uiso   1.00
C1062  C     0.45514   0.32909   0.72007   0.00000  Uiso   1.00
H1063  H     0.49045   0.32022   0.71473   0.00000  Uiso   1.00
H1064  H     0.44477   0.02060   0.68854   0.00000  Uiso   1.00
C1065  C     0.42688   0.27706   0.70141   0.00000  Uiso   1.00
H1066  H     0.39097   0.28379   0.70434   0.00000  Uiso   1.00
H1067  H     0.43217   0.25686   0.98715   0.00000  Uiso   1.00
H1068  H     0.43673   0.25130   0.73180   0.00000  Uiso   1.00
O1069  O     0.05107   0.31272   0.88537   0.00000  Uiso   1.00
C1070  C     0.04486   0.00424   0.94659   0.00000  Uiso   1.00
H1071  H     0.05521   0.31273   0.97812   0.00000  Uiso   1.00
H1072  H     0.00954   0.01313   0.95192   0.00000  Uiso   1.00
C1073  C     0.07312   0.05628   0.96526   0.00000  Uiso   1.00
H1074  H     0.06328   0.08204   0.93486   0.00000  Uiso   1.00
H1075  H     0.06783   0.07648   0.67951   0.00000  Uiso   1.00
H1076  H     0.10903   0.04954   0.96234   0.00000  Uiso   1.00
C1077  C     0.20877   0.31503   0.75708   0.00000  Uiso   1.00
H1078  H     0.19046   0.00871   0.73489   0.00000  Uiso   1.00
H1079  H     0.22756   0.29092   0.72164   0.00000  Uiso   1.00
H1080  H     0.18285   0.29010   0.77192   0.00000  Uiso   1.00
C1081  C     0.29123   0.01831   0.90958   0.00000  Uiso   1.00
H1082  H     0.30953   0.32463   0.93178   0.00000  Uiso   1.00
H1083  H     0.31715   0.04323   0.89475   0.00000  Uiso   1.00
H1084  H     0.27244   0.04241   0.94503   0.00000  Uiso   1.00
C1085  C     0.19425   0.12964   0.98365   0.00000  Uiso   1.00
H1086  H     0.18013   0.10335   0.67721   0.00000  Uiso   1.00
H1087  H     0.17102   0.16090   0.98375   0.00000  Uiso   1.00
H1088  H     0.19636   0.10392   0.93811   0.00000  Uiso   1.00
C1089  C     0.30575   0.20369   0.68302   0.00000  Uiso   1.00
H1090  H     0.32898   0.17244   0.68291   0.00000  Uiso   1.00
H1091  H     0.31987   0.22999   0.98946   0.00000  Uiso   1.00
H1092  H     0.30364   0.22942   0.72856   0.00000  Uiso   1.00
C1093  C     0.74751   0.06682   0.81805   0.00000  Uiso   1.00
C1094  C     0.75249   0.26651   0.84862   0.00000  Uiso   1.00
C1095  C     0.51819   0.07211   0.80411   0.00000  Uiso   1.00
C1096  C     0.98181   0.26123   0.86256   0.00000  Uiso   1.00
C1097  C     0.74069   0.01114   0.81137   0.00000  Uiso   1.00
C1098  C     0.75931   0.32220   0.85529   0.00000  Uiso   1.00
C1099  C     0.66498   0.16763   0.83438   0.00000  Uiso   1.00
C1100  C     0.83502   0.16570   0.83228   0.00000  Uiso   1.00
C1101  C     0.90861   0.21357   0.84425   0.00000  Uiso   1.00
C1102  C     0.59139   0.11977   0.82242   0.00000  Uiso   1.00
C1103  C     0.88293   0.16529   0.82976   0.00000  Uiso   1.00
C1104  C     0.61707   0.16804   0.83691   0.00000  Uiso   1.00
C1105  C     0.90242   0.11696   0.81297   0.00000  Uiso   1.00
C1106  C     0.59758   0.21638   0.85370   0.00000  Uiso   1.00
C1107  C     0.94978   0.11692   0.81378   0.00000  Uiso   1.00
C1108  C     0.55022   0.21641   0.85289   0.00000  Uiso   1.00
C1109  C     0.97626   0.16592   0.83183   0.00000  Uiso   1.00
C1110  C     0.52374   0.16741   0.83483   0.00000  Uiso   1.00
C1111  C     0.95544   0.21367   0.84613   0.00000  Uiso   1.00
C1112  C     0.54456   0.11966   0.82054   0.00000  Uiso   1.00
C1113  C     0.97187   0.06984   0.79759   0.00000  Uiso   1.00
C1114  C     0.52813   0.26349   0.86907   0.00000  Uiso   1.00
Cu1115 Cu    0.75500   0.17246   0.89479   0.00000  Uiso   1.00
Cu1116 Cu    0.74499   0.16087   0.77187   0.00000  Uiso   1.00
H1117  H     0.53315   0.03508   0.79577   0.00000  Uiso   1.00
H1118  H     0.96685   0.29826   0.87089   0.00000  Uiso   1.00
N1119  N     0.73744   0.15214   0.67951   0.00000  Uiso   1.00
N1120  N     0.76255   0.18119   0.98716   0.00000  Uiso   1.00
O1121  O     0.75325   0.09538   0.87326   0.00000  Uiso   1.00
O1122  O     0.74674   0.23796   0.79341   0.00000  Uiso   1.00
O1123  O     0.74480   0.08559   0.76945   0.00000  Uiso   1.00
O1124  O     0.75520   0.24774   0.89721   0.00000  Uiso   1.00
O1125  O     0.68935   0.17155   0.88524   0.00000  Uiso   1.00
O1126  O     0.81064   0.16179   0.78143   0.00000  Uiso   1.00
O1127  O     0.68090   0.16176   0.78143   0.00000  Uiso   1.00
O1128  O     0.81910   0.17157   0.88523   0.00000  Uiso   1.00
C1129  C     0.88617   0.26515   0.85724   0.00000  Uiso   1.00
H1130  H     0.84927   0.26091   0.85285   0.00000  Uiso   1.00
H1131  H     0.89669   0.28835   0.90435   0.00000  Uiso   1.00
H1132  H     0.89554   0.28789   0.82399   0.00000  Uiso   1.00
C1133  C     0.61383   0.06818   0.80942   0.00000  Uiso   1.00
H1134  H     0.65073   0.07242   0.81381   0.00000  Uiso   1.00
H1135  H     0.60445   0.04544   0.84267   0.00000  Uiso   1.00
H1136  H     0.60331   0.04499   0.76231   0.00000  Uiso   1.00
C1137  C     0.87236   0.06614   0.79515   0.00000  Uiso   1.00
H1138  H     0.88027   0.04136   0.82734   0.00000  Uiso   1.00
H1139  H     0.83631   0.07102   0.79656   0.00000  Uiso   1.00
H1140  H     0.87628   0.04557   0.74730   0.00000  Uiso   1.00
C1141  C     0.62764   0.26719   0.87152   0.00000  Uiso   1.00
H1142  H     0.62372   0.28777   0.91938   0.00000  Uiso   1.00
H1143  H     0.66369   0.26232   0.87012   0.00000  Uiso   1.00
H1144  H     0.61973   0.29197   0.83933   0.00000  Uiso   1.00
O1145  O     0.94893   0.02061   0.78130   0.00000  Uiso   1.00
C1146  C     0.95514   0.32909   0.72007   0.00000  Uiso   1.00
H1147  H     0.99045   0.32022   0.71473   0.00000  Uiso   1.00
H1148  H     0.94477   0.02060   0.68854   0.00000  Uiso   1.00
C1149  C     0.92688   0.27706   0.70141   0.00000  Uiso   1.00
H1150  H     0.89097   0.28379   0.70434   0.00000  Uiso   1.00
H1151  H     0.93217   0.25686   0.98715   0.00000  Uiso   1.00
H1152  H     0.93673   0.25130   0.73180   0.00000  Uiso   1.00
O1153  O     0.55107   0.31272   0.88537   0.00000  Uiso   1.00
C1154  C     0.54486   0.00424   0.94659   0.00000  Uiso   1.00
H1155  H     0.55521   0.31273   0.97812   0.00000  Uiso   1.00
H1156  H     0.50954   0.01313   0.95192   0.00000  Uiso   1.00
C1157  C     0.57312   0.05628   0.96526   0.00000  Uiso   1.00
H1158  H     0.56328   0.08204   0.93486   0.00000  Uiso   1.00
H1159  H     0.56783   0.07648   0.67951   0.00000  Uiso   1.00
H1160  H     0.60903   0.04954   0.96234   0.00000  Uiso   1.00
C1161  C     0.70877   0.31503   0.75708   0.00000  Uiso   1.00
H1162  H     0.69046   0.00871   0.73489   0.00000  Uiso   1.00
H1163  H     0.72756   0.29092   0.72164   0.00000  Uiso   1.00
H1164  H     0.68285   0.29010   0.77192   0.00000  Uiso   1.00
C1165  C     0.79123   0.01831   0.90958   0.00000  Uiso   1.00
H1166  H     0.80953   0.32463   0.93178   0.00000  Uiso   1.00
H1167  H     0.81715   0.04323   0.89475   0.00000  Uiso   1.00
H1168  H     0.77244   0.04241   0.94503   0.00000  Uiso   1.00
C1169  C     0.69425   0.12964   0.98365   0.00000  Uiso   1.00
H1170  H     0.68013   0.10335   0.67721   0.00000  Uiso   1.00
H1171  H     0.67102   0.16090   0.98375   0.00000  Uiso   1.00
H1172  H     0.69636   0.10392   0.93811   0.00000  Uiso   1.00
C1173  C     0.80575   0.20369   0.68302   0.00000  Uiso   1.00
H1174  H     0.82898   0.17244   0.68291   0.00000  Uiso   1.00
H1175  H     0.81987   0.22999   0.98946   0.00000  Uiso   1.00
H1176  H     0.80364   0.22942   0.72856   0.00000  Uiso   1.00
C1177  C     0.24751   0.40016   0.81805   0.00000  Uiso   1.00
C1178  C     0.25249   0.59984   0.84862   0.00000  Uiso   1.00
C1179  C     0.01819   0.40544   0.80411   0.00000  Uiso   1.00
C1180  C     0.48181   0.59456   0.86256   0.00000  Uiso   1.00
C1181  C     0.24069   0.34447   0.81137   0.00000  Uiso   1.00
C1182  C     0.25931   0.65553   0.85529   0.00000  Uiso   1.00
C1183  C     0.16498   0.50096   0.83438   0.00000  Uiso   1.00
C1184  C     0.33502   0.49904   0.83228   0.00000  Uiso   1.00
C1185  C     0.40861   0.54690   0.84425   0.00000  Uiso   1.00
C1186  C     0.09139   0.45310   0.82242   0.00000  Uiso   1.00
C1187  C     0.38293   0.49862   0.82976   0.00000  Uiso   1.00
C1188  C     0.11707   0.50138   0.83691   0.00000  Uiso   1.00
C1189  C     0.40242   0.45029   0.81297   0.00000  Uiso   1.00
C1190  C     0.09758   0.54971   0.85370   0.00000  Uiso   1.00
C1191  C     0.44978   0.45026   0.81378   0.00000  Uiso   1.00
C1192  C     0.05022   0.54974   0.85289   0.00000  Uiso   1.00
C1193  C     0.47626   0.49925   0.83183   0.00000  Uiso   1.00
C1194  C     0.02374   0.50075   0.83483   0.00000  Uiso   1.00
C1195  C     0.45544   0.54701   0.84613   0.00000  Uiso   1.00
C1196  C     0.04456   0.45300   0.82054   0.00000  Uiso   1.00
C1197  C     0.47187   0.40317   0.79759   0.00000  Uiso   1.00
C1198  C     0.02813   0.59683   0.86907   0.00000  Uiso   1.00
Cu1199 Cu    0.25500   0.50579   0.89479   0.00000  Uiso   1.00
Cu1200 Cu    0.24499   0.49421   0.77187   0.00000  Uiso   1.00
H1201  H     0.03315   0.36841   0.79577   0.00000  Uiso   1.00
H1202  H     0.46685   0.63159   0.87089   0.00000  Uiso   1.00
N1203  N     0.23744   0.48547   0.67951   0.00000  Uiso   1.00
N1204  N     0.26255   0.51453   0.98716   0.00000  Uiso   1.00
O1205  O     0.25325   0.42871   0.87326   0.00000  Uiso   1.00
O1206  O     0.24674   0.57129   0.79341   0.00000  Uiso   1.00
O1207  O     0.24480   0.41892   0.76945   0.00000  Uiso   1.00
O1208  O     0.25520   0.58108   0.89721   0.00000  Uiso   1.00
O1209  O     0.18935   0.50488   0.88524   0.00000  Uiso   1.00
O1210  O     0.31064   0.49512   0.78143   0.00000  Uiso   1.00
O1211  O     0.18090   0.49510   0.78143   0.00000  Uiso   1.00
O1212  O     0.31910   0.50490   0.88523   0.00000  Uiso   1.00
C1213  C     0.38617   0.59849   0.85724   0.00000  Uiso   1.00
H1214  H     0.34927   0.59425   0.85285   0.00000  Uiso   1.00
H1215  H     0.39669   0.62168   0.90435   0.00000  Uiso   1.00
H1216  H     0.39554   0.62123   0.82399   0.00000  Uiso   1.00
C1217  C     0.11383   0.40151   0.80942   0.00000  Uiso   1.00
H1218  H     0.15073   0.40576   0.81381   0.00000  Uiso   1.00
H1219  H     0.10445   0.37877   0.84267   0.00000  Uiso   1.00
H1220  H     0.10331   0.37832   0.76231   0.00000  Uiso   1.00
C1221  C     0.37236   0.39948   0.79515   0.00000  Uiso   1.00
H1222  H     0.38027   0.37470   0.82734   0.00000  Uiso   1.00
H1223  H     0.33631   0.40435   0.79656   0.00000  Uiso   1.00
H1224  H     0.37628   0.37890   0.74730   0.00000  Uiso   1.00
C1225  C     0.12764   0.60052   0.87152   0.00000  Uiso   1.00
H1226  H     0.12372   0.62110   0.91938   0.00000  Uiso   1.00
H1227  H     0.16369   0.59565   0.87012   0.00000  Uiso   1.00
H1228  H     0.11973   0.62531   0.83933   0.00000  Uiso   1.00
O1229  O     0.44893   0.35394   0.78130   0.00000  Uiso   1.00
C1230  C     0.45514   0.66243   0.72007   0.00000  Uiso   1.00
H1231  H     0.49045   0.65355   0.71473   0.00000  Uiso   1.00
H1232  H     0.44477   0.35394   0.68854   0.00000  Uiso   1.00
C1233  C     0.42688   0.61039   0.70141   0.00000  Uiso   1.00
H1234  H     0.39097   0.61712   0.70434   0.00000  Uiso   1.00
H1235  H     0.43217   0.59020   0.98715   0.00000  Uiso   1.00
H1236  H     0.43673   0.58463   0.73180   0.00000  Uiso   1.00
O1237  O     0.05107   0.64606   0.88537   0.00000  Uiso   1.00
C1238  C     0.04486   0.33758   0.94659   0.00000  Uiso   1.00
H1239  H     0.05521   0.64607   0.97812   0.00000  Uiso   1.00
H1240  H     0.00954   0.34646   0.95192   0.00000  Uiso   1.00
C1241  C     0.07312   0.38961   0.96526   0.00000  Uiso   1.00
H1242  H     0.06328   0.41537   0.93486   0.00000  Uiso   1.00
H1243  H     0.06783   0.40981   0.67951   0.00000  Uiso   1.00
H1244  H     0.10903   0.38287   0.96234   0.00000  Uiso   1.00
C1245  C     0.20877   0.64836   0.75708   0.00000  Uiso   1.00
H1246  H     0.19046   0.34204   0.73489   0.00000  Uiso   1.00
H1247  H     0.22756   0.62425   0.72164   0.00000  Uiso   1.00
H1248  H     0.18285   0.62343   0.77192   0.00000  Uiso   1.00
C1249  C     0.29123   0.35164   0.90958   0.00000  Uiso   1.00
H1250  H     0.30953   0.65796   0.93178   0.00000  Uiso   1.00
H1251  H     0.31715   0.37657   0.89475   0.00000  Uiso   1.00
H1252  H     0.27244   0.37575   0.94503   0.00000  Uiso   1.00
C1253  C     0.19425   0.46298   0.98365   0.00000  Uiso   1.00
H1254  H     0.18013   0.43668   0.67721   0.00000  Uiso   1.00
H1255  H     0.17102   0.49423   0.98375   0.00000  Uiso   1.00
H1256  H     0.19636   0.43725   0.93811   0.00000  Uiso   1.00
C1257  C     0.30575   0.53702   0.68302   0.00000  Uiso   1.00
H1258  H     0.32898   0.50577   0.68291   0.00000  Uiso   1.00
H1259  H     0.31987   0.56332   0.98946   0.00000  Uiso   1.00
H1260  H     0.30364   0.56275   0.72856   0.00000  Uiso   1.00
C1261  C     0.74751   0.40016   0.81805   0.00000  Uiso   1.00
C1262  C     0.75249   0.59984   0.84862   0.00000  Uiso   1.00
C1263  C     0.51819   0.40544   0.80411   0.00000  Uiso   1.00
C1264  C     0.98181   0.59456   0.86256   0.00000  Uiso   1.00
C1265  C     0.74069   0.34447   0.81137   0.00000  Uiso   1.00
C1266  C     0.75931   0.65553   0.85529   0.00000  Uiso   1.00
C1267  C     0.66498   0.50096   0.83438   0.00000  Uiso   1.00
C1268  C     0.83502   0.49904   0.83228   0.00000  Uiso   1.00
C1269  C     0.90861   0.54690   0.84425   0.00000  Uiso   1.00
C1270  C     0.59139   0.45310   0.82242   0.00000  Uiso   1.00
C1271  C     0.88293   0.49862   0.82976   0.00000  Uiso   1.00
C1272  C     0.61707   0.50138   0.83691   0.00000  Uiso   1.00
C1273  C     0.90242   0.45029   0.81297   0.00000  Uiso   1.00
C1274  C     0.59758   0.54971   0.85370   0.00000  Uiso   1.00
C1275  C     0.94978   0.45026   0.81378   0.00000  Uiso   1.00
C1276  C     0.55022   0.54974   0.85289   0.00000  Uiso   1.00
C1277  C     0.97626   0.49925   0.83183   0.00000  Uiso   1.00
C1278  C     0.52374   0.50075   0.83483   0.00000  Uiso   1.00
C1279  C     0.95544   0.54701   0.84613   0.00000  Uiso   1.00
C1280  C     0.54456   0.45300   0.82054   0.00000  Uiso   1.00
C1281  C     0.97187   0.40317   0.79759   0.00000  Uiso   1.00
C1282  C     0.52813   0.59683   0.86907   0.00000  Uiso   1.00
Cu1283 Cu    0.75500   0.50579   0.89479   0.00000  Uiso   1.00
Cu1284 Cu    0.74499   0.49421   0.77187   0.00000  Uiso   1.00
H1285  H     0.53315   0.36841   0.79577   0.00000  Uiso   1.00
H1286  H     0.96685   0.63159   0.87089   0.00000  Uiso   1.00
N1287  N     0.73744   0.48547   0.67951   0.00000  Uiso   1.00
N1288  N     0.76255   0.51453   0.98716   0.00000  Uiso   1.00
O1289  O     0.75325   0.42871   0.87326   0.00000  Uiso   1.00
O1290  O     0.74674   0.57129   0.79341   0.00000  Uiso   1.00
O1291  O     0.74480   0.41892   0.76945   0.00000  Uiso   1.00
O1292  O     0.75520   0.58108   0.89721   0.00000  Uiso   1.00
O1293  O     0.68935   0.50488   0.88524   0.00000  Uiso   1.00
O1294  O     0.81064   0.49512   0.78143   0.00000  Uiso   1.00
O1295  O     0.68090   0.49510   0.78143   0.00000  Uiso   1.00
O1296  O     0.81910   0.50490   0.88523   0.00000  Uiso   1.00
C1297  C     0.88617   0.59849   0.85724   0.00000  Uiso   1.00
H1298  H     0.84927   0.59425   0.85285   0.00000  Uiso   1.00
H1299  H     0.89669   0.62168   0.90435   0.00000  Uiso   1.00
H1300  H     0.89554   0.62123   0.82399   0.00000  Uiso   1.00
C1301  C     0.61383   0.40151   0.80942   0.00000  Uiso   1.00
H1302  H     0.65073   0.40576   0.81381   0.00000  Uiso   1.00
H1303  H     0.60445   0.37877   0.84267   0.00000  Uiso   1.00
H1304  H     0.60331   0.37832   0.76231   0.00000  Uiso   1.00
C1305  C     0.87236   0.39948   0.79515   0.00000  Uiso   1.00
H1306  H     0.88027   0.37470   0.82734   0.00000  Uiso   1.00
H1307  H     0.83631   0.40435   0.79656   0.00000  Uiso   1.00
H1308  H     0.87628   0.37890   0.74730   0.00000  Uiso   1.00
C1309  C     0.62764   0.60052   0.87152   0.00000  Uiso   1.00
H1310  H     0.62372   0.62110   0.91938   0.00000  Uiso   1.00
H1311  H     0.66369   0.59565   0.87012   0.00000  Uiso   1.00
H1312  H     0.61973   0.62531   0.83933   0.00000  Uiso   1.00
O1313  O     0.94893   0.35394   0.78130   0.00000  Uiso   1.00
C1314  C     0.95514   0.66243   0.72007   0.00000  Uiso   1.00
H1315  H     0.99045   0.65355   0.71473   0.00000  Uiso   1.00
H1316  H     0.94477   0.35394   0.68854   0.00000  Uiso   1.00
C1317  C     0.92688   0.61039   0.70141   0.00000  Uiso   1.00
H1318  H     0.89097   0.61712   0.70434   0.00000  Uiso   1.00
H1319  H     0.93217   0.59020   0.98715   0.00000  Uiso   1.00
H1320  H     0.93673   0.58463   0.73180   0.00000  Uiso   1.00
O1321  O     0.55107   0.64606   0.88537   0.00000  Uiso   1.00
C1322  C     0.54486   0.33758   0.94659   0.00000  Uiso   1.00
H1323  H     0.55521   0.64607   0.97812   0.00000  Uiso   1.00
H1324  H     0.50954   0.34646   0.95192   0.00000  Uiso   1.00
C1325  C     0.57312   0.38961   0.96526   0.00000  Uiso   1.00
H1326  H     0.56328   0.41537   0.93486   0.00000  Uiso   1.00
H1327  H     0.56783   0.40981   0.67951   0.00000  Uiso   1.00
H1328  H     0.60903   0.38287   0.96234   0.00000  Uiso   1.00
C1329  C     0.70877   0.64836   0.75708   0.00000  Uiso   1.00
H1330  H     0.69046   0.34204   0.73489   0.00000  Uiso   1.00
H1331  H     0.72756   0.62425   0.72164   0.00000  Uiso   1.00
H1332  H     0.68285   0.62343   0.77192   0.00000  Uiso   1.00
C1333  C     0.79123   0.35164   0.90958   0.00000  Uiso   1.00
H1334  H     0.80953   0.65796   0.93178   0.00000  Uiso   1.00
H1335  H     0.81715   0.37657   0.89475   0.00000  Uiso   1.00
H1336  H     0.77244   0.37575   0.94503   0.00000  Uiso   1.00
C1337  C     0.69425   0.46298   0.98365   0.00000  Uiso   1.00
H1338  H     0.68013   0.43668   0.67721   0.00000  Uiso   1.00
H1339  H     0.67102   0.49423   0.98375   0.00000  Uiso   1.00
H1340  H     0.69636   0.43725   0.93811   0.00000  Uiso   1.00
C1341  C     0.80575   0.53702   0.68302   0.00000  Uiso   1.00
H1342  H     0.82898   0.50577   0.68291   0.00000  Uiso   1.00
H1343  H     0.81987   0.56332   0.98946   0.00000  Uiso   1.00
H1344  H     0.80364   0.56275   0.72856   0.00000  Uiso   1.00
C1345  C     0.24751   0.73349   0.81805   0.00000  Uiso   1.00
C1346  C     0.25249   0.93318   0.84862   0.00000  Uiso   1.00
C1347  C     0.01819   0.73877   0.80411   0.00000  Uiso   1.00
C1348  C     0.48181   0.92789   0.86256   0.00000  Uiso   1.00
C1349  C     0.24069   0.67780   0.81137   0.00000  Uiso   1.00
C1350  C     0.25931   0.98886   0.85529   0.00000  Uiso   1.00
C1351  C     0.16498   0.83430   0.83438   0.00000  Uiso   1.00
C1352  C     0.33502   0.83237   0.83228   0.00000  Uiso   1.00
C1353  C     0.40861   0.88023   0.84425   0.00000  Uiso   1.00
C1354  C     0.09139   0.78643   0.82242   0.00000  Uiso   1.00
C1355  C     0.38293   0.83196   0.82976   0.00000  Uiso   1.00
C1356  C     0.11707   0.83471   0.83691   0.00000  Uiso   1.00
C1357  C     0.40242   0.78363   0.81297   0.00000  Uiso   1.00
C1358  C     0.09758   0.88304   0.85370   0.00000  Uiso   1.00
C1359  C     0.44978   0.78359   0.81378   0.00000  Uiso   1.00
C1360  C     0.05022   0.88308   0.85289   0.00000  Uiso   1.00
C1361  C     0.47626   0.83259   0.83183   0.00000  Uiso   1.00
C1362  C     0.02374   0.83408   0.83483   0.00000  Uiso   1.00
C1363  C     0.45544   0.88034   0.84613   0.00000  Uiso   1.00
C1364  C     0.04456   0.78633   0.82054   0.00000  Uiso   1.00
C1365  C     0.47187   0.73651   0.79759   0.00000  Uiso   1.00
C1366  C     0.02813   0.93016   0.86907   0.00000  Uiso   1.00
Cu1367 Cu    0.25500   0.83913   0.89479   0.00000  Uiso   1.00
Cu1368 Cu    0.24499   0.82754   0.77187   0.00000  Uiso   1.00
H1369  H     0.03315   0.70174   0.79577   0.00000  Uiso   1.00
H1370  H     0.46685   0.96492   0.87089   0.00000  Uiso   1.00
N1371  N     0.23744   0.81881   0.67951   0.00000  Uiso   1.00
N1372  N     0.26255   0.84786   0.98716   0.00000  Uiso   1.00
O1373  O     0.25325   0.76204   0.87326   0.00000  Uiso   1.00
O1374  O     0.24674   0.90462   0.79341   0.00000  Uiso   1.00
O1375  O     0.24480   0.75226   0.76945   0.00000  Uiso   1.00
O1376  O     0.25520   0.91441   0.89721   0.00000  Uiso   1.00
O1377  O     0.18935   0.83821   0.88524   0.00000  Uiso   1.00
O1378  O     0.31064   0.82845   0.78143   0.00000  Uiso   1.00
O1379  O     0.18090   0.82843   0.78143   0.00000  Uiso   1.00
O1380  O     0.31910   0.83824   0.88523   0.00000  Uiso   1.00
C1381  C     0.38617   0.93182   0.85724   0.00000  Uiso   1.00
H1382  H     0.34927   0.92758   0.85285   0.00000  Uiso   1.00
H1383  H     0.39669   0.95501   0.90435   0.00000  Uiso   1.00
H1384  H     0.39554   0.95456   0.82399   0.00000  Uiso   1.00
C1385  C     0.11383   0.73485   0.80942   0.00000  Uiso   1.00
H1386  H     0.15073   0.73909   0.81381   0.00000  Uiso   1.00
H1387  H     0.10445   0.71211   0.84267   0.00000  Uiso   1.00
H1388  H     0.10331   0.71166   0.76231   0.00000  Uiso   1.00
C1389  C     0.37236   0.73281   0.79515   0.00000  Uiso   1.00
H1390  H     0.38027   0.70803   0.82734   0.00000  Uiso   1.00
H1391  H     0.33631   0.73768   0.79656   0.00000  Uiso   1.00
H1392  H     0.37628   0.71223   0.74730   0.00000  Uiso   1.00
C1393  C     0.12764   0.93386   0.87152   0.00000  Uiso   1.00
H1394  H     0.12372   0.95443   0.91938   0.00000  Uiso   1.00
H1395  H     0.16369   0.92898   0.87012   0.00000  Uiso   1.00
H1396  H     0.11973   0.95864   0.83933   0.00000  Uiso   1.00
O1397  O     0.44893   0.68728   0.78130   0.00000  Uiso   1.00
C1398  C     0.45514   0.99576   0.72007   0.00000  Uiso   1.00
H1399  H     0.49045   0.98688   0.71473   0.00000  Uiso   1.00
H1400  H     0.44477   0.68727   0.68854   0.00000  Uiso   1.00
C1401  C     0.42688   0.94373   0.70141   0.00000  Uiso   1.00
H1402  H     0.39097   0.95045   0.70434   0.00000  Uiso   1.00
H1403  H     0.43217   0.92353   0.98715   0.00000  Uiso   1.00
H1404  H     0.43673   0.91796   0.73180   0.00000  Uiso   1.00
O1405  O     0.05107   0.97939   0.88537   0.00000  Uiso   1.00
C1406  C     0.04486   0.67091   0.94659   0.00000  Uiso   1.00
H1407  H     0.05521   0.97940   0.97812   0.00000  Uiso   1.00
H1408  H     0.00954   0.67979   0.95192   0.00000  Uiso   1.00
C1409  C     0.07312   0.72294   0.96526   0.00000  Uiso   1.00
H1410  H     0.06328   0.74870   0.93486   0.00000  Uiso   1.00
H1411  H     0.06783   0.74314   0.67951   0.00000  Uiso   1.00
H1412  H     0.10903   0.71621   0.96234   0.00000  Uiso   1.00
C1413  C     0.20877   0.98169   0.75708   0.00000  Uiso   1.00
H1414  H     0.19046   0.67537   0.73489   0.00000  Uiso   1.00
H1415  H     0.22756   0.95759   0.72164   0.00000  Uiso   1.00
H1416  H     0.18285   0.95677   0.77192   0.00000  Uiso   1.00
C1417  C     0.29123   0.68497   0.90958   0.00000  Uiso   1.00
H1418  H     0.30953   0.99129   0.93178   0.00000  Uiso   1.00
H1419  H     0.31715   0.70990   0.89475   0.00000  Uiso   1.00
H1420  H     0.27244   0.70908   0.94503   0.00000  Uiso   1.00
C1421  C     0.19425   0.79631   0.98365   0.00000  Uiso   1.00
H1422  H     0.18013   0.77001   0.67721   0.00000  Uiso   1.00
H1423  H     0.17102   0.82756   0.98375   0.00000  Uiso   1.00
H1424  H     0.19636   0.77058   0.93811   0.00000  Uiso   1.00
C1425  C     0.30575   0.87036   0.68302   0.00000  Uiso   1.00
H1426  H     0.32898   0.83910   0.68291   0.00000  Uiso   1.00
H1427  H     0.31987   0.89665   0.98946   0.00000  Uiso   1.00
H1428  H     0.30364   0.89608   0.72856   0.00000  Uiso   1.00
C1429  C     0.74751   0.73349   0.81805   0.00000  Uiso   1.00
C1430  C     0.75249   0.93318   0.84862   0.00000  Uiso   1.00
C1431  C     0.51819   0.73877   0.80411   0.00000  Uiso   1.00
C1432  C     0.98181   0.92789   0.86256   0.00000  Uiso   1.00
C1433  C     0.74069   0.67780   0.81137   0.00000  Uiso   1.00
C1434  C     0.75931   0.98886   0.85529   0.00000  Uiso   1.00
C1435  C     0.66498   0.83430   0.83438   0.00000  Uiso   1.00
C1436  C     0.83502   0.83237   0.83228   0.00000  Uiso   1.00
C1437  C     0.90861   0.88023   0.84425   0.00000  Uiso   1.00
C1438  C     0.59139   0.78643   0.82242   0.00000  Uiso   1.00
C1439  C     0.88293   0.83196   0.82976   0.00000  Uiso   1.00
C1440  C     0.61707   0.83471   0.83691   0.00000  Uiso   1.00
C1441  C     0.90242   0.78363   0.81297   0.00000  Uiso   1.00
C1442  C     0.59758   0.88304   0.85370   0.00000  Uiso   1.00
C1443  C     0.94978   0.78359   0.81378   0.00000  Uiso   1.00
C1444  C     0.55022   0.88308   0.85289   0.00000  Uiso   1.00
C1445  C     0.97626   0.83259   0.83183   0.00000  Uiso   1.00
C1446  C     0.52374   0.83408   0.83483   0.00000  Uiso   1.00
C1447  C     0.95544   0.88034   0.84613   0.00000  Uiso   1.00
C1448  C     0.54456   0.78633   0.82054   0.00000  Uiso   1.00
C1449  C     0.97187   0.73651   0.79759   0.00000  Uiso   1.00
C1450  C     0.52813   0.93016   0.86907   0.00000  Uiso   1.00
Cu1451 Cu    0.75500   0.83913   0.89479   0.00000  Uiso   1.00
Cu1452 Cu    0.74499   0.82754   0.77187   0.00000  Uiso   1.00
H1453  H     0.53315   0.70174   0.79577   0.00000  Uiso   1.00
H1454  H     0.96685   0.96492   0.87089   0.00000  Uiso   1.00
N1455  N     0.73744   0.81881   0.67951   0.00000  Uiso   1.00
N1456  N     0.76255   0.84786   0.98716   0.00000  Uiso   1.00
O1457  O     0.75325   0.76204   0.87326   0.00000  Uiso   1.00
O1458  O     0.74674   0.90462   0.79341   0.00000  Uiso   1.00
O1459  O     0.74480   0.75226   0.76945   0.00000  Uiso   1.00
O1460  O     0.75520   0.91441   0.89721   0.00000  Uiso   1.00
O1461  O     0.68935   0.83821   0.88524   0.00000  Uiso   1.00
O1462  O     0.81064   0.82845   0.78143   0.00000  Uiso   1.00
O1463  O     0.68090   0.82843   0.78143   0.00000  Uiso   1.00
O1464  O     0.81910   0.83824   0.88523   0.00000  Uiso   1.00
C1465  C     0.88617   0.93182   0.85724   0.00000  Uiso   1.00
H1466  H     0.84927   0.92758   0.85285   0.00000  Uiso   1.00
H1467  H     0.89669   0.95501   0.90435   0.00000  Uiso   1.00
H1468  H     0.89554   0.95456   0.82399   0.00000  Uiso   1.00
C1469  C     0.61383   0.73485   0.80942   0.00000  Uiso   1.00
H1470  H     0.65073   0.73909   0.81381   0.00000  Uiso   1.00
H1471  H     0.60445   0.71211   0.84267   0.00000  Uiso   1.00
H1472  H     0.60331   0.71166   0.76231   0.00000  Uiso   1.00
C1473  C     0.87236   0.73281   0.79515   0.00000  Uiso   1.00
H1474  H     0.88027   0.70803   0.82734   0.00000  Uiso   1.00
H1475  H     0.83631   0.73768   0.79656   0.00000  Uiso   1.00
H1476  H     0.87628   0.71223   0.74730   0.00000  Uiso   1.00
C1477  C     0.62764   0.93386   0.87152   0.00000  Uiso   1.00
H1478  H     0.62372   0.95443   0.91938   0.00000  Uiso   1.00
H1479  H     0.66369   0.92898   0.87012   0.00000  Uiso   1.00
H1480  H     0.61973   0.95864   0.83933   0.00000  Uiso   1.00
O1481  O     0.94893   0.68728   0.78130   0.00000  Uiso   1.00
C1482  C     0.95514   0.99576   0.72007   0.00000  Uiso   1.00
H1483  H     0.99045   0.98688   0.71473   0.00000  Uiso   1.00
H1484  H     0.94477   0.68727   0.68854   0.00000  Uiso   1.00
C1485  C     0.92688   0.94373   0.70141   0.00000  Uiso   1.00
H1486  H     0.89097   0.95045   0.70434   0.00000  Uiso   1.00
H1487  H     0.93217   0.92353   0.98715   0.00000  Uiso   1.00
H1488  H     0.93673   0.91796   0.73180   0.00000  Uiso   1.00
O1489  O     0.55107   0.97939   0.88537   0.00000  Uiso   1.00
C1490  C     0.54486   0.67091   0.94659   0.00000  Uiso   1.00
H1491  H     0.55521   0.97940   0.97812   0.00000  Uiso   1.00
H1492  H     0.50954   0.67979   0.95192   0.00000  Uiso   1.00
C1493  C     0.57312   0.72294   0.96526   0.00000  Uiso   1.00
H1494  H     0.56328   0.74870   0.93486   0.00000  Uiso   1.00
H1495  H     0.56783   0.74314   0.67951   0.00000  Uiso   1.00
H1496  H     0.60903   0.71621   0.96234   0.00000  Uiso   1.00
C1497  C     0.70877   0.98169   0.75708   0.00000  Uiso   1.00
H1498  H     0.69046   0.67537   0.73489   0.00000  Uiso   1.00
H1499  H     0.72756   0.95759   0.72164   0.00000  Uiso   1.00
H1500  H     0.68285   0.95677   0.77192   0.00000  Uiso   1.00
C1501  C     0.79123   0.68497   0.90958   0.00000  Uiso   1.00
H1502  H     0.80953   0.99129   0.93178   0.00000  Uiso   1.00
H1503  H     0.81715   0.70990   0.89475   0.00000  Uiso   1.00
H1504  H     0.77244   0.70908   0.94503   0.00000  Uiso   1.00
C1505  C     0.69425   0.79631   0.98365   0.00000  Uiso   1.00
H1506  H     0.68013   0.77001   0.67721   0.00000  Uiso   1.00
H1507  H     0.67102   0.82756   0.98375   0.00000  Uiso   1.00
H1508  H     0.69636   0.77058   0.93811   0.00000  Uiso   1.00
C1509  C     0.80575   0.87036   0.68302   0.00000  Uiso   1.00
H1510  H     0.82898   0.83910   0.68291   0.00000  Uiso   1.00
H1511  H     0.81987   0.89665   0.98946   0.00000  Uiso   1.00
H1512  H     0.80364   0.89608   0.72856   0.00000  Uiso   1.00
loop_
_geom_bond_atom_site_label_1
_geom_bond_atom_site_label_2
_geom_bond_distance
_geom_bond_site_symmetry_2
_ccdc_geom_bond_type
C1     C5      1.437   .     S
C1     O31     1.305   .     A
C1     O29     1.291   .     A
C2     O32     1.305   .     A
C2     C6      1.437   .     S
C2     O30     1.291   .     A
C3     H25     1.079   .     S
C3     C20     1.398   .     A
C3     C105    1.388   1_455 S
C4     C19     1.398   .     A
C4     H26     1.079   .     S
C4     C106    1.388   .     S
C5     C342    1.369   1_545 S
C5     C405    1.525   1_545 S
C6     C173    1.369   .     S
C6     C241    1.525   .     S
C7     O33     1.298   .     A
C7     C12     1.448   .     S
C7     O35     1.300   .     A
C8     O36     1.300   .     A
C8     O34     1.298   .     A
C8     C11     1.448   .     S
C9     C19     1.407   .     A
C9     C37     1.527   .     S
C9     C11     1.403   .     A
C10    C20     1.407   .     A
C10    C41     1.527   .     S
C10    C12     1.403   .     A
C11    C13     1.413   .     A
C12    C14     1.413   .     A
C13    C45     1.523   .     S
C13    C15     1.425   .     A
C14    C49     1.523   .     S
C14    C16     1.425   .     A
C15    C17     1.431   .     A
C15    C21     1.424   .     A
C16    C22     1.424   .     A
C16    C18     1.431   .     A
C17    C19     1.416   .     A
C17    C102    1.424   .     S
C18    C20     1.416   .     A
C18    C101    1.424   1_455 S
C21    O53     1.387   .     S
C21    C87     1.388   .     S
C22    O61     1.387   .     S
C22    C88     1.388   1_455 S
Cu23   O29     1.967   .     S
Cu23   O36     1.958   .     S
Cu23   Cu24    2.716   .     S
Cu23   O33     1.971   .     S
Cu23   N28     2.041   .     S
Cu23   O32     1.967   .     S
Cu24   N27     2.041   .     S
Cu24   O35     1.958   .     S
Cu24   O34     1.971   .     S
Cu24   O31     1.967   .     S
Cu24   O30     1.967   .     S
N27    N1036   1.302   1_554 S
N27    C1085   1.442   1_554 S
N28    N531    1.302   .     S
N28    C585    1.442   .     S
C37    H38     1.105   .     S
C37    H40     1.106   .     S
C37    H39     1.109   .     S
C41    H43     1.106   .     S
C41    H42     1.105   .     S
C41    H44     1.109   .     S
C45    H47     1.102   .     S
C45    H46     1.107   .     S
C45    H48     1.108   .     S
C49    H51     1.102   .     S
C49    H52     1.107   .     S
C49    H50     1.108   .     S
O53    C390    1.416   1_545 S
C54    H55     1.111   .     S
C54    C57     1.521   .     S
C54    O221    1.416   .     S
C54    H224    1.115   .     S
H56    C390    1.115   1_545 S
C57    H60     1.110   .     S
C57    H58     1.110   .     S
C57    H1067   1.110   1_554 S
H59    C561    1.110   .     S
O61    C230    1.416   .     S
C62    H64     1.111   .     S
C62    C65     1.521   .     S
C62    O397    1.416   1_545 S
C62    H399    1.115   1_545 S
H63    C230    1.115   .     S
C65    H68     1.110   .     S
C65    H66     1.110   .     S
C65    H571    1.110   .     S
H67    C1073   1.110   1_554 S
C69    H71     1.110   .     S
C69    H72     1.109   .     S
C69    C173    1.525   .     S
C69    H238    1.111   .     S
H70    C405    1.111   1_545 S
C73    H75     1.109   .     S
C73    H76     1.110   .     S
C73    C342    1.525   1_545 S
C73    H410    1.111   1_545 S
H74    C241    1.111   .     S
C77    H79     1.110   .     S
C77    H80     1.100   .     S
C77    N531    1.442   .     S
C77    H582    1.108   .     S
H78    C1085   1.108   1_554 S
C81    H82     1.110   .     S
C81    H84     1.100   .     S
C81    N1036   1.442   1_554 S
C81    H1091   1.108   1_554 S
H83    C585    1.108   .     S
C85    C89     1.437   .     S
C85    O115    1.305   .     A
C85    O113    1.291   .     A
C86    O116    1.305   .     A
C86    C90     1.437   .     S
C86    O114    1.291   .     A
C87    H109    1.079   .     S
C87    C104    1.398   .     A
C88    C103    1.398   .     A
C88    H110    1.079   .     S
C88    C22     1.388   1_655 S
C89    C426    1.369   1_545 S
C89    C489    1.525   1_545 S
C90    C257    1.369   .     S
C90    C325    1.525   .     S
C91    O117    1.298   .     A
C91    C96     1.448   .     S
C91    O119    1.300   .     A
C92    O120    1.300   .     A
C92    O118    1.298   .     A
C92    C95     1.448   .     S
C93    C103    1.407   .     A
C93    C121    1.527   .     S
C93    C95     1.403   .     A
C94    C104    1.407   .     A
C94    C125    1.527   .     S
C94    C96     1.403   .     A
C95    C97     1.413   .     A
C96    C98     1.413   .     A
C97    C129    1.523   .     S
C97    C99     1.425   .     A
C98    C133    1.523   .     S
C98    C100    1.425   .     A
C99    C101    1.431   .     A
C99    C105    1.424   .     A
C100   C106    1.424   .     A
C100   C102    1.431   .     A
C101   C103    1.416   .     A
C101   C18     1.424   1_655 S
C102   C104    1.416   .     A
C105   O137    1.387   .     S
C105   C3      1.388   1_655 S
C106   O145    1.387   .     S
Cu107  O113    1.967   .     S
Cu107  O120    1.958   .     S
Cu107  Cu108   2.716   .     S
Cu107  O117    1.971   .     S
Cu107  N112    2.041   .     S
Cu107  O116    1.967   .     S
Cu108  N111    2.041   .     S
Cu108  O119    1.958   .     S
Cu108  O118    1.971   .     S
Cu108  O115    1.967   .     S
Cu108  O114    1.967   .     S
N111   N1120   1.302   1_554 S
N111   C1169   1.442   1_554 S
N112   N615    1.302   .     S
N112   C669    1.442   .     S
C121   H122    1.105   .     S
C121   H124    1.106   .     S
C121   H123    1.109   .     S
C125   H127    1.106   .     S
C125   H126    1.105   .     S
C125   H128    1.109   .     S
C129   H131    1.102   .     S
C129   H130    1.107   .     S
C129   H132    1.108   .     S
C133   H135    1.102   .     S
C133   H136    1.107   .     S
C133   H134    1.108   .     S
O137   C474    1.416   1_545 S
C138   H139    1.111   .     S
C138   C141    1.521   .     S
C138   O305    1.416   .     S
C138   H308    1.115   .     S
H140   C474    1.115   1_545 S
C141   H144    1.110   .     S
C141   H142    1.110   .     S
C141   H1151   1.110   1_554 S
H143   C645    1.110   .     S
O145   C314    1.416   .     S
C146   H148    1.111   .     S
C146   C149    1.521   .     S
C146   O481    1.416   1_545 S
C146   H483    1.115   1_545 S
H147   C314    1.115   .     S
C149   H152    1.110   .     S
C149   H150    1.110   .     S
C149   H655    1.110   .     S
H151   C1157   1.110   1_554 S
C153   H155    1.110   .     S
C153   H156    1.109   .     S
C153   C257    1.525   .     S
C153   H322    1.111   .     S
H154   C489    1.111   1_545 S
C157   H159    1.109   .     S
C157   H160    1.110   .     S
C157   C426    1.525   1_545 S
C157   H494    1.111   1_545 S
H158   C325    1.111   .     S
C161   H163    1.110   .     S
C161   H164    1.100   .     S
C161   N615    1.442   .     S
C161   H666    1.108   .     S
H162   C1169   1.108   1_554 S
C165   H166    1.110   .     S
C165   H168    1.100   .     S
C165   N1120   1.442   1_554 S
C165   H1175   1.108   1_554 S
H167   C669    1.108   .     S
C169   C173    1.437   .     S
C169   O199    1.305   .     A
C169   O197    1.291   .     A
C170   O200    1.305   .     A
C170   C174    1.437   .     S
C170   O198    1.291   .     A
C171   H193    1.079   .     S
C171   C188    1.398   .     A
C171   C273    1.388   1_455 S
C172   C187    1.398   .     A
C172   H194    1.079   .     S
C172   C274    1.388   .     S
C174   C341    1.369   .     S
C174   C409    1.525   .     S
C175   O201    1.298   .     A
C175   C180    1.448   .     S
C175   O203    1.300   .     A
C176   O204    1.300   .     A
C176   O202    1.298   .     A
C176   C179    1.448   .     S
C177   C187    1.407   .     A
C177   C205    1.527   .     S
C177   C179    1.403   .     A
C178   C188    1.407   .     A
C178   C209    1.527   .     S
C178   C180    1.403   .     A
C179   C181    1.413   .     A
C180   C182    1.413   .     A
C181   C213    1.523   .     S
C181   C183    1.425   .     A
C182   C217    1.523   .     S
C182   C184    1.425   .     A
C183   C185    1.431   .     A
C183   C189    1.424   .     A
C184   C190    1.424   .     A
C184   C186    1.431   .     A
C185   C187    1.416   .     A
C185   C270    1.424   .     S
C186   C188    1.416   .     A
C186   C269    1.424   1_455 S
C189   O221    1.387   .     S
C189   C255    1.388   .     S
C190   O229    1.387   .     S
C190   C256    1.388   1_455 S
Cu191  O197    1.967   .     S
Cu191  O204    1.958   .     S
Cu191  Cu192   2.716   .     S
Cu191  O201    1.971   .     S
Cu191  N196    2.041   .     S
Cu191  O200    1.967   .     S
Cu192  N195    2.041   .     S
Cu192  O203    1.958   .     S
Cu192  O202    1.971   .     S
Cu192  O199    1.967   .     S
Cu192  O198    1.967   .     S
N195   N1204   1.302   1_554 S
N195   C1253   1.442   1_554 S
N196   N699    1.302   .     S
N196   C753    1.442   .     S
C205   H206    1.105   .     S
C205   H208    1.106   .     S
C205   H207    1.109   .     S
C209   H211    1.106   .     S
C209   H210    1.105   .     S
C209   H212    1.109   .     S
C213   H215    1.102   .     S
C213   H214    1.107   .     S
C213   H216    1.108   .     S
C217   H219    1.102   .     S
C217   H220    1.107   .     S
C217   H218    1.108   .     S
C222   H223    1.111   .     S
C222   C225    1.521   .     S
C222   O389    1.416   .     S
C222   H392    1.115   .     S
C225   H228    1.110   .     S
C225   H226    1.110   .     S
C225   H1235   1.110   1_554 S
H227   C729    1.110   .     S
O229   C398    1.416   .     S
C230   H232    1.111   .     S
C230   C233    1.521   .     S
H231   C398    1.115   .     S
C233   H236    1.110   .     S
C233   H234    1.110   .     S
C233   H739    1.110   .     S
H235   C1241   1.110   1_554 S
C237   H239    1.110   .     S
C237   H240    1.109   .     S
C237   C341    1.525   .     S
C237   H406    1.111   .     S
C241   H243    1.109   .     S
C241   H244    1.110   .     S
H242   C409    1.111   .     S
C245   H247    1.110   .     S
C245   H248    1.100   .     S
C245   N699    1.442   .     S
C245   H750    1.108   .     S
H246   C1253   1.108   1_554 S
C249   H250    1.110   .     S
C249   H252    1.100   .     S
C249   N1204   1.442   1_554 S
C249   H1259   1.108   1_554 S
H251   C753    1.108   .     S
C253   C257    1.437   .     S
C253   O283    1.305   .     A
C253   O281    1.291   .     A
C254   O284    1.305   .     A
C254   C258    1.437   .     S
C254   O282    1.291   .     A
C255   H277    1.079   .     S
C255   C272    1.398   .     A
C256   C271    1.398   .     A
C256   H278    1.079   .     S
C256   C190    1.388   1_655 S
C258   C425    1.369   .     S
C258   C493    1.525   .     S
C259   O285    1.298   .     A
C259   C264    1.448   .     S
C259   O287    1.300   .     A
C260   O288    1.300   .     A
C260   O286    1.298   .     A
C260   C263    1.448   .     S
C261   C271    1.407   .     A
C261   C289    1.527   .     S
C261   C263    1.403   .     A
C262   C272    1.407   .     A
C262   C293    1.527   .     S
C262   C264    1.403   .     A
C263   C265    1.413   .     A
C264   C266    1.413   .     A
C265   C297    1.523   .     S
C265   C267    1.425   .     A
C266   C301    1.523   .     S
C266   C268    1.425   .     A
C267   C269    1.431   .     A
C267   C273    1.424   .     A
C268   C274    1.424   .     A
C268   C270    1.431   .     A
C269   C271    1.416   .     A
C269   C186    1.424   1_655 S
C270   C272    1.416   .     A
C273   O305    1.387   .     S
C273   C171    1.388   1_655 S
C274   O313    1.387   .     S
Cu275  O281    1.967   .     S
Cu275  O288    1.958   .     S
Cu275  Cu276   2.716   .     S
Cu275  O285    1.971   .     S
Cu275  N280    2.041   .     S
Cu275  O284    1.967   .     S
Cu276  N279    2.041   .     S
Cu276  O287    1.958   .     S
Cu276  O286    1.971   .     S
Cu276  O283    1.967   .     S
Cu276  O282    1.967   .     S
N279   N1288   1.302   1_554 S
N279   C1337   1.442   1_554 S
N280   N783    1.302   .     S
N280   C837    1.442   .     S
C289   H290    1.105   .     S
C289   H292    1.106   .     S
C289   H291    1.109   .     S
C293   H295    1.106   .     S
C293   H294    1.105   .     S
C293   H296    1.109   .     S
C297   H299    1.102   .     S
C297   H298    1.107   .     S
C297   H300    1.108   .     S
C301   H303    1.102   .     S
C301   H304    1.107   .     S
C301   H302    1.108   .     S
C306   H307    1.111   .     S
C306   C309    1.521   .     S
C306   O473    1.416   .     S
C306   H476    1.115   .     S
C309   H312    1.110   .     S
C309   H310    1.110   .     S
C309   H1319   1.110   1_554 S
H311   C813    1.110   .     S
O313   C482    1.416   .     S
C314   H316    1.111   .     S
C314   C317    1.521   .     S
H315   C482    1.115   .     S
C317   H320    1.110   .     S
C317   H318    1.110   .     S
C317   H823    1.110   .     S
H319   C1325   1.110   1_554 S
C321   H323    1.110   .     S
C321   H324    1.109   .     S
C321   C425    1.525   .     S
C321   H490    1.111   .     S
C325   H327    1.109   .     S
C325   H328    1.110   .     S
H326   C493    1.111   .     S
C329   H331    1.110   .     S
C329   H332    1.100   .     S
C329   N783    1.442   .     S
C329   H834    1.108   .     S
H330   C1337   1.108   1_554 S
C333   H334    1.110   .     S
C333   H336    1.100   .     S
C333   N1288   1.442   1_554 S
C333   H1343   1.108   1_554 S
H335   C837    1.108   .     S
C337   C341    1.437   .     S
C337   O367    1.305   .     A
C337   O365    1.291   .     A
C338   O368    1.305   .     A
C338   C342    1.437   .     S
C338   O366    1.291   .     A
C339   H361    1.079   .     S
C339   C356    1.398   .     A
C339   C441    1.388   1_455 S
C340   C355    1.398   .     A
C340   H362    1.079   .     S
C340   C442    1.388   .     S
C342   C5      1.369   1_565 S
C342   C73     1.525   1_565 S
C343   O369    1.298   .     A
C343   C348    1.448   .     S
C343   O371    1.300   .     A
C344   O372    1.300   .     A
C344   O370    1.298   .     A
C344   C347    1.448   .     S
C345   C355    1.407   .     A
C345   C373    1.527   .     S
C345   C347    1.403   .     A
C346   C356    1.407   .     A
C346   C377    1.527   .     S
C346   C348    1.403   .     A
C347   C349    1.413   .     A
C348   C350    1.413   .     A
C349   C381    1.523   .     S
C349   C351    1.425   .     A
C350   C385    1.523   .     S
C350   C352    1.425   .     A
C351   C353    1.431   .     A
C351   C357    1.424   .     A
C352   C358    1.424   .     A
C352   C354    1.431   .     A
C353   C355    1.416   .     A
C353   C438    1.424   .     S
C354   C356    1.416   .     A
C354   C437    1.424   1_455 S
C357   O389    1.387   .     S
C357   C423    1.388   .     S
C358   O397    1.387   .     S
C358   C424    1.388   1_455 S
Cu359  O365    1.967   .     S
Cu359  O372    1.958   .     S
Cu359  Cu360   2.716   .     S
Cu359  O369    1.971   .     S
Cu359  N364    2.041   .     S
Cu359  O368    1.967   .     S
Cu360  N363    2.041   .     S
Cu360  O371    1.958   .     S
Cu360  O370    1.971   .     S
Cu360  O367    1.967   .     S
Cu360  O366    1.967   .     S
N363   N1372   1.302   1_554 S
N363   C1421   1.442   1_554 S
N364   N867    1.302   .     S
N364   C921    1.442   .     S
C373   H374    1.105   .     S
C373   H376    1.106   .     S
C373   H375    1.109   .     S
C377   H379    1.106   .     S
C377   H378    1.105   .     S
C377   H380    1.109   .     S
C381   H383    1.102   .     S
C381   H382    1.107   .     S
C381   H384    1.108   .     S
C385   H387    1.102   .     S
C385   H388    1.107   .     S
C385   H386    1.108   .     S
C390   H391    1.111   .     S
C390   C393    1.521   .     S
C390   O53     1.416   1_565 S
C390   H56     1.115   1_565 S
C393   H396    1.110   .     S
C393   H394    1.110   .     S
C393   H1403   1.110   1_554 S
H395   C897    1.110   .     S
O397   C62     1.416   1_565 S
C398   H400    1.111   .     S
C398   C401    1.521   .     S
H399   C62     1.115   1_565 S
C401   H404    1.110   .     S
C401   H402    1.110   .     S
C401   H907    1.110   .     S
H403   C1409   1.110   1_554 S
C405   H407    1.110   .     S
C405   H408    1.109   .     S
C405   C5      1.525   1_565 S
C405   H70     1.111   1_565 S
C409   H411    1.109   .     S
C409   H412    1.110   .     S
H410   C73     1.111   1_565 S
C413   H415    1.110   .     S
C413   H416    1.100   .     S
C413   N867    1.442   .     S
C413   H918    1.108   .     S
H414   C1421   1.108   1_554 S
C417   H418    1.110   .     S
C417   H420    1.100   .     S
C417   N1372   1.442   1_554 S
C417   H1427   1.108   1_554 S
H419   C921    1.108   .     S
C421   C425    1.437   .     S
C421   O451    1.305   .     A
C421   O449    1.291   .     A
C422   O452    1.305   .     A
C422   C426    1.437   .     S
C422   O450    1.291   .     A
C423   H445    1.079   .     S
C423   C440    1.398   .     A
C424   C439    1.398   .     A
C424   H446    1.079   .     S
C424   C358    1.388   1_655 S
C426   C89     1.369   1_565 S
C426   C157    1.525   1_565 S
C427   O453    1.298   .     A
C427   C432    1.448   .     S
C427   O455    1.300   .     A
C428   O456    1.300   .     A
C428   O454    1.298   .     A
C428   C431    1.448   .     S
C429   C439    1.407   .     A
C429   C457    1.527   .     S
C429   C431    1.403   .     A
C430   C440    1.407   .     A
C430   C461    1.527   .     S
C430   C432    1.403   .     A
C431   C433    1.413   .     A
C432   C434    1.413   .     A
C433   C465    1.523   .     S
C433   C435    1.425   .     A
C434   C469    1.523   .     S
C434   C436    1.425   .     A
C435   C437    1.431   .     A
C435   C441    1.424   .     A
C436   C442    1.424   .     A
C436   C438    1.431   .     A
C437   C439    1.416   .     A
C437   C354    1.424   1_655 S
C438   C440    1.416   .     A
C441   O473    1.387   .     S
C441   C339    1.388   1_655 S
C442   O481    1.387   .     S
Cu443  O449    1.967   .     S
Cu443  O456    1.958   .     S
Cu443  Cu444   2.716   .     S
Cu443  O453    1.971   .     S
Cu443  N448    2.041   .     S
Cu443  O452    1.967   .     S
Cu444  N447    2.041   .     S
Cu444  O455    1.958   .     S
Cu444  O454    1.971   .     S
Cu444  O451    1.967   .     S
Cu444  O450    1.967   .     S
N447   N1456   1.302   1_554 S
N447   C1505   1.442   1_554 S
N448   N951    1.302   .     S
N448   C1005   1.442   .     S
C457   H458    1.105   .     S
C457   H460    1.106   .     S
C457   H459    1.109   .     S
C461   H463    1.106   .     S
C461   H462    1.105   .     S
C461   H464    1.109   .     S
C465   H467    1.102   .     S
C465   H466    1.107   .     S
C465   H468    1.108   .     S
C469   H471    1.102   .     S
C469   H472    1.107   .     S
C469   H470    1.108   .     S
C474   H475    1.111   .     S
C474   C477    1.521   .     S
C474   O137    1.416   1_565 S
C474   H140    1.115   1_565 S
C477   H480    1.110   .     S
C477   H478    1.110   .     S
C477   H1487   1.110   1_554 S
H479   C981    1.110   .     S
O481   C146    1.416   1_565 S
C482   H484    1.111   .     S
C482   C485    1.521   .     S
H483   C146    1.115   1_565 S
C485   H488    1.110   .     S
C485   H486    1.110   .     S
C485   H991    1.110   .     S
H487   C1493   1.110   1_554 S
C489   H491    1.110   .     S
C489   H492    1.109   .     S
C489   C89     1.525   1_565 S
C489   H154    1.111   1_565 S
C493   H495    1.109   .     S
C493   H496    1.110   .     S
H494   C157    1.111   1_565 S
C497   H499    1.110   .     S
C497   H500    1.100   .     S
C497   N951    1.442   .     S
C497   H1002   1.108   .     S
H498   C1505   1.108   1_554 S
C501   H502    1.110   .     S
C501   H504    1.100   .     S
C501   N1456   1.442   1_554 S
C501   H1511   1.108   1_554 S
H503   C1005   1.108   .     S
C505   C509    1.437   .     S
C505   O535    1.305   .     A
C505   O533    1.291   .     A
C506   O536    1.305   .     A
C506   C510    1.437   .     S
C506   O534    1.291   .     A
C507   H529    1.079   .     S
C507   C524    1.398   .     A
C507   C609    1.388   1_455 S
C508   C523    1.398   .     A
C508   H530    1.079   .     S
C508   C610    1.388   .     S
C509   C846    1.369   1_545 S
C509   C909    1.525   1_545 S
C510   C677    1.369   .     S
C510   C745    1.525   .     S
C511   O537    1.298   .     A
C511   C516    1.448   .     S
C511   O539    1.300   .     A
C512   O540    1.300   .     A
C512   O538    1.298   .     A
C512   C515    1.448   .     S
C513   C523    1.407   .     A
C513   C541    1.527   .     S
C513   C515    1.403   .     A
C514   C524    1.407   .     A
C514   C545    1.527   .     S
C514   C516    1.403   .     A
C515   C517    1.413   .     A
C516   C518    1.413   .     A
C517   C549    1.523   .     S
C517   C519    1.425   .     A
C518   C553    1.523   .     S
C518   C520    1.425   .     A
C519   C521    1.431   .     A
C519   C525    1.424   .     A
C520   C526    1.424   .     A
C520   C522    1.431   .     A
C521   C523    1.416   .     A
C521   C606    1.424   .     S
C522   C524    1.416   .     A
C522   C605    1.424   1_455 S
C525   O557    1.387   .     S
C525   C591    1.388   .     S
C526   O565    1.387   .     S
C526   C592    1.388   1_455 S
Cu527  O533    1.967   .     S
Cu527  O540    1.958   .     S
Cu527  Cu528   2.716   .     S
Cu527  O537    1.971   .     S
Cu527  N532    2.041   .     S
Cu527  O536    1.967   .     S
Cu528  N531    2.041   .     S
Cu528  O539    1.958   .     S
Cu528  O538    1.971   .     S
Cu528  O535    1.967   .     S
Cu528  O534    1.967   .     S
N532   N1035   1.302   .     S
N532   C1089   1.442   .     S
C541   H542    1.105   .     S
C541   H544    1.106   .     S
C541   H543    1.109   .     S
C545   H547    1.106   .     S
C545   H546    1.105   .     S
C545   H548    1.109   .     S
C549   H551    1.102   .     S
C549   H550    1.107   .     S
C549   H552    1.108   .     S
C553   H555    1.102   .     S
C553   H556    1.107   .     S
C553   H554    1.108   .     S
O557   C894    1.416   1_545 S
C558   H559    1.111   .     S
C558   C561    1.521   .     S
C558   O725    1.416   .     S
C558   H728    1.115   .     S
H560   C894    1.115   1_545 S
C561   H564    1.110   .     S
C561   H562    1.110   .     S
H563   C1065   1.110   .     S
O565   C734    1.416   .     S
C566   H568    1.111   .     S
C566   C569    1.521   .     S
C566   O901    1.416   1_545 S
C566   H903    1.115   1_545 S
H567   C734    1.115   .     S
C569   H572    1.110   .     S
C569   H570    1.110   .     S
C569   H1075   1.110   .     S
C573   H575    1.110   .     S
C573   H576    1.109   .     S
C573   C677    1.525   .     S
C573   H742    1.111   .     S
H574   C909    1.111   1_545 S
C577   H579    1.109   .     S
C577   H580    1.110   .     S
C577   C846    1.525   1_545 S
C577   H914    1.111   1_545 S
H578   C745    1.111   .     S
C581   H583    1.110   .     S
C581   H584    1.100   .     S
C581   N1035   1.442   .     S
C581   H1086   1.108   .     S
C585   H586    1.110   .     S
C585   H588    1.100   .     S
H587   C1089   1.108   .     S
C589   C593    1.437   .     S
C589   O619    1.305   .     A
C589   O617    1.291   .     A
C590   O620    1.305   .     A
C590   C594    1.437   .     S
C590   O618    1.291   .     A
C591   H613    1.079   .     S
C591   C608    1.398   .     A
C592   C607    1.398   .     A
C592   H614    1.079   .     S
C592   C526    1.388   1_655 S
C593   C930    1.369   1_545 S
C593   C993    1.525   1_545 S
C594   C761    1.369   .     S
C594   C829    1.525   .     S
C595   O621    1.298   .     A
C595   C600    1.448   .     S
C595   O623    1.300   .     A
C596   O624    1.300   .     A
C596   O622    1.298   .     A
C596   C599    1.448   .     S
C597   C607    1.407   .     A
C597   C625    1.527   .     S
C597   C599    1.403   .     A
C598   C608    1.407   .     A
C598   C629    1.527   .     S
C598   C600    1.403   .     A
C599   C601    1.413   .     A
C600   C602    1.413   .     A
C601   C633    1.523   .     S
C601   C603    1.425   .     A
C602   C637    1.523   .     S
C602   C604    1.425   .     A
C603   C605    1.431   .     A
C603   C609    1.424   .     A
C604   C610    1.424   .     A
C604   C606    1.431   .     A
C605   C607    1.416   .     A
C605   C522    1.424   1_655 S
C606   C608    1.416   .     A
C609   O641    1.387   .     S
C609   C507    1.388   1_655 S
C610   O649    1.387   .     S
Cu611  O617    1.967   .     S
Cu611  O624    1.958   .     S
Cu611  Cu612   2.716   .     S
Cu611  O621    1.971   .     S
Cu611  N616    2.041   .     S
Cu611  O620    1.967   .     S
Cu612  N615    2.041   .     S
Cu612  O623    1.958   .     S
Cu612  O622    1.971   .     S
Cu612  O619    1.967   .     S
Cu612  O618    1.967   .     S
N616   N1119   1.302   .     S
N616   C1173   1.442   .     S
C625   H626    1.105   .     S
C625   H628    1.106   .     S
C625   H627    1.109   .     S
C629   H631    1.106   .     S
C629   H630    1.105   .     S
C629   H632    1.109   .     S
C633   H635    1.102   .     S
C633   H634    1.107   .     S
C633   H636    1.108   .     S
C637   H639    1.102   .     S
C637   H640    1.107   .     S
C637   H638    1.108   .     S
O641   C978    1.416   1_545 S
C642   H643    1.111   .     S
C642   C645    1.521   .     S
C642   O809    1.416   .     S
C642   H812    1.115   .     S
H644   C978    1.115   1_545 S
C645   H648    1.110   .     S
C645   H646    1.110   .     S
H647   C1149   1.110   .     S
O649   C818    1.416   .     S
C650   H652    1.111   .     S
C650   C653    1.521   .     S
C650   O985    1.416   1_545 S
C650   H987    1.115   1_545 S
H651   C818    1.115   .     S
C653   H656    1.110   .     S
C653   H654    1.110   .     S
C653   H1159   1.110   .     S
C657   H659    1.110   .     S
C657   H660    1.109   .     S
C657   C761    1.525   .     S
C657   H826    1.111   .     S
H658   C993    1.111   1_545 S
C661   H663    1.109   .     S
C661   H664    1.110   .     S
C661   C930    1.525   1_545 S
C661   H998    1.111   1_545 S
H662   C829    1.111   .     S
C665   H667    1.110   .     S
C665   H668    1.100   .     S
C665   N1119   1.442   .     S
C665   H1170   1.108   .     S
C669   H670    1.110   .     S
C669   H672    1.100   .     S
H671   C1173   1.108   .     S
C673   C677    1.437   .     S
C673   O703    1.305   .     A
C673   O701    1.291   .     A
C674   O704    1.305   .     A
C674   C678    1.437   .     S
C674   O702    1.291   .     A
C675   H697    1.079   .     S
C675   C692    1.398   .     A
C675   C777    1.388   1_455 S
C676   C691    1.398   .     A
C676   H698    1.079   .     S
C676   C778    1.388   .     S
C678   C845    1.369   .     S
C678   C913    1.525   .     S
C679   O705    1.298   .     A
C679   C684    1.448   .     S
C679   O707    1.300   .     A
C680   O708    1.300   .     A
C680   O706    1.298   .     A
C680   C683    1.448   .     S
C681   C691    1.407   .     A
C681   C709    1.527   .     S
C681   C683    1.403   .     A
C682   C692    1.407   .     A
C682   C713    1.527   .     S
C682   C684    1.403   .     A
C683   C685    1.413   .     A
C684   C686    1.413   .     A
C685   C717    1.523   .     S
C685   C687    1.425   .     A
C686   C721    1.523   .     S
C686   C688    1.425   .     A
C687   C689    1.431   .     A
C687   C693    1.424   .     A
C688   C694    1.424   .     A
C688   C690    1.431   .     A
C689   C691    1.416   .     A
C689   C774    1.424   .     S
C690   C692    1.416   .     A
C690   C773    1.424   1_455 S
C693   O725    1.387   .     S
C693   C759    1.388   .     S
C694   O733    1.387   .     S
C694   C760    1.388   1_455 S
Cu695  O701    1.967   .     S
Cu695  O708    1.958   .     S
Cu695  Cu696   2.716   .     S
Cu695  O705    1.971   .     S
Cu695  N700    2.041   .     S
Cu695  O704    1.967   .     S
Cu696  N699    2.041   .     S
Cu696  O707    1.958   .     S
Cu696  O706    1.971   .     S
Cu696  O703    1.967   .     S
Cu696  O702    1.967   .     S
N700   N1203   1.302   .     S
N700   C1257   1.442   .     S
C709   H710    1.105   .     S
C709   H712    1.106   .     S
C709   H711    1.109   .     S
C713   H715    1.106   .     S
C713   H714    1.105   .     S
C713   H716    1.109   .     S
C717   H719    1.102   .     S
C717   H718    1.107   .     S
C717   H720    1.108   .     S
C721   H723    1.102   .     S
C721   H724    1.107   .     S
C721   H722    1.108   .     S
C726   H727    1.111   .     S
C726   C729    1.521   .     S
C726   O893    1.416   .     S
C726   H896    1.115   .     S
C729   H732    1.110   .     S
C729   H730    1.110   .     S
H731   C1233   1.110   .     S
O733   C902    1.416   .     S
C734   H736    1.111   .     S
C734   C737    1.521   .     S
H735   C902    1.115   .     S
C737   H740    1.110   .     S
C737   H738    1.110   .     S
C737   H1243   1.110   .     S
C741   H743    1.110   .     S
C741   H744    1.109   .     S
C741   C845    1.525   .     S
C741   H910    1.111   .     S
C745   H747    1.109   .     S
C745   H748    1.110   .     S
H746   C913    1.111   .     S
C749   H751    1.110   .     S
C749   H752    1.100   .     S
C749   N1203   1.442   .     S
C749   H1254   1.108   .     S
C753   H754    1.110   .     S
C753   H756    1.100   .     S
H755   C1257   1.108   .     S
C757   C761    1.437   .     S
C757   O787    1.305   .     A
C757   O785    1.291   .     A
C758   O788    1.305   .     A
C758   C762    1.437   .     S
C758   O786    1.291   .     A
C759   H781    1.079   .     S
C759   C776    1.398   .     A
C760   C775    1.398   .     A
C760   H782    1.079   .     S
C760   C694    1.388   1_655 S
C762   C929    1.369   .     S
C762   C997    1.525   .     S
C763   O789    1.298   .     A
C763   C768    1.448   .     S
C763   O791    1.300   .     A
C764   O792    1.300   .     A
C764   O790    1.298   .     A
C764   C767    1.448   .     S
C765   C775    1.407   .     A
C765   C793    1.527   .     S
C765   C767    1.403   .     A
C766   C776    1.407   .     A
C766   C797    1.527   .     S
C766   C768    1.403   .     A
C767   C769    1.413   .     A
C768   C770    1.413   .     A
C769   C801    1.523   .     S
C769   C771    1.425   .     A
C770   C805    1.523   .     S
C770   C772    1.425   .     A
C771   C773    1.431   .     A
C771   C777    1.424   .     A
C772   C778    1.424   .     A
C772   C774    1.431   .     A
C773   C775    1.416   .     A
C773   C690    1.424   1_655 S
C774   C776    1.416   .     A
C777   O809    1.387   .     S
C777   C675    1.388   1_655 S
C778   O817    1.387   .     S
Cu779  O785    1.967   .     S
Cu779  O792    1.958   .     S
Cu779  Cu780   2.716   .     S
Cu779  O789    1.971   .     S
Cu779  N784    2.041   .     S
Cu779  O788    1.967   .     S
Cu780  N783    2.041   .     S
Cu780  O791    1.958   .     S
Cu780  O790    1.971   .     S
Cu780  O787    1.967   .     S
Cu780  O786    1.967   .     S
N784   N1287   1.302   .     S
N784   C1341   1.442   .     S
C793   H794    1.105   .     S
C793   H796    1.106   .     S
C793   H795    1.109   .     S
C797   H799    1.106   .     S
C797   H798    1.105   .     S
C797   H800    1.109   .     S
C801   H803    1.102   .     S
C801   H802    1.107   .     S
C801   H804    1.108   .     S
C805   H807    1.102   .     S
C805   H808    1.107   .     S
C805   H806    1.108   .     S
C810   H811    1.111   .     S
C810   C813    1.521   .     S
C810   O977    1.416   .     S
C810   H980    1.115   .     S
C813   H816    1.110   .     S
C813   H814    1.110   .     S
H815   C1317   1.110   .     S
O817   C986    1.416   .     S
C818   H820    1.111   .     S
C818   C821    1.521   .     S
H819   C986    1.115   .     S
C821   H824    1.110   .     S
C821   H822    1.110   .     S
C821   H1327   1.110   .     S
C825   H827    1.110   .     S
C825   H828    1.109   .     S
C825   C929    1.525   .     S
C825   H994    1.111   .     S
C829   H831    1.109   .     S
C829   H832    1.110   .     S
H830   C997    1.111   .     S
C833   H835    1.110   .     S
C833   H836    1.100   .     S
C833   N1287   1.442   .     S
C833   H1338   1.108   .     S
C837   H838    1.110   .     S
C837   H840    1.100   .     S
H839   C1341   1.108   .     S
C841   C845    1.437   .     S
C841   O871    1.305   .     A
C841   O869    1.291   .     A
C842   O872    1.305   .     A
C842   C846    1.437   .     S
C842   O870    1.291   .     A
C843   H865    1.079   .     S
C843   C860    1.398   .     A
C843   C945    1.388   1_455 S
C844   C859    1.398   .     A
C844   H866    1.079   .     S
C844   C946    1.388   .     S
C846   C509    1.369   1_565 S
C846   C577    1.525   1_565 S
C847   O873    1.298   .     A
C847   C852    1.448   .     S
C847   O875    1.300   .     A
C848   O876    1.300   .     A
C848   O874    1.298   .     A
C848   C851    1.448   .     S
C849   C859    1.407   .     A
C849   C877    1.527   .     S
C849   C851    1.403   .     A
C850   C860    1.407   .     A
C850   C881    1.527   .     S
C850   C852    1.403   .     A
C851   C853    1.413   .     A
C852   C854    1.413   .     A
C853   C885    1.523   .     S
C853   C855    1.425   .     A
C854   C889    1.523   .     S
C854   C856    1.425   .     A
C855   C857    1.431   .     A
C855   C861    1.424   .     A
C856   C862    1.424   .     A
C856   C858    1.431   .     A
C857   C859    1.416   .     A
C857   C942    1.424   .     S
C858   C860    1.416   .     A
C858   C941    1.424   1_455 S
C861   O893    1.387   .     S
C861   C927    1.388   .     S
C862   O901    1.387   .     S
C862   C928    1.388   1_455 S
Cu863  O869    1.967   .     S
Cu863  O876    1.958   .     S
Cu863  Cu864   2.716   .     S
Cu863  O873    1.971   .     S
Cu863  N868    2.041   .     S
Cu863  O872    1.967   .     S
Cu864  N867    2.041   .     S
Cu864  O875    1.958   .     S
Cu864  O874    1.971   .     S
Cu864  O871    1.967   .     S
Cu864  O870    1.967   .     S
N868   N1371   1.302   .     S
N868   C1425   1.442   .     S
C877   H878    1.105   .     S
C877   H880    1.106   .     S
C877   H879    1.109   .     S
C881   H883    1.106   .     S
C881   H882    1.105   .     S
C881   H884    1.109   .     S
C885   H887    1.102   .     S
C885   H886    1.107   .     S
C885   H888    1.108   .     S
C889   H891    1.102   .     S
C889   H892    1.107   .     S
C889   H890    1.108   .     S
C894   H895    1.111   .     S
C894   C897    1.521   .     S
C894   O557    1.416   1_565 S
C894   H560    1.115   1_565 S
C897   H900    1.110   .     S
C897   H898    1.110   .     S
H899   C1401   1.110   .     S
O901   C566    1.416   1_565 S
C902   H904    1.111   .     S
C902   C905    1.521   .     S
H903   C566    1.115   1_565 S
C905   H908    1.110   .     S
C905   H906    1.110   .     S
C905   H1411   1.110   .     S
C909   H911    1.110   .     S
C909   H912    1.109   .     S
C909   C509    1.525   1_565 S
C909   H574    1.111   1_565 S
C913   H915    1.109   .     S
C913   H916    1.110   .     S
H914   C577    1.111   1_565 S
C917   H919    1.110   .     S
C917   H920    1.100   .     S
C917   N1371   1.442   .     S
C917   H1422   1.108   .     S
C921   H922    1.110   .     S
C921   H924    1.100   .     S
H923   C1425   1.108   .     S
C925   C929    1.437   .     S
C925   O955    1.305   .     A
C925   O953    1.291   .     A
C926   O956    1.305   .     A
C926   C930    1.437   .     S
C926   O954    1.291   .     A
C927   H949    1.079   .     S
C927   C944    1.398   .     A
C928   C943    1.398   .     A
C928   H950    1.079   .     S
C928   C862    1.388   1_655 S
C930   C593    1.369   1_565 S
C930   C661    1.525   1_565 S
C931   O957    1.298   .     A
C931   C936    1.448   .     S
C931   O959    1.300   .     A
C932   O960    1.300   .     A
C932   O958    1.298   .     A
C932   C935    1.448   .     S
C933   C943    1.407   .     A
C933   C961    1.527   .     S
C933   C935    1.403   .     A
C934   C944    1.407   .     A
C934   C965    1.527   .     S
C934   C936    1.403   .     A
C935   C937    1.413   .     A
C936   C938    1.413   .     A
C937   C969    1.523   .     S
C937   C939    1.425   .     A
C938   C973    1.523   .     S
C938   C940    1.425   .     A
C939   C941    1.431   .     A
C939   C945    1.424   .     A
C940   C946    1.424   .     A
C940   C942    1.431   .     A
C941   C943    1.416   .     A
C941   C858    1.424   1_655 S
C942   C944    1.416   .     A
C945   O977    1.387   .     S
C945   C843    1.388   1_655 S
C946   O985    1.387   .     S
Cu947  O953    1.967   .     S
Cu947  O960    1.958   .     S
Cu947  Cu948   2.716   .     S
Cu947  O957    1.971   .     S
Cu947  N952    2.041   .     S
Cu947  O956    1.967   .     S
Cu948  N951    2.041   .     S
Cu948  O959    1.958   .     S
Cu948  O958    1.971   .     S
Cu948  O955    1.967   .     S
Cu948  O954    1.967   .     S
N952   N1455   1.302   .     S
N952   C1509   1.442   .     S
C961   H962    1.105   .     S
C961   H964    1.106   .     S
C961   H963    1.109   .     S
C965   H967    1.106   .     S
C965   H966    1.105   .     S
C965   H968    1.109   .     S
C969   H971    1.102   .     S
C969   H970    1.107   .     S
C969   H972    1.108   .     S
C973   H975    1.102   .     S
C973   H976    1.107   .     S
C973   H974    1.108   .     S
C978   H979    1.111   .     S
C978   C981    1.521   .     S
C978   O641    1.416   1_565 S
C978   H644    1.115   1_565 S
C981   H984    1.110   .     S
C981   H982    1.110   .     S
H983   C1485   1.110   .     S
O985   C650    1.416   1_565 S
C986   H988    1.111   .     S
C986   C989    1.521   .     S
H987   C650    1.115   1_565 S
C989   H992    1.110   .     S
C989   H990    1.110   .     S
C989   H1495   1.110   .     S
C993   H995    1.110   .     S
C993   H996    1.109   .     S
C993   C593    1.525   1_565 S
C993   H658    1.111   1_565 S
C997   H999    1.109   .     S
C997   H1000   1.110   .     S
H998   C661    1.111   1_565 S
C1001  H1003   1.110   .     S
C1001  H1004   1.100   .     S
C1001  N1455   1.442   .     S
C1001  H1506   1.108   .     S
C1005  H1006   1.110   .     S
C1005  H1008   1.100   .     S
H1007  C1509   1.108   .     S
C1009  C1013   1.437   .     S
C1009  O1039   1.305   .     A
C1009  O1037   1.291   .     A
C1010  O1040   1.305   .     A
C1010  C1014   1.437   .     S
C1010  O1038   1.291   .     A
C1011  H1033   1.079   .     S
C1011  C1028   1.398   .     A
C1011  C1113   1.388   1_455 S
C1012  C1027   1.398   .     A
C1012  H1034   1.079   .     S
C1012  C1114   1.388   .     S
C1013  C1350   1.369   1_545 S
C1013  C1413   1.525   1_545 S
C1014  C1181   1.369   .     S
C1014  C1249   1.525   .     S
C1015  O1041   1.298   .     A
C1015  C1020   1.448   .     S
C1015  O1043   1.300   .     A
C1016  O1044   1.300   .     A
C1016  O1042   1.298   .     A
C1016  C1019   1.448   .     S
C1017  C1027   1.407   .     A
C1017  C1045   1.527   .     S
C1017  C1019   1.403   .     A
C1018  C1028   1.407   .     A
C1018  C1049   1.527   .     S
C1018  C1020   1.403   .     A
C1019  C1021   1.413   .     A
C1020  C1022   1.413   .     A
C1021  C1053   1.523   .     S
C1021  C1023   1.425   .     A
C1022  C1057   1.523   .     S
C1022  C1024   1.425   .     A
C1023  C1025   1.431   .     A
C1023  C1029   1.424   .     A
C1024  C1030   1.424   .     A
C1024  C1026   1.431   .     A
C1025  C1027   1.416   .     A
C1025  C1110   1.424   .     S
C1026  C1028   1.416   .     A
C1026  C1109   1.424   1_455 S
C1029  O1061   1.387   .     S
C1029  C1095   1.388   .     S
C1030  O1069   1.387   .     S
C1030  C1096   1.388   1_455 S
Cu1031 O1037   1.967   .     S
Cu1031 O1044   1.958   .     S
Cu1031 Cu1032  2.716   .     S
Cu1031 O1041   1.971   .     S
Cu1031 N1036   2.041   .     S
Cu1031 O1040   1.967   .     S
Cu1032 N1035   2.041   .     S
Cu1032 O1043   1.958   .     S
Cu1032 O1042   1.971   .     S
Cu1032 O1039   1.967   .     S
Cu1032 O1038   1.967   .     S
N1036  N27     1.302   1_556 S
N1036  C81     1.442   1_556 S
C1045  H1046   1.105   .     S
C1045  H1048   1.106   .     S
C1045  H1047   1.109   .     S
C1049  H1051   1.106   .     S
C1049  H1050   1.105   .     S
C1049  H1052   1.109   .     S
C1053  H1055   1.102   .     S
C1053  H1054   1.107   .     S
C1053  H1056   1.108   .     S
C1057  H1059   1.102   .     S
C1057  H1060   1.107   .     S
C1057  H1058   1.108   .     S
O1061  C1398   1.416   1_545 S
C1062  H1063   1.111   .     S
C1062  C1065   1.521   .     S
C1062  O1229   1.416   .     S
C1062  H1232   1.115   .     S
H1064  C1398   1.115   1_545 S
C1065  H1068   1.110   .     S
C1065  H1066   1.110   .     S
H1067  C57     1.110   1_556 S
O1069  C1238   1.416   .     S
C1070  H1072   1.111   .     S
C1070  C1073   1.521   .     S
C1070  O1405   1.416   1_545 S
C1070  H1407   1.115   1_545 S
H1071  C1238   1.115   .     S
C1073  H1076   1.110   .     S
C1073  H1074   1.110   .     S
C1073  H67     1.110   1_556 S
C1077  H1079   1.110   .     S
C1077  H1080   1.109   .     S
C1077  C1181   1.525   .     S
C1077  H1246   1.111   .     S
H1078  C1413   1.111   1_545 S
C1081  H1083   1.109   .     S
C1081  H1084   1.110   .     S
C1081  C1350   1.525   1_545 S
C1081  H1418   1.111   1_545 S
H1082  C1249   1.111   .     S
C1085  H1087   1.110   .     S
C1085  H1088   1.100   .     S
C1085  N27     1.442   1_556 S
C1085  H78     1.108   1_556 S
C1089  H1090   1.110   .     S
C1089  H1092   1.100   .     S
H1091  C81     1.108   1_556 S
C1093  C1097   1.437   .     S
C1093  O1123   1.305   .     A
C1093  O1121   1.291   .     A
C1094  O1124   1.305   .     A
C1094  C1098   1.437   .     S
C1094  O1122   1.291   .     A
C1095  H1117   1.079   .     S
C1095  C1112   1.398   .     A
C1096  C1111   1.398   .     A
C1096  H1118   1.079   .     S
C1096  C1030   1.388   1_655 S
C1097  C1434   1.369   1_545 S
C1097  C1497   1.525   1_545 S
C1098  C1265   1.369   .     S
C1098  C1333   1.525   .     S
C1099  O1125   1.298   .     A
C1099  C1104   1.448   .     S
C1099  O1127   1.300   .     A
C1100  O1128   1.300   .     A
C1100  O1126   1.298   .     A
C1100  C1103   1.448   .     S
C1101  C1111   1.407   .     A
C1101  C1129   1.527   .     S
C1101  C1103   1.403   .     A
C1102  C1112   1.407   .     A
C1102  C1133   1.527   .     S
C1102  C1104   1.403   .     A
C1103  C1105   1.413   .     A
C1104  C1106   1.413   .     A
C1105  C1137   1.523   .     S
C1105  C1107   1.425   .     A
C1106  C1141   1.523   .     S
C1106  C1108   1.425   .     A
C1107  C1109   1.431   .     A
C1107  C1113   1.424   .     A
C1108  C1114   1.424   .     A
C1108  C1110   1.431   .     A
C1109  C1111   1.416   .     A
C1109  C1026   1.424   1_655 S
C1110  C1112   1.416   .     A
C1113  O1145   1.387   .     S
C1113  C1011   1.388   1_655 S
C1114  O1153   1.387   .     S
Cu1115 O1121   1.967   .     S
Cu1115 O1128   1.958   .     S
Cu1115 Cu1116  2.716   .     S
Cu1115 O1125   1.971   .     S
Cu1115 N1120   2.041   .     S
Cu1115 O1124   1.967   .     S
Cu1116 N1119   2.041   .     S
Cu1116 O1127   1.958   .     S
Cu1116 O1126   1.971   .     S
Cu1116 O1123   1.967   .     S
Cu1116 O1122   1.967   .     S
N1120  N111    1.302   1_556 S
N1120  C165    1.442   1_556 S
C1129  H1130   1.105   .     S
C1129  H1132   1.106   .     S
C1129  H1131   1.109   .     S
C1133  H1135   1.106   .     S
C1133  H1134   1.105   .     S
C1133  H1136   1.109   .     S
C1137  H1139   1.102   .     S
C1137  H1138   1.107   .     S
C1137  H1140   1.108   .     S
C1141  H1143   1.102   .     S
C1141  H1144   1.107   .     S
C1141  H1142   1.108   .     S
O1145  C1482   1.416   1_545 S
C1146  H1147   1.111   .     S
C1146  C1149   1.521   .     S
C1146  O1313   1.416   .     S
C1146  H1316   1.115   .     S
H1148  C1482   1.115   1_545 S
C1149  H1152   1.110   .     S
C1149  H1150   1.110   .     S
H1151  C141    1.110   1_556 S
O1153  C1322   1.416   .     S
C1154  H1156   1.111   .     S
C1154  C1157   1.521   .     S
C1154  O1489   1.416   1_545 S
C1154  H1491   1.115   1_545 S
H1155  C1322   1.115   .     S
C1157  H1160   1.110   .     S
C1157  H1158   1.110   .     S
C1157  H151    1.110   1_556 S
C1161  H1163   1.110   .     S
C1161  H1164   1.109   .     S
C1161  C1265   1.525   .     S
C1161  H1330   1.111   .     S
H1162  C1497   1.111   1_545 S
C1165  H1167   1.109   .     S
C1165  H1168   1.110   .     S
C1165  C1434   1.525   1_545 S
C1165  H1502   1.111   1_545 S
H1166  C1333   1.111   .     S
C1169  H1171   1.110   .     S
C1169  H1172   1.100   .     S
C1169  N111    1.442   1_556 S
C1169  H162    1.108   1_556 S
C1173  H1174   1.110   .     S
C1173  H1176   1.100   .     S
H1175  C165    1.108   1_556 S
C1177  C1181   1.437   .     S
C1177  O1207   1.305   .     A
C1177  O1205   1.291   .     A
C1178  O1208   1.305   .     A
C1178  C1182   1.437   .     S
C1178  O1206   1.291   .     A
C1179  H1201   1.079   .     S
C1179  C1196   1.398   .     A
C1179  C1281   1.388   1_455 S
C1180  C1195   1.398   .     A
C1180  H1202   1.079   .     S
C1180  C1282   1.388   .     S
C1182  C1349   1.369   .     S
C1182  C1417   1.525   .     S
C1183  O1209   1.298   .     A
C1183  C1188   1.448   .     S
C1183  O1211   1.300   .     A
C1184  O1212   1.300   .     A
C1184  O1210   1.298   .     A
C1184  C1187   1.448   .     S
C1185  C1195   1.407   .     A
C1185  C1213   1.527   .     S
C1185  C1187   1.403   .     A
C1186  C1196   1.407   .     A
C1186  C1217   1.527   .     S
C1186  C1188   1.403   .     A
C1187  C1189   1.413   .     A
C1188  C1190   1.413   .     A
C1189  C1221   1.523   .     S
C1189  C1191   1.425   .     A
C1190  C1225   1.523   .     S
C1190  C1192   1.425   .     A
C1191  C1193   1.431   .     A
C1191  C1197   1.424   .     A
C1192  C1198   1.424   .     A
C1192  C1194   1.431   .     A
C1193  C1195   1.416   .     A
C1193  C1278   1.424   .     S
C1194  C1196   1.416   .     A
C1194  C1277   1.424   1_455 S
C1197  O1229   1.387   .     S
C1197  C1263   1.388   .     S
C1198  O1237   1.387   .     S
C1198  C1264   1.388   1_455 S
Cu1199 O1205   1.967   .     S
Cu1199 O1212   1.958   .     S
Cu1199 Cu1200  2.716   .     S
Cu1199 O1209   1.971   .     S
Cu1199 N1204   2.041   .     S
Cu1199 O1208   1.967   .     S
Cu1200 N1203   2.041   .     S
Cu1200 O1211   1.958   .     S
Cu1200 O1210   1.971   .     S
Cu1200 O1207   1.967   .     S
Cu1200 O1206   1.967   .     S
N1204  N195    1.302   1_556 S
N1204  C249    1.442   1_556 S
C1213  H1214   1.105   .     S
C1213  H1216   1.106   .     S
C1213  H1215   1.109   .     S
C1217  H1219   1.106   .     S
C1217  H1218   1.105   .     S
C1217  H1220   1.109   .     S
C1221  H1223   1.102   .     S
C1221  H1222   1.107   .     S
C1221  H1224   1.108   .     S
C1225  H1227   1.102   .     S
C1225  H1228   1.107   .     S
C1225  H1226   1.108   .     S
C1230  H1231   1.111   .     S
C1230  C1233   1.521   .     S
C1230  O1397   1.416   .     S
C1230  H1400   1.115   .     S
C1233  H1236   1.110   .     S
C1233  H1234   1.110   .     S
H1235  C225    1.110   1_556 S
O1237  C1406   1.416   .     S
C1238  H1240   1.111   .     S
C1238  C1241   1.521   .     S
H1239  C1406   1.115   .     S
C1241  H1244   1.110   .     S
C1241  H1242   1.110   .     S
C1241  H235    1.110   1_556 S
C1245  H1247   1.110   .     S
C1245  H1248   1.109   .     S
C1245  C1349   1.525   .     S
C1245  H1414   1.111   .     S
C1249  H1251   1.109   .     S
C1249  H1252   1.110   .     S
H1250  C1417   1.111   .     S
C1253  H1255   1.110   .     S
C1253  H1256   1.100   .     S
C1253  N195    1.442   1_556 S
C1253  H246    1.108   1_556 S
C1257  H1258   1.110   .     S
C1257  H1260   1.100   .     S
H1259  C249    1.108   1_556 S
C1261  C1265   1.437   .     S
C1261  O1291   1.305   .     A
C1261  O1289   1.291   .     A
C1262  O1292   1.305   .     A
C1262  C1266   1.437   .     S
C1262  O1290   1.291   .     A
C1263  H1285   1.079   .     S
C1263  C1280   1.398   .     A
C1264  C1279   1.398   .     A
C1264  H1286   1.079   .     S
C1264  C1198   1.388   1_655 S
C1266  C1433   1.369   .     S
C1266  C1501   1.525   .     S
C1267  O1293   1.298   .     A
C1267  C1272   1.448   .     S
C1267  O1295   1.300   .     A
C1268  O1296   1.300   .     A
C1268  O1294   1.298   .     A
C1268  C1271   1.448   .     S
C1269  C1279   1.407   .     A
C1269  C1297   1.527   .     S
C1269  C1271   1.403   .     A
C1270  C1280   1.407   .     A
C1270  C1301   1.527   .     S
C1270  C1272   1.403   .     A
C1271  C1273   1.413   .     A
C1272  C1274   1.413   .     A
C1273  C1305   1.523   .     S
C1273  C1275   1.425   .     A
C1274  C1309   1.523   .     S
C1274  C1276   1.425   .     A
C1275  C1277   1.431   .     A
C1275  C1281   1.424   .     A
C1276  C1282   1.424   .     A
C1276  C1278   1.431   .     A
C1277  C1279   1.416   .     A
C1277  C1194   1.424   1_655 S
C1278  C1280   1.416   .     A
C1281  O1313   1.387   .     S
C1281  C1179   1.388   1_655 S
C1282  O1321   1.387   .     S
Cu1283 O1289   1.967   .     S
Cu1283 O1296   1.958   .     S
Cu1283 Cu1284  2.716   .     S
Cu1283 O1293   1.971   .     S
Cu1283 N1288   2.041   .     S
Cu1283 O1292   1.967   .     S
Cu1284 N1287   2.041   .     S
Cu1284 O1295   1.958   .     S
Cu1284 O1294   1.971   .     S
Cu1284 O1291   1.967   .     S
Cu1284 O1290   1.967   .     S
N1288  N279    1.302   1_556 S
N1288  C333    1.442   1_556 S
C1297  H1298   1.105   .     S
C1297  H1300   1.106   .     S
C1297  H1299   1.109   .     S
C1301  H1303   1.106   .     S
C1301  H1302   1.105   .     S
C1301  H1304   1.109   .     S
C1305  H1307   1.102   .     S
C1305  H1306   1.107   .     S
C1305  H1308   1.108   .     S
C1309  H1311   1.102   .     S
C1309  H1312   1.107   .     S
C1309  H1310   1.108   .     S
C1314  H1315   1.111   .     S
C1314  C1317   1.521   .     S
C1314  O1481   1.416   .     S
C1314  H1484   1.115   .     S
C1317  H1320   1.110   .     S
C1317  H1318   1.110   .     S
H1319  C309    1.110   1_556 S
O1321  C1490   1.416   .     S
C1322  H1324   1.111   .     S
C1322  C1325   1.521   .     S
H1323  C1490   1.115   .     S
C1325  H1328   1.110   .     S
C1325  H1326   1.110   .     S
C1325  H319    1.110   1_556 S
C1329  H1331   1.110   .     S
C1329  H1332   1.109   .     S
C1329  C1433   1.525   .     S
C1329  H1498   1.111   .     S
C1333  H1335   1.109   .     S
C1333  H1336   1.110   .     S
H1334  C1501   1.111   .     S
C1337  H1339   1.110   .     S
C1337  H1340   1.100   .     S
C1337  N279    1.442   1_556 S
C1337  H330    1.108   1_556 S
C1341  H1342   1.110   .     S
C1341  H1344   1.100   .     S
H1343  C333    1.108   1_556 S
C1345  C1349   1.437   .     S
C1345  O1375   1.305   .     A
C1345  O1373   1.291   .     A
C1346  O1376   1.305   .     A
C1346  C1350   1.437   .     S
C1346  O1374   1.291   .     A
C1347  H1369   1.079   .     S
C1347  C1364   1.398   .     A
C1347  C1449   1.388   1_455 S
C1348  C1363   1.398   .     A
C1348  H1370   1.079   .     S
C1348  C1450   1.388   .     S
C1350  C1013   1.369   1_565 S
C1350  C1081   1.525   1_565 S
C1351  O1377   1.298   .     A
C1351  C1356   1.448   .     S
C1351  O1379   1.300   .     A
C1352  O1380   1.300   .     A
C1352  O1378   1.298   .     A
C1352  C1355   1.448   .     S
C1353  C1363   1.407   .     A
C1353  C1381   1.527   .     S
C1353  C1355   1.403   .     A
C1354  C1364   1.407   .     A
C1354  C1385   1.527   .     S
C1354  C1356   1.403   .     A
C1355  C1357   1.413   .     A
C1356  C1358   1.413   .     A
C1357  C1389   1.523   .     S
C1357  C1359   1.425   .     A
C1358  C1393   1.523   .     S
C1358  C1360   1.425   .     A
C1359  C1361   1.431   .     A
C1359  C1365   1.424   .     A
C1360  C1366   1.424   .     A
C1360  C1362   1.431   .     A
C1361  C1363   1.416   .     A
C1361  C1446   1.424   .     S
C1362  C1364   1.416   .     A
C1362  C1445   1.424   1_455 S
C1365  O1397   1.387   .     S
C1365  C1431   1.388   .     S
C1366  O1405   1.387   .     S
C1366  C1432   1.388   1_455 S
Cu1367 O1373   1.967   .     S
Cu1367 O1380   1.958   .     S
Cu1367 Cu1368  2.716   .     S
Cu1367 O1377   1.971   .     S
Cu1367 N1372   2.041   .     S
Cu1367 O1376   1.967   .     S
Cu1368 N1371   2.041   .     S
Cu1368 O1379   1.958   .     S
Cu1368 O1378   1.971   .     S
Cu1368 O1375   1.967   .     S
Cu1368 O1374   1.967   .     S
N1372  N363    1.302   1_556 S
N1372  C417    1.442   1_556 S
C1381  H1382   1.105   .     S
C1381  H1384   1.106   .     S
C1381  H1383   1.109   .     S
C1385  H1387   1.106   .     S
C1385  H1386   1.105   .     S
C1385  H1388   1.109   .     S
C1389  H1391   1.102   .     S
C1389  H1390   1.107   .     S
C1389  H1392   1.108   .     S
C1393  H1395   1.102   .     S
C1393  H1396   1.107   .     S
C1393  H1394   1.108   .     S
C1398  H1399   1.111   .     S
C1398  C1401   1.521   .     S
C1398  O1061   1.416   1_565 S
C1398  H1064   1.115   1_565 S
C1401  H1404   1.110   .     S
C1401  H1402   1.110   .     S
H1403  C393    1.110   1_556 S
O1405  C1070   1.416   1_565 S
C1406  H1408   1.111   .     S
C1406  C1409   1.521   .     S
H1407  C1070   1.115   1_565 S
C1409  H1412   1.110   .     S
C1409  H1410   1.110   .     S
C1409  H403    1.110   1_556 S
C1413  H1415   1.110   .     S
C1413  H1416   1.109   .     S
C1413  C1013   1.525   1_565 S
C1413  H1078   1.111   1_565 S
C1417  H1419   1.109   .     S
C1417  H1420   1.110   .     S
H1418  C1081   1.111   1_565 S
C1421  H1423   1.110   .     S
C1421  H1424   1.100   .     S
C1421  N363    1.442   1_556 S
C1421  H414    1.108   1_556 S
C1425  H1426   1.110   .     S
C1425  H1428   1.100   .     S
H1427  C417    1.108   1_556 S
C1429  C1433   1.437   .     S
C1429  O1459   1.305   .     A
C1429  O1457   1.291   .     A
C1430  O1460   1.305   .     A
C1430  C1434   1.437   .     S
C1430  O1458   1.291   .     A
C1431  H1453   1.079   .     S
C1431  C1448   1.398   .     A
C1432  C1447   1.398   .     A
C1432  H1454   1.079   .     S
C1432  C1366   1.388   1_655 S
C1434  C1097   1.369   1_565 S
C1434  C1165   1.525   1_565 S
C1435  O1461   1.298   .     A
C1435  C1440   1.448   .     S
C1435  O1463   1.300   .     A
C1436  O1464   1.300   .     A
C1436  O1462   1.298   .     A
C1436  C1439   1.448   .     S
C1437  C1447   1.407   .     A
C1437  C1465   1.527   .     S
C1437  C1439   1.403   .     A
C1438  C1448   1.407   .     A
C1438  C1469   1.527   .     S
C1438  C1440   1.403   .     A
C1439  C1441   1.413   .     A
C1440  C1442   1.413   .     A
C1441  C1473   1.523   .     S
C1441  C1443   1.425   .     A
C1442  C1477   1.523   .     S
C1442  C1444   1.425   .     A
C1443  C1445   1.431   .     A
C1443  C1449   1.424   .     A
C1444  C1450   1.424   .     A
C1444  C1446   1.431   .     A
C1445  C1447   1.416   .     A
C1445  C1362   1.424   1_655 S
C1446  C1448   1.416   .     A
C1449  O1481   1.387   .     S
C1449  C1347   1.388   1_655 S
C1450  O1489   1.387   .     S
Cu1451 O1457   1.967   .     S
Cu1451 O1464   1.958   .     S
Cu1451 Cu1452  2.716   .     S
Cu1451 O1461   1.971   .     S
Cu1451 N1456   2.041   .     S
Cu1451 O1460   1.967   .     S
Cu1452 N1455   2.041   .     S
Cu1452 O1463   1.958   .     S
Cu1452 O1462   1.971   .     S
Cu1452 O1459   1.967   .     S
Cu1452 O1458   1.967   .     S
N1456  N447    1.302   1_556 S
N1456  C501    1.442   1_556 S
C1465  H1466   1.105   .     S
C1465  H1468   1.106   .     S
C1465  H1467   1.109   .     S
C1469  H1471   1.106   .     S
C1469  H1470   1.105   .     S
C1469  H1472   1.109   .     S
C1473  H1475   1.102   .     S
C1473  H1474   1.107   .     S
C1473  H1476   1.108   .     S
C1477  H1479   1.102   .     S
C1477  H1480   1.107   .     S
C1477  H1478   1.108   .     S
C1482  H1483   1.111   .     S
C1482  C1485   1.521   .     S
C1482  O1145   1.416   1_565 S
C1482  H1148   1.115   1_565 S
C1485  H1488   1.110   .     S
C1485  H1486   1.110   .     S
H1487  C477    1.110   1_556 S
O1489  C1154   1.416   1_565 S
C1490  H1492   1.111   .     S
C1490  C1493   1.521   .     S
H1491  C1154   1.115   1_565 S
C1493  H1496   1.110   .     S
C1493  H1494   1.110   .     S
C1493  H487    1.110   1_556 S
C1497  H1499   1.110   .     S
C1497  H1500   1.109   .     S
C1497  C1097   1.525   1_565 S
C1497  H1162   1.111   1_565 S
C1501  H1503   1.109   .     S
C1501  H1504   1.110   .     S
H1502  C1165   1.111   1_565 S
C1505  H1507   1.110   .     S
C1505  H1508   1.100   .     S
C1505  N447    1.442   1_556 S
C1505  H498    1.108   1_556 S
C1509  H1510   1.110   .     S
C1509  H1512   1.100   .     S
H1511  C501    1.108   1_556 S
