data_str_m2_o1_o17_pcu_sym.146
_audit_creation_date              2020-01-03
_audit_creation_method            'Materials Studio'
_symmetry_space_group_name_H-M    'P1'
_symmetry_Int_Tables_number       1
_symmetry_cell_setting            triclinic
loop_
_symmetry_equiv_pos_as_xyz
  x,y,z
_cell_length_a                    32.5983
_cell_length_b                    28.9891
_cell_length_c                    29.8736
_cell_angle_alpha                 89.7980
_cell_angle_beta                  90.8476
_cell_angle_gamma                 92.1102
loop_
_atom_site_label
_atom_site_type_symbol
_atom_site_fract_x
_atom_site_fract_y
_atom_site_fract_z
_atom_site_U_iso_or_equiv
_atom_site_adp_type
_atom_site_occupancy
C1     C     0.08775   0.16595   0.25487   0.00000  Uiso   1.00
C2     C     0.24600   0.16742   0.24748   0.00000  Uiso   1.00
C3     C     0.08668   0.17569   0.01907   0.00000  Uiso   1.00
C4     C     0.23160   0.22004   0.47868   0.00000  Uiso   1.00
C5     C     0.01936   0.12418   0.25292   0.00000  Uiso   1.00
C6     C     0.31462   0.20921   0.25678   0.00000  Uiso   1.00
C7     C     0.31153   0.12666   0.24060   0.00000  Uiso   1.00
C8     C     0.02303   0.20657   0.26741   0.00000  Uiso   1.00
C9     C     0.29124   0.16847   0.24620   0.00000  Uiso   1.00
C10    C     0.04296   0.16498   0.26048   0.00000  Uiso   1.00
C11    C     0.14575   0.02382   0.21757   0.00000  Uiso   1.00
C12    C     0.18418   0.30965   0.28475   0.00000  Uiso   1.00
C13    C     0.18711   0.02584   0.28271   0.00000  Uiso   1.00
C14    C     0.14957   0.30812   0.21520   0.00000  Uiso   1.00
C15    C     0.16561   0.16705   0.16435   0.00000  Uiso   1.00
C16    C     0.16731   0.16665   0.33561   0.00000  Uiso   1.00
C17    C     0.20278   0.18628   0.40767   0.00000  Uiso   1.00
C18    C     0.12518   0.17307   0.09302   0.00000  Uiso   1.00
C19    C     0.16794   0.16777   0.38448   0.00000  Uiso   1.00
C20    C     0.16365   0.16985   0.11538   0.00000  Uiso   1.00
C21    C     0.13156   0.15718   0.40711   0.00000  Uiso   1.00
C22    C     0.20011   0.18076   0.09261   0.00000  Uiso   1.00
C23    C     0.12768   0.17082   0.45172   0.00000  Uiso   1.00
C24    C     0.19821   0.19453   0.04753   0.00000  Uiso   1.00
C25    C     0.16312   0.18411   0.47626   0.00000  Uiso   1.00
C26    C     0.16156   0.18511   0.02317   0.00000  Uiso   1.00
C27    C     0.20018   0.19579   0.45404   0.00000  Uiso   1.00
C28    C     0.12375   0.17680   0.04553   0.00000  Uiso   1.00
C29    C     0.08928   0.17417   0.47197   0.00000  Uiso   1.00
C30    C     0.23053   0.21936   0.02597   0.00000  Uiso   1.00
Cu31   Cu    0.16667   0.21355   0.25000   0.00000  Uiso   1.00
Cu32   Cu    0.16667   0.11978   0.25000   0.00000  Uiso   1.00
N33    N     0.16667   0.28402   0.25000   0.00000  Uiso   1.00
N34    N     0.16667   0.04931   0.25000   0.00000  Uiso   1.00
O35    O     0.10655   0.20625   0.24999   0.00000  Uiso   1.00
O36    O     0.22679   0.12709   0.25000   0.00000  Uiso   1.00
O37    O     0.22679   0.20625   0.25000   0.00000  Uiso   1.00
O38    O     0.10655   0.12709   0.24999   0.00000  Uiso   1.00
O39    O     0.16666   0.20627   0.18513   0.00000  Uiso   1.00
O40    O     0.16668   0.12707   0.31487   0.00000  Uiso   1.00
O41    O     0.16668   0.20627   0.31487   0.00000  Uiso   1.00
O42    O     0.16666   0.12707   0.18513   0.00000  Uiso   1.00
N43    N     0.24138   0.18887   0.38576   0.00000  Uiso   1.00
H44    H     0.24038   0.19753   0.35228   0.00000  Uiso   1.00
C45    C     0.26660   0.14980   0.39479   0.00000  Uiso   1.00
H46    H     0.29482   0.15261   0.37443   0.00000  Uiso   1.00
H47    H     0.24950   0.11715   0.38620   0.00000  Uiso   1.00
H48    H     0.27567   0.14893   0.43076   0.00000  Uiso   1.00
N49    N     0.08897   0.17689   0.11847   0.00000  Uiso   1.00
H50    H     0.09061   0.20294   0.14181   0.00000  Uiso   1.00
C51    C     0.07187   0.13433   0.13648   0.00000  Uiso   1.00
H52    H     0.03964   0.13931   0.14638   0.00000  Uiso   1.00
H53    H     0.08936   0.12482   0.16669   0.00000  Uiso   1.00
H54    H     0.07226   0.10623   0.11128   0.00000  Uiso   1.00
I55    I     0.09080   0.10474   0.38018   0.00000  Uiso   1.00
I56    I     0.25739   0.16644   0.12441   0.00000  Uiso   1.00
I57    I     0.03865   0.19507   0.43069   0.00000  Uiso   1.00
I58    I     0.26655   0.27008   0.06327   0.00000  Uiso   1.00
I59    I     0.02549   0.17656   0.04510   0.00000  Uiso   1.00
I60    I     0.27372   0.26734   0.44568   0.00000  Uiso   1.00
I61    I     0.03890   0.05924   0.27711   0.00000  Uiso   1.00
I62    I     0.29222   0.27670   0.24624   0.00000  Uiso   1.00
I63    I     0.28527   0.06934   0.20319   0.00000  Uiso   1.00
I64    I     0.05284   0.26192   0.30483   0.00000  Uiso   1.00
N65    N     0.12069   0.04653   0.18553   0.00000  Uiso   1.00
H66    H     0.13566   0.05523   0.15639   0.00000  Uiso   1.00
C67    C     0.07918   0.02760   0.17790   0.00000  Uiso   1.00
H68    H     0.05684   0.05518   0.18013   0.00000  Uiso   1.00
H69    H     0.07034   0.00091   0.20310   0.00000  Uiso   1.00
H70    H     0.07599   0.01246   0.14391   0.00000  Uiso   1.00
N71    N     0.19853   0.28701   0.32385   0.00000  Uiso   1.00
H72    H     0.22995   0.28552   0.32712   0.00000  Uiso   1.00
C73    C     0.17733   0.29689   0.36501   0.00000  Uiso   1.00
H74    H     0.19808   0.31673   0.38829   0.00000  Uiso   1.00
H75    H     0.16764   0.26436   0.38173   0.00000  Uiso   1.00
H76    H     0.14916   0.31662   0.35869   0.00000  Uiso   1.00
N77    N     0.20900   0.05145   0.31649   0.00000  Uiso   1.00
H78    H     0.19425   0.05388   0.34660   0.00000  Uiso   1.00
C79    C     0.25289   0.04606   0.32024   0.00000  Uiso   1.00
H80    H     0.26877   0.08050   0.31880   0.00000  Uiso   1.00
H81    H     0.26441   0.02506   0.29267   0.00000  Uiso   1.00
H82    H     0.26073   0.02935   0.35261   0.00000  Uiso   1.00
N83    N     0.13615   0.28423   0.17599   0.00000  Uiso   1.00
H84    H     0.10566   0.27381   0.17408   0.00000  Uiso   1.00
C85    C     0.15612   0.29692   0.13438   0.00000  Uiso   1.00
H86    H     0.13582   0.31812   0.11326   0.00000  Uiso   1.00
H87    H     0.16248   0.26542   0.11533   0.00000  Uiso   1.00
H88    H     0.18580   0.31620   0.14052   0.00000  Uiso   1.00
C89    C     0.42109   0.16595   0.25487   0.00000  Uiso   1.00
C90    C     0.57933   0.16742   0.24748   0.00000  Uiso   1.00
C91    C     0.42001   0.17569   0.01907   0.00000  Uiso   1.00
C92    C     0.56493   0.22004   0.47868   0.00000  Uiso   1.00
C93    C     0.35269   0.12418   0.25292   0.00000  Uiso   1.00
C94    C     0.64796   0.20921   0.25678   0.00000  Uiso   1.00
C95    C     0.64487   0.12666   0.24060   0.00000  Uiso   1.00
C96    C     0.35636   0.20657   0.26741   0.00000  Uiso   1.00
C97    C     0.62458   0.16847   0.24620   0.00000  Uiso   1.00
C98    C     0.37629   0.16498   0.26048   0.00000  Uiso   1.00
C99    C     0.47908   0.02382   0.21757   0.00000  Uiso   1.00
C100   C     0.51752   0.30965   0.28475   0.00000  Uiso   1.00
C101   C     0.52045   0.02584   0.28271   0.00000  Uiso   1.00
C102   C     0.48291   0.30812   0.21520   0.00000  Uiso   1.00
C103   C     0.49894   0.16705   0.16435   0.00000  Uiso   1.00
C104   C     0.50064   0.16665   0.33561   0.00000  Uiso   1.00
C105   C     0.53612   0.18628   0.40767   0.00000  Uiso   1.00
C106   C     0.45851   0.17307   0.09302   0.00000  Uiso   1.00
C107   C     0.50127   0.16777   0.38448   0.00000  Uiso   1.00
C108   C     0.49698   0.16985   0.11538   0.00000  Uiso   1.00
C109   C     0.46489   0.15718   0.40711   0.00000  Uiso   1.00
C110   C     0.53345   0.18076   0.09261   0.00000  Uiso   1.00
C111   C     0.46102   0.17082   0.45172   0.00000  Uiso   1.00
C112   C     0.53154   0.19453   0.04753   0.00000  Uiso   1.00
C113   C     0.49645   0.18411   0.47626   0.00000  Uiso   1.00
C114   C     0.49489   0.18511   0.02317   0.00000  Uiso   1.00
C115   C     0.53351   0.19579   0.45404   0.00000  Uiso   1.00
C116   C     0.45708   0.17680   0.04553   0.00000  Uiso   1.00
C117   C     0.42261   0.17417   0.47197   0.00000  Uiso   1.00
C118   C     0.56386   0.21936   0.02597   0.00000  Uiso   1.00
Cu119  Cu    0.50000   0.21355   0.25000   0.00000  Uiso   1.00
Cu120  Cu    0.50000   0.11978   0.25000   0.00000  Uiso   1.00
N121   N     0.50000   0.28402   0.25000   0.00000  Uiso   1.00
N122   N     0.50000   0.04931   0.25000   0.00000  Uiso   1.00
O123   O     0.43988   0.20625   0.24999   0.00000  Uiso   1.00
O124   O     0.56012   0.12709   0.25000   0.00000  Uiso   1.00
O125   O     0.56012   0.20625   0.25000   0.00000  Uiso   1.00
O126   O     0.43988   0.12709   0.24999   0.00000  Uiso   1.00
O127   O     0.49999   0.20627   0.18513   0.00000  Uiso   1.00
O128   O     0.50001   0.12707   0.31487   0.00000  Uiso   1.00
O129   O     0.50001   0.20627   0.31487   0.00000  Uiso   1.00
O130   O     0.49999   0.12707   0.18513   0.00000  Uiso   1.00
N131   N     0.57471   0.18887   0.38576   0.00000  Uiso   1.00
H132   H     0.57371   0.19753   0.35228   0.00000  Uiso   1.00
C133   C     0.59993   0.14980   0.39479   0.00000  Uiso   1.00
H134   H     0.62815   0.15261   0.37443   0.00000  Uiso   1.00
H135   H     0.58283   0.11715   0.38620   0.00000  Uiso   1.00
H136   H     0.60901   0.14893   0.43076   0.00000  Uiso   1.00
N137   N     0.42231   0.17689   0.11847   0.00000  Uiso   1.00
H138   H     0.42395   0.20294   0.14181   0.00000  Uiso   1.00
C139   C     0.40520   0.13433   0.13648   0.00000  Uiso   1.00
H140   H     0.37297   0.13931   0.14638   0.00000  Uiso   1.00
H141   H     0.42269   0.12482   0.16669   0.00000  Uiso   1.00
H142   H     0.40559   0.10623   0.11128   0.00000  Uiso   1.00
I143   I     0.42413   0.10474   0.38018   0.00000  Uiso   1.00
I144   I     0.59072   0.16644   0.12441   0.00000  Uiso   1.00
I145   I     0.37199   0.19507   0.43069   0.00000  Uiso   1.00
I146   I     0.59989   0.27008   0.06327   0.00000  Uiso   1.00
I147   I     0.35883   0.17656   0.04510   0.00000  Uiso   1.00
I148   I     0.60706   0.26734   0.44568   0.00000  Uiso   1.00
I149   I     0.37223   0.05924   0.27711   0.00000  Uiso   1.00
I150   I     0.62555   0.27670   0.24624   0.00000  Uiso   1.00
I151   I     0.61860   0.06934   0.20319   0.00000  Uiso   1.00
I152   I     0.38617   0.26192   0.30483   0.00000  Uiso   1.00
N153   N     0.45402   0.04653   0.18553   0.00000  Uiso   1.00
H154   H     0.46900   0.05523   0.15639   0.00000  Uiso   1.00
C155   C     0.41251   0.02760   0.17790   0.00000  Uiso   1.00
H156   H     0.39017   0.05518   0.18013   0.00000  Uiso   1.00
H157   H     0.40367   0.00091   0.20310   0.00000  Uiso   1.00
H158   H     0.40933   0.01246   0.14391   0.00000  Uiso   1.00
N159   N     0.53186   0.28701   0.32385   0.00000  Uiso   1.00
H160   H     0.56328   0.28552   0.32712   0.00000  Uiso   1.00
C161   C     0.51066   0.29689   0.36501   0.00000  Uiso   1.00
H162   H     0.53141   0.31673   0.38829   0.00000  Uiso   1.00
H163   H     0.50098   0.26436   0.38173   0.00000  Uiso   1.00
H164   H     0.48249   0.31662   0.35869   0.00000  Uiso   1.00
N165   N     0.54234   0.05145   0.31649   0.00000  Uiso   1.00
H166   H     0.52758   0.05388   0.34660   0.00000  Uiso   1.00
C167   C     0.58622   0.04606   0.32024   0.00000  Uiso   1.00
H168   H     0.60210   0.08050   0.31880   0.00000  Uiso   1.00
H169   H     0.59775   0.02506   0.29267   0.00000  Uiso   1.00
H170   H     0.59407   0.02935   0.35261   0.00000  Uiso   1.00
N171   N     0.46948   0.28423   0.17599   0.00000  Uiso   1.00
H172   H     0.43899   0.27381   0.17408   0.00000  Uiso   1.00
C173   C     0.48945   0.29692   0.13438   0.00000  Uiso   1.00
H174   H     0.46915   0.31812   0.11326   0.00000  Uiso   1.00
H175   H     0.49581   0.26542   0.11533   0.00000  Uiso   1.00
H176   H     0.51913   0.31620   0.14052   0.00000  Uiso   1.00
C177   C     0.75442   0.16595   0.25487   0.00000  Uiso   1.00
C178   C     0.91267   0.16742   0.24748   0.00000  Uiso   1.00
C179   C     0.75335   0.17569   0.01907   0.00000  Uiso   1.00
C180   C     0.89826   0.22004   0.47868   0.00000  Uiso   1.00
C181   C     0.68602   0.12418   0.25292   0.00000  Uiso   1.00
C182   C     0.98129   0.20921   0.25678   0.00000  Uiso   1.00
C183   C     0.97820   0.12666   0.24060   0.00000  Uiso   1.00
C184   C     0.68969   0.20657   0.26741   0.00000  Uiso   1.00
C185   C     0.95791   0.16847   0.24620   0.00000  Uiso   1.00
C186   C     0.70962   0.16498   0.26048   0.00000  Uiso   1.00
C187   C     0.81242   0.02382   0.21757   0.00000  Uiso   1.00
C188   C     0.85085   0.30965   0.28475   0.00000  Uiso   1.00
C189   C     0.85378   0.02584   0.28271   0.00000  Uiso   1.00
C190   C     0.81624   0.30812   0.21520   0.00000  Uiso   1.00
C191   C     0.83227   0.16705   0.16435   0.00000  Uiso   1.00
C192   C     0.83397   0.16665   0.33561   0.00000  Uiso   1.00
C193   C     0.86945   0.18628   0.40767   0.00000  Uiso   1.00
C194   C     0.79184   0.17307   0.09302   0.00000  Uiso   1.00
C195   C     0.83460   0.16777   0.38448   0.00000  Uiso   1.00
C196   C     0.83032   0.16985   0.11538   0.00000  Uiso   1.00
C197   C     0.79822   0.15718   0.40711   0.00000  Uiso   1.00
C198   C     0.86678   0.18076   0.09261   0.00000  Uiso   1.00
C199   C     0.79435   0.17082   0.45172   0.00000  Uiso   1.00
C200   C     0.86487   0.19453   0.04753   0.00000  Uiso   1.00
C201   C     0.82979   0.18411   0.47626   0.00000  Uiso   1.00
C202   C     0.82822   0.18511   0.02317   0.00000  Uiso   1.00
C203   C     0.86684   0.19579   0.45404   0.00000  Uiso   1.00
C204   C     0.79042   0.17680   0.04553   0.00000  Uiso   1.00
C205   C     0.75595   0.17417   0.47197   0.00000  Uiso   1.00
C206   C     0.89719   0.21936   0.02597   0.00000  Uiso   1.00
Cu207  Cu    0.83333   0.21355   0.25000   0.00000  Uiso   1.00
Cu208  Cu    0.83333   0.11978   0.25000   0.00000  Uiso   1.00
N209   N     0.83333   0.28402   0.25000   0.00000  Uiso   1.00
N210   N     0.83333   0.04931   0.25000   0.00000  Uiso   1.00
O211   O     0.77321   0.20625   0.24999   0.00000  Uiso   1.00
O212   O     0.89345   0.12709   0.25000   0.00000  Uiso   1.00
O213   O     0.89345   0.20625   0.25000   0.00000  Uiso   1.00
O214   O     0.77321   0.12709   0.24999   0.00000  Uiso   1.00
O215   O     0.83332   0.20627   0.18513   0.00000  Uiso   1.00
O216   O     0.83334   0.12707   0.31487   0.00000  Uiso   1.00
O217   O     0.83334   0.20627   0.31487   0.00000  Uiso   1.00
O218   O     0.83332   0.12707   0.18513   0.00000  Uiso   1.00
N219   N     0.90804   0.18887   0.38576   0.00000  Uiso   1.00
H220   H     0.90705   0.19753   0.35228   0.00000  Uiso   1.00
C221   C     0.93327   0.14980   0.39479   0.00000  Uiso   1.00
H222   H     0.96148   0.15261   0.37443   0.00000  Uiso   1.00
H223   H     0.91616   0.11715   0.38620   0.00000  Uiso   1.00
H224   H     0.94234   0.14893   0.43076   0.00000  Uiso   1.00
N225   N     0.75564   0.17689   0.11847   0.00000  Uiso   1.00
H226   H     0.75728   0.20294   0.14181   0.00000  Uiso   1.00
C227   C     0.73854   0.13433   0.13648   0.00000  Uiso   1.00
H228   H     0.70631   0.13931   0.14638   0.00000  Uiso   1.00
H229   H     0.75602   0.12482   0.16669   0.00000  Uiso   1.00
H230   H     0.73893   0.10623   0.11128   0.00000  Uiso   1.00
I231   I     0.75747   0.10474   0.38018   0.00000  Uiso   1.00
I232   I     0.92406   0.16644   0.12441   0.00000  Uiso   1.00
I233   I     0.70532   0.19507   0.43069   0.00000  Uiso   1.00
I234   I     0.93322   0.27008   0.06327   0.00000  Uiso   1.00
I235   I     0.69216   0.17656   0.04510   0.00000  Uiso   1.00
I236   I     0.94039   0.26734   0.44568   0.00000  Uiso   1.00
I237   I     0.70557   0.05924   0.27711   0.00000  Uiso   1.00
I238   I     0.95889   0.27670   0.24624   0.00000  Uiso   1.00
I239   I     0.95193   0.06934   0.20319   0.00000  Uiso   1.00
I240   I     0.71950   0.26192   0.30483   0.00000  Uiso   1.00
N241   N     0.78736   0.04653   0.18553   0.00000  Uiso   1.00
H242   H     0.80233   0.05523   0.15639   0.00000  Uiso   1.00
C243   C     0.74585   0.02760   0.17790   0.00000  Uiso   1.00
H244   H     0.72350   0.05518   0.18013   0.00000  Uiso   1.00
H245   H     0.73701   0.00091   0.20310   0.00000  Uiso   1.00
H246   H     0.74266   0.01246   0.14391   0.00000  Uiso   1.00
N247   N     0.86520   0.28701   0.32385   0.00000  Uiso   1.00
H248   H     0.89662   0.28552   0.32712   0.00000  Uiso   1.00
C249   C     0.84399   0.29689   0.36501   0.00000  Uiso   1.00
H250   H     0.86475   0.31673   0.38829   0.00000  Uiso   1.00
H251   H     0.83431   0.26436   0.38173   0.00000  Uiso   1.00
H252   H     0.81582   0.31662   0.35869   0.00000  Uiso   1.00
N253   N     0.87567   0.05145   0.31649   0.00000  Uiso   1.00
H254   H     0.86092   0.05388   0.34660   0.00000  Uiso   1.00
C255   C     0.91956   0.04606   0.32024   0.00000  Uiso   1.00
H256   H     0.93543   0.08050   0.31880   0.00000  Uiso   1.00
H257   H     0.93108   0.02506   0.29267   0.00000  Uiso   1.00
H258   H     0.92740   0.02935   0.35261   0.00000  Uiso   1.00
N259   N     0.80281   0.28423   0.17599   0.00000  Uiso   1.00
H260   H     0.77232   0.27381   0.17408   0.00000  Uiso   1.00
C261   C     0.82278   0.29692   0.13438   0.00000  Uiso   1.00
H262   H     0.80248   0.31812   0.11326   0.00000  Uiso   1.00
H263   H     0.82915   0.26542   0.11533   0.00000  Uiso   1.00
H264   H     0.85246   0.31620   0.14052   0.00000  Uiso   1.00
C265   C     0.08775   0.49928   0.25487   0.00000  Uiso   1.00
C266   C     0.24600   0.50075   0.24748   0.00000  Uiso   1.00
C267   C     0.08668   0.50903   0.01907   0.00000  Uiso   1.00
C268   C     0.23160   0.55338   0.47868   0.00000  Uiso   1.00
C269   C     0.01936   0.45752   0.25292   0.00000  Uiso   1.00
C270   C     0.31462   0.54254   0.25678   0.00000  Uiso   1.00
C271   C     0.31153   0.45999   0.24060   0.00000  Uiso   1.00
C272   C     0.02303   0.53990   0.26741   0.00000  Uiso   1.00
C273   C     0.29124   0.50180   0.24620   0.00000  Uiso   1.00
C274   C     0.04296   0.49832   0.26048   0.00000  Uiso   1.00
C275   C     0.14575   0.35715   0.21757   0.00000  Uiso   1.00
C276   C     0.18418   0.64299   0.28475   0.00000  Uiso   1.00
C277   C     0.18711   0.35917   0.28271   0.00000  Uiso   1.00
C278   C     0.14957   0.64146   0.21520   0.00000  Uiso   1.00
C279   C     0.16561   0.50038   0.16435   0.00000  Uiso   1.00
C280   C     0.16731   0.49998   0.33561   0.00000  Uiso   1.00
C281   C     0.20278   0.51962   0.40767   0.00000  Uiso   1.00
C282   C     0.12518   0.50640   0.09302   0.00000  Uiso   1.00
C283   C     0.16794   0.50111   0.38448   0.00000  Uiso   1.00
C284   C     0.16365   0.50319   0.11538   0.00000  Uiso   1.00
C285   C     0.13156   0.49051   0.40711   0.00000  Uiso   1.00
C286   C     0.20011   0.51410   0.09261   0.00000  Uiso   1.00
C287   C     0.12768   0.50415   0.45172   0.00000  Uiso   1.00
C288   C     0.19821   0.52786   0.04753   0.00000  Uiso   1.00
C289   C     0.16312   0.51744   0.47626   0.00000  Uiso   1.00
C290   C     0.16156   0.51845   0.02317   0.00000  Uiso   1.00
C291   C     0.20018   0.52912   0.45404   0.00000  Uiso   1.00
C292   C     0.12375   0.51014   0.04553   0.00000  Uiso   1.00
C293   C     0.08928   0.50750   0.47197   0.00000  Uiso   1.00
C294   C     0.23053   0.55269   0.02597   0.00000  Uiso   1.00
Cu295  Cu    0.16667   0.54689   0.25000   0.00000  Uiso   1.00
Cu296  Cu    0.16667   0.45311   0.25000   0.00000  Uiso   1.00
N297   N     0.16667   0.61736   0.25000   0.00000  Uiso   1.00
N298   N     0.16667   0.38264   0.25000   0.00000  Uiso   1.00
O299   O     0.10655   0.53958   0.24999   0.00000  Uiso   1.00
O300   O     0.22679   0.46042   0.25000   0.00000  Uiso   1.00
O301   O     0.22679   0.53958   0.25000   0.00000  Uiso   1.00
O302   O     0.10655   0.46042   0.24999   0.00000  Uiso   1.00
O303   O     0.16666   0.53960   0.18513   0.00000  Uiso   1.00
O304   O     0.16668   0.46040   0.31487   0.00000  Uiso   1.00
O305   O     0.16668   0.53960   0.31487   0.00000  Uiso   1.00
O306   O     0.16666   0.46040   0.18513   0.00000  Uiso   1.00
N307   N     0.24138   0.52220   0.38576   0.00000  Uiso   1.00
H308   H     0.24038   0.53087   0.35228   0.00000  Uiso   1.00
C309   C     0.26660   0.48314   0.39479   0.00000  Uiso   1.00
H310   H     0.29482   0.48594   0.37443   0.00000  Uiso   1.00
H311   H     0.24950   0.45048   0.38620   0.00000  Uiso   1.00
H312   H     0.27567   0.48227   0.43076   0.00000  Uiso   1.00
N313   N     0.08897   0.51022   0.11847   0.00000  Uiso   1.00
H314   H     0.09061   0.53628   0.14181   0.00000  Uiso   1.00
C315   C     0.07187   0.46766   0.13648   0.00000  Uiso   1.00
H316   H     0.03964   0.47264   0.14638   0.00000  Uiso   1.00
H317   H     0.08936   0.45816   0.16669   0.00000  Uiso   1.00
H318   H     0.07226   0.43956   0.11128   0.00000  Uiso   1.00
I319   I     0.09080   0.43807   0.38018   0.00000  Uiso   1.00
I320   I     0.25739   0.49977   0.12441   0.00000  Uiso   1.00
I321   I     0.03865   0.52841   0.43069   0.00000  Uiso   1.00
I322   I     0.26655   0.60341   0.06327   0.00000  Uiso   1.00
I323   I     0.02549   0.50989   0.04510   0.00000  Uiso   1.00
I324   I     0.27372   0.60067   0.44568   0.00000  Uiso   1.00
I325   I     0.03890   0.39257   0.27711   0.00000  Uiso   1.00
I326   I     0.29222   0.61003   0.24624   0.00000  Uiso   1.00
I327   I     0.28527   0.40268   0.20319   0.00000  Uiso   1.00
I328   I     0.05284   0.59525   0.30483   0.00000  Uiso   1.00
N329   N     0.12069   0.37986   0.18553   0.00000  Uiso   1.00
H330   H     0.13566   0.38856   0.15639   0.00000  Uiso   1.00
C331   C     0.07918   0.36093   0.17790   0.00000  Uiso   1.00
H332   H     0.05684   0.38851   0.18013   0.00000  Uiso   1.00
H333   H     0.07034   0.33425   0.20310   0.00000  Uiso   1.00
H334   H     0.07599   0.34579   0.14391   0.00000  Uiso   1.00
N335   N     0.19853   0.62034   0.32385   0.00000  Uiso   1.00
H336   H     0.22995   0.61885   0.32712   0.00000  Uiso   1.00
C337   C     0.17733   0.63023   0.36501   0.00000  Uiso   1.00
H338   H     0.19808   0.65006   0.38829   0.00000  Uiso   1.00
H339   H     0.16764   0.59769   0.38173   0.00000  Uiso   1.00
H340   H     0.14916   0.64995   0.35869   0.00000  Uiso   1.00
N341   N     0.20900   0.38478   0.31649   0.00000  Uiso   1.00
H342   H     0.19425   0.38721   0.34660   0.00000  Uiso   1.00
C343   C     0.25289   0.37940   0.32024   0.00000  Uiso   1.00
H344   H     0.26877   0.41383   0.31880   0.00000  Uiso   1.00
H345   H     0.26441   0.35839   0.29267   0.00000  Uiso   1.00
H346   H     0.26073   0.36268   0.35261   0.00000  Uiso   1.00
N347   N     0.13615   0.61757   0.17599   0.00000  Uiso   1.00
H348   H     0.10566   0.60714   0.17408   0.00000  Uiso   1.00
C349   C     0.15612   0.63025   0.13438   0.00000  Uiso   1.00
H350   H     0.13582   0.65145   0.11326   0.00000  Uiso   1.00
H351   H     0.16248   0.59875   0.11533   0.00000  Uiso   1.00
H352   H     0.18580   0.64954   0.14052   0.00000  Uiso   1.00
C353   C     0.42109   0.49928   0.25487   0.00000  Uiso   1.00
C354   C     0.57933   0.50075   0.24748   0.00000  Uiso   1.00
C355   C     0.42001   0.50903   0.01907   0.00000  Uiso   1.00
C356   C     0.56493   0.55338   0.47868   0.00000  Uiso   1.00
C357   C     0.35269   0.45752   0.25292   0.00000  Uiso   1.00
C358   C     0.64796   0.54254   0.25678   0.00000  Uiso   1.00
C359   C     0.64487   0.45999   0.24060   0.00000  Uiso   1.00
C360   C     0.35636   0.53990   0.26741   0.00000  Uiso   1.00
C361   C     0.62458   0.50180   0.24620   0.00000  Uiso   1.00
C362   C     0.37629   0.49832   0.26048   0.00000  Uiso   1.00
C363   C     0.47908   0.35715   0.21757   0.00000  Uiso   1.00
C364   C     0.51752   0.64299   0.28475   0.00000  Uiso   1.00
C365   C     0.52045   0.35917   0.28271   0.00000  Uiso   1.00
C366   C     0.48291   0.64146   0.21520   0.00000  Uiso   1.00
C367   C     0.49894   0.50038   0.16435   0.00000  Uiso   1.00
C368   C     0.50064   0.49998   0.33561   0.00000  Uiso   1.00
C369   C     0.53612   0.51962   0.40767   0.00000  Uiso   1.00
C370   C     0.45851   0.50640   0.09302   0.00000  Uiso   1.00
C371   C     0.50127   0.50111   0.38448   0.00000  Uiso   1.00
C372   C     0.49698   0.50319   0.11538   0.00000  Uiso   1.00
C373   C     0.46489   0.49051   0.40711   0.00000  Uiso   1.00
C374   C     0.53345   0.51410   0.09261   0.00000  Uiso   1.00
C375   C     0.46102   0.50415   0.45172   0.00000  Uiso   1.00
C376   C     0.53154   0.52786   0.04753   0.00000  Uiso   1.00
C377   C     0.49645   0.51744   0.47626   0.00000  Uiso   1.00
C378   C     0.49489   0.51845   0.02317   0.00000  Uiso   1.00
C379   C     0.53351   0.52912   0.45404   0.00000  Uiso   1.00
C380   C     0.45708   0.51014   0.04553   0.00000  Uiso   1.00
C381   C     0.42261   0.50750   0.47197   0.00000  Uiso   1.00
C382   C     0.56386   0.55269   0.02597   0.00000  Uiso   1.00
Cu383  Cu    0.50000   0.54689   0.25000   0.00000  Uiso   1.00
Cu384  Cu    0.50000   0.45311   0.25000   0.00000  Uiso   1.00
N385   N     0.50000   0.61736   0.25000   0.00000  Uiso   1.00
N386   N     0.50000   0.38264   0.25000   0.00000  Uiso   1.00
O387   O     0.43988   0.53958   0.24999   0.00000  Uiso   1.00
O388   O     0.56012   0.46042   0.25000   0.00000  Uiso   1.00
O389   O     0.56012   0.53958   0.25000   0.00000  Uiso   1.00
O390   O     0.43988   0.46042   0.24999   0.00000  Uiso   1.00
O391   O     0.49999   0.53960   0.18513   0.00000  Uiso   1.00
O392   O     0.50001   0.46040   0.31487   0.00000  Uiso   1.00
O393   O     0.50001   0.53960   0.31487   0.00000  Uiso   1.00
O394   O     0.49999   0.46040   0.18513   0.00000  Uiso   1.00
N395   N     0.57471   0.52220   0.38576   0.00000  Uiso   1.00
H396   H     0.57371   0.53087   0.35228   0.00000  Uiso   1.00
C397   C     0.59993   0.48314   0.39479   0.00000  Uiso   1.00
H398   H     0.62815   0.48594   0.37443   0.00000  Uiso   1.00
H399   H     0.58283   0.45048   0.38620   0.00000  Uiso   1.00
H400   H     0.60901   0.48227   0.43076   0.00000  Uiso   1.00
N401   N     0.42231   0.51022   0.11847   0.00000  Uiso   1.00
H402   H     0.42395   0.53628   0.14181   0.00000  Uiso   1.00
C403   C     0.40520   0.46766   0.13648   0.00000  Uiso   1.00
H404   H     0.37297   0.47264   0.14638   0.00000  Uiso   1.00
H405   H     0.42269   0.45816   0.16669   0.00000  Uiso   1.00
H406   H     0.40559   0.43956   0.11128   0.00000  Uiso   1.00
I407   I     0.42413   0.43807   0.38018   0.00000  Uiso   1.00
I408   I     0.59072   0.49977   0.12441   0.00000  Uiso   1.00
I409   I     0.37199   0.52841   0.43069   0.00000  Uiso   1.00
I410   I     0.59989   0.60341   0.06327   0.00000  Uiso   1.00
I411   I     0.35883   0.50989   0.04510   0.00000  Uiso   1.00
I412   I     0.60706   0.60067   0.44568   0.00000  Uiso   1.00
I413   I     0.37223   0.39257   0.27711   0.00000  Uiso   1.00
I414   I     0.62555   0.61003   0.24624   0.00000  Uiso   1.00
I415   I     0.61860   0.40268   0.20319   0.00000  Uiso   1.00
I416   I     0.38617   0.59525   0.30483   0.00000  Uiso   1.00
N417   N     0.45402   0.37986   0.18553   0.00000  Uiso   1.00
H418   H     0.46900   0.38856   0.15639   0.00000  Uiso   1.00
C419   C     0.41251   0.36093   0.17790   0.00000  Uiso   1.00
H420   H     0.39017   0.38851   0.18013   0.00000  Uiso   1.00
H421   H     0.40367   0.33425   0.20310   0.00000  Uiso   1.00
H422   H     0.40933   0.34579   0.14391   0.00000  Uiso   1.00
N423   N     0.53186   0.62034   0.32385   0.00000  Uiso   1.00
H424   H     0.56328   0.61885   0.32712   0.00000  Uiso   1.00
C425   C     0.51066   0.63023   0.36501   0.00000  Uiso   1.00
H426   H     0.53141   0.65006   0.38829   0.00000  Uiso   1.00
H427   H     0.50098   0.59769   0.38173   0.00000  Uiso   1.00
H428   H     0.48249   0.64995   0.35869   0.00000  Uiso   1.00
N429   N     0.54234   0.38478   0.31649   0.00000  Uiso   1.00
H430   H     0.52758   0.38721   0.34660   0.00000  Uiso   1.00
C431   C     0.58622   0.37940   0.32024   0.00000  Uiso   1.00
H432   H     0.60210   0.41383   0.31880   0.00000  Uiso   1.00
H433   H     0.59775   0.35839   0.29267   0.00000  Uiso   1.00
H434   H     0.59407   0.36268   0.35261   0.00000  Uiso   1.00
N435   N     0.46948   0.61757   0.17599   0.00000  Uiso   1.00
H436   H     0.43899   0.60714   0.17408   0.00000  Uiso   1.00
C437   C     0.48945   0.63025   0.13438   0.00000  Uiso   1.00
H438   H     0.46915   0.65145   0.11326   0.00000  Uiso   1.00
H439   H     0.49581   0.59875   0.11533   0.00000  Uiso   1.00
H440   H     0.51913   0.64954   0.14052   0.00000  Uiso   1.00
C441   C     0.75442   0.49928   0.25487   0.00000  Uiso   1.00
C442   C     0.91267   0.50075   0.24748   0.00000  Uiso   1.00
C443   C     0.75335   0.50903   0.01907   0.00000  Uiso   1.00
C444   C     0.89826   0.55338   0.47868   0.00000  Uiso   1.00
C445   C     0.68602   0.45752   0.25292   0.00000  Uiso   1.00
C446   C     0.98129   0.54254   0.25678   0.00000  Uiso   1.00
C447   C     0.97820   0.45999   0.24060   0.00000  Uiso   1.00
C448   C     0.68969   0.53990   0.26741   0.00000  Uiso   1.00
C449   C     0.95791   0.50180   0.24620   0.00000  Uiso   1.00
C450   C     0.70962   0.49832   0.26048   0.00000  Uiso   1.00
C451   C     0.81242   0.35715   0.21757   0.00000  Uiso   1.00
C452   C     0.85085   0.64299   0.28475   0.00000  Uiso   1.00
C453   C     0.85378   0.35917   0.28271   0.00000  Uiso   1.00
C454   C     0.81624   0.64146   0.21520   0.00000  Uiso   1.00
C455   C     0.83227   0.50038   0.16435   0.00000  Uiso   1.00
C456   C     0.83397   0.49998   0.33561   0.00000  Uiso   1.00
C457   C     0.86945   0.51962   0.40767   0.00000  Uiso   1.00
C458   C     0.79184   0.50640   0.09302   0.00000  Uiso   1.00
C459   C     0.83460   0.50111   0.38448   0.00000  Uiso   1.00
C460   C     0.83032   0.50319   0.11538   0.00000  Uiso   1.00
C461   C     0.79822   0.49051   0.40711   0.00000  Uiso   1.00
C462   C     0.86678   0.51410   0.09261   0.00000  Uiso   1.00
C463   C     0.79435   0.50415   0.45172   0.00000  Uiso   1.00
C464   C     0.86487   0.52786   0.04753   0.00000  Uiso   1.00
C465   C     0.82979   0.51744   0.47626   0.00000  Uiso   1.00
C466   C     0.82822   0.51845   0.02317   0.00000  Uiso   1.00
C467   C     0.86684   0.52912   0.45404   0.00000  Uiso   1.00
C468   C     0.79042   0.51014   0.04553   0.00000  Uiso   1.00
C469   C     0.75595   0.50750   0.47197   0.00000  Uiso   1.00
C470   C     0.89719   0.55269   0.02597   0.00000  Uiso   1.00
Cu471  Cu    0.83333   0.54689   0.25000   0.00000  Uiso   1.00
Cu472  Cu    0.83333   0.45311   0.25000   0.00000  Uiso   1.00
N473   N     0.83333   0.61736   0.25000   0.00000  Uiso   1.00
N474   N     0.83333   0.38264   0.25000   0.00000  Uiso   1.00
O475   O     0.77321   0.53958   0.24999   0.00000  Uiso   1.00
O476   O     0.89345   0.46042   0.25000   0.00000  Uiso   1.00
O477   O     0.89345   0.53958   0.25000   0.00000  Uiso   1.00
O478   O     0.77321   0.46042   0.24999   0.00000  Uiso   1.00
O479   O     0.83332   0.53960   0.18513   0.00000  Uiso   1.00
O480   O     0.83334   0.46040   0.31487   0.00000  Uiso   1.00
O481   O     0.83334   0.53960   0.31487   0.00000  Uiso   1.00
O482   O     0.83332   0.46040   0.18513   0.00000  Uiso   1.00
N483   N     0.90804   0.52220   0.38576   0.00000  Uiso   1.00
H484   H     0.90705   0.53087   0.35228   0.00000  Uiso   1.00
C485   C     0.93327   0.48314   0.39479   0.00000  Uiso   1.00
H486   H     0.96148   0.48594   0.37443   0.00000  Uiso   1.00
H487   H     0.91616   0.45048   0.38620   0.00000  Uiso   1.00
H488   H     0.94234   0.48227   0.43076   0.00000  Uiso   1.00
N489   N     0.75564   0.51022   0.11847   0.00000  Uiso   1.00
H490   H     0.75728   0.53628   0.14181   0.00000  Uiso   1.00
C491   C     0.73854   0.46766   0.13648   0.00000  Uiso   1.00
H492   H     0.70631   0.47264   0.14638   0.00000  Uiso   1.00
H493   H     0.75602   0.45816   0.16669   0.00000  Uiso   1.00
H494   H     0.73893   0.43956   0.11128   0.00000  Uiso   1.00
I495   I     0.75747   0.43807   0.38018   0.00000  Uiso   1.00
I496   I     0.92406   0.49977   0.12441   0.00000  Uiso   1.00
I497   I     0.70532   0.52841   0.43069   0.00000  Uiso   1.00
I498   I     0.93322   0.60341   0.06327   0.00000  Uiso   1.00
I499   I     0.69216   0.50989   0.04510   0.00000  Uiso   1.00
I500   I     0.94039   0.60067   0.44568   0.00000  Uiso   1.00
I501   I     0.70557   0.39257   0.27711   0.00000  Uiso   1.00
I502   I     0.95889   0.61003   0.24624   0.00000  Uiso   1.00
I503   I     0.95193   0.40268   0.20319   0.00000  Uiso   1.00
I504   I     0.71950   0.59525   0.30483   0.00000  Uiso   1.00
N505   N     0.78736   0.37986   0.18553   0.00000  Uiso   1.00
H506   H     0.80233   0.38856   0.15639   0.00000  Uiso   1.00
C507   C     0.74585   0.36093   0.17790   0.00000  Uiso   1.00
H508   H     0.72350   0.38851   0.18013   0.00000  Uiso   1.00
H509   H     0.73701   0.33425   0.20310   0.00000  Uiso   1.00
H510   H     0.74266   0.34579   0.14391   0.00000  Uiso   1.00
N511   N     0.86520   0.62034   0.32385   0.00000  Uiso   1.00
H512   H     0.89662   0.61885   0.32712   0.00000  Uiso   1.00
C513   C     0.84399   0.63023   0.36501   0.00000  Uiso   1.00
H514   H     0.86475   0.65006   0.38829   0.00000  Uiso   1.00
H515   H     0.83431   0.59769   0.38173   0.00000  Uiso   1.00
H516   H     0.81582   0.64995   0.35869   0.00000  Uiso   1.00
N517   N     0.87567   0.38478   0.31649   0.00000  Uiso   1.00
H518   H     0.86092   0.38721   0.34660   0.00000  Uiso   1.00
C519   C     0.91956   0.37940   0.32024   0.00000  Uiso   1.00
H520   H     0.93543   0.41383   0.31880   0.00000  Uiso   1.00
H521   H     0.93108   0.35839   0.29267   0.00000  Uiso   1.00
H522   H     0.92740   0.36268   0.35261   0.00000  Uiso   1.00
N523   N     0.80281   0.61757   0.17599   0.00000  Uiso   1.00
H524   H     0.77232   0.60714   0.17408   0.00000  Uiso   1.00
C525   C     0.82278   0.63025   0.13438   0.00000  Uiso   1.00
H526   H     0.80248   0.65145   0.11326   0.00000  Uiso   1.00
H527   H     0.82915   0.59875   0.11533   0.00000  Uiso   1.00
H528   H     0.85246   0.64954   0.14052   0.00000  Uiso   1.00
C529   C     0.08775   0.83262   0.25487   0.00000  Uiso   1.00
C530   C     0.24600   0.83409   0.24748   0.00000  Uiso   1.00
C531   C     0.08668   0.84236   0.01907   0.00000  Uiso   1.00
C532   C     0.23160   0.88671   0.47868   0.00000  Uiso   1.00
C533   C     0.01936   0.79085   0.25292   0.00000  Uiso   1.00
C534   C     0.31462   0.87587   0.25678   0.00000  Uiso   1.00
C535   C     0.31153   0.79332   0.24060   0.00000  Uiso   1.00
C536   C     0.02303   0.87324   0.26741   0.00000  Uiso   1.00
C537   C     0.29124   0.83513   0.24620   0.00000  Uiso   1.00
C538   C     0.04296   0.83165   0.26048   0.00000  Uiso   1.00
C539   C     0.14575   0.69049   0.21757   0.00000  Uiso   1.00
C540   C     0.18418   0.97632   0.28475   0.00000  Uiso   1.00
C541   C     0.18711   0.69250   0.28271   0.00000  Uiso   1.00
C542   C     0.14957   0.97479   0.21520   0.00000  Uiso   1.00
C543   C     0.16561   0.83372   0.16435   0.00000  Uiso   1.00
C544   C     0.16731   0.83331   0.33561   0.00000  Uiso   1.00
C545   C     0.20278   0.85295   0.40767   0.00000  Uiso   1.00
C546   C     0.12518   0.83973   0.09302   0.00000  Uiso   1.00
C547   C     0.16794   0.83444   0.38448   0.00000  Uiso   1.00
C548   C     0.16365   0.83652   0.11538   0.00000  Uiso   1.00
C549   C     0.13156   0.82384   0.40711   0.00000  Uiso   1.00
C550   C     0.20011   0.84743   0.09261   0.00000  Uiso   1.00
C551   C     0.12768   0.83748   0.45172   0.00000  Uiso   1.00
C552   C     0.19821   0.86120   0.04753   0.00000  Uiso   1.00
C553   C     0.16312   0.85077   0.47626   0.00000  Uiso   1.00
C554   C     0.16156   0.85178   0.02317   0.00000  Uiso   1.00
C555   C     0.20018   0.86245   0.45404   0.00000  Uiso   1.00
C556   C     0.12375   0.84347   0.04553   0.00000  Uiso   1.00
C557   C     0.08928   0.84083   0.47197   0.00000  Uiso   1.00
C558   C     0.23053   0.88603   0.02597   0.00000  Uiso   1.00
Cu559  Cu    0.16667   0.88022   0.25000   0.00000  Uiso   1.00
Cu560  Cu    0.16667   0.78645   0.25000   0.00000  Uiso   1.00
N561   N     0.16667   0.95069   0.25000   0.00000  Uiso   1.00
N562   N     0.16667   0.71598   0.25000   0.00000  Uiso   1.00
O563   O     0.10655   0.87291   0.24999   0.00000  Uiso   1.00
O564   O     0.22679   0.79375   0.25000   0.00000  Uiso   1.00
O565   O     0.22679   0.87291   0.25000   0.00000  Uiso   1.00
O566   O     0.10655   0.79375   0.24999   0.00000  Uiso   1.00
O567   O     0.16666   0.87293   0.18513   0.00000  Uiso   1.00
O568   O     0.16668   0.79373   0.31487   0.00000  Uiso   1.00
O569   O     0.16668   0.87293   0.31487   0.00000  Uiso   1.00
O570   O     0.16666   0.79373   0.18513   0.00000  Uiso   1.00
N571   N     0.24138   0.85554   0.38576   0.00000  Uiso   1.00
H572   H     0.24038   0.86420   0.35228   0.00000  Uiso   1.00
C573   C     0.26660   0.81647   0.39479   0.00000  Uiso   1.00
H574   H     0.29482   0.81927   0.37443   0.00000  Uiso   1.00
H575   H     0.24950   0.78382   0.38620   0.00000  Uiso   1.00
H576   H     0.27567   0.81560   0.43076   0.00000  Uiso   1.00
N577   N     0.08897   0.84356   0.11847   0.00000  Uiso   1.00
H578   H     0.09061   0.86961   0.14181   0.00000  Uiso   1.00
C579   C     0.07187   0.80099   0.13648   0.00000  Uiso   1.00
H580   H     0.03964   0.80597   0.14638   0.00000  Uiso   1.00
H581   H     0.08936   0.79149   0.16669   0.00000  Uiso   1.00
H582   H     0.07226   0.77289   0.11128   0.00000  Uiso   1.00
I583   I     0.09080   0.77141   0.38018   0.00000  Uiso   1.00
I584   I     0.25739   0.83311   0.12441   0.00000  Uiso   1.00
I585   I     0.03865   0.86174   0.43069   0.00000  Uiso   1.00
I586   I     0.26655   0.93674   0.06327   0.00000  Uiso   1.00
I587   I     0.02549   0.84323   0.04510   0.00000  Uiso   1.00
I588   I     0.27372   0.93400   0.44568   0.00000  Uiso   1.00
I589   I     0.03890   0.72590   0.27711   0.00000  Uiso   1.00
I590   I     0.29222   0.94337   0.24624   0.00000  Uiso   1.00
I591   I     0.28527   0.73601   0.20319   0.00000  Uiso   1.00
I592   I     0.05284   0.92859   0.30483   0.00000  Uiso   1.00
N593   N     0.12069   0.71319   0.18553   0.00000  Uiso   1.00
H594   H     0.13566   0.72189   0.15639   0.00000  Uiso   1.00
C595   C     0.07918   0.69426   0.17790   0.00000  Uiso   1.00
H596   H     0.05684   0.72185   0.18013   0.00000  Uiso   1.00
H597   H     0.07034   0.66758   0.20310   0.00000  Uiso   1.00
H598   H     0.07599   0.67913   0.14391   0.00000  Uiso   1.00
N599   N     0.19853   0.95367   0.32385   0.00000  Uiso   1.00
H600   H     0.22995   0.95219   0.32712   0.00000  Uiso   1.00
C601   C     0.17733   0.96356   0.36501   0.00000  Uiso   1.00
H602   H     0.19808   0.98340   0.38829   0.00000  Uiso   1.00
H603   H     0.16764   0.93103   0.38173   0.00000  Uiso   1.00
H604   H     0.14916   0.98328   0.35869   0.00000  Uiso   1.00
N605   N     0.20900   0.71812   0.31649   0.00000  Uiso   1.00
H606   H     0.19425   0.72055   0.34660   0.00000  Uiso   1.00
C607   C     0.25289   0.71273   0.32024   0.00000  Uiso   1.00
H608   H     0.26877   0.74716   0.31880   0.00000  Uiso   1.00
H609   H     0.26441   0.69172   0.29267   0.00000  Uiso   1.00
H610   H     0.26073   0.69602   0.35261   0.00000  Uiso   1.00
N611   N     0.13615   0.95090   0.17599   0.00000  Uiso   1.00
H612   H     0.10566   0.94048   0.17408   0.00000  Uiso   1.00
C613   C     0.15612   0.96358   0.13438   0.00000  Uiso   1.00
H614   H     0.13582   0.98479   0.11326   0.00000  Uiso   1.00
H615   H     0.16248   0.93208   0.11533   0.00000  Uiso   1.00
H616   H     0.18580   0.98287   0.14052   0.00000  Uiso   1.00
C617   C     0.42109   0.83262   0.25487   0.00000  Uiso   1.00
C618   C     0.57933   0.83409   0.24748   0.00000  Uiso   1.00
C619   C     0.42001   0.84236   0.01907   0.00000  Uiso   1.00
C620   C     0.56493   0.88671   0.47868   0.00000  Uiso   1.00
C621   C     0.35269   0.79085   0.25292   0.00000  Uiso   1.00
C622   C     0.64796   0.87587   0.25678   0.00000  Uiso   1.00
C623   C     0.64487   0.79332   0.24060   0.00000  Uiso   1.00
C624   C     0.35636   0.87324   0.26741   0.00000  Uiso   1.00
C625   C     0.62458   0.83513   0.24620   0.00000  Uiso   1.00
C626   C     0.37629   0.83165   0.26048   0.00000  Uiso   1.00
C627   C     0.47908   0.69049   0.21757   0.00000  Uiso   1.00
C628   C     0.51752   0.97632   0.28475   0.00000  Uiso   1.00
C629   C     0.52045   0.69250   0.28271   0.00000  Uiso   1.00
C630   C     0.48291   0.97479   0.21520   0.00000  Uiso   1.00
C631   C     0.49894   0.83372   0.16435   0.00000  Uiso   1.00
C632   C     0.50064   0.83331   0.33561   0.00000  Uiso   1.00
C633   C     0.53612   0.85295   0.40767   0.00000  Uiso   1.00
C634   C     0.45851   0.83973   0.09302   0.00000  Uiso   1.00
C635   C     0.50127   0.83444   0.38448   0.00000  Uiso   1.00
C636   C     0.49698   0.83652   0.11538   0.00000  Uiso   1.00
C637   C     0.46489   0.82384   0.40711   0.00000  Uiso   1.00
C638   C     0.53345   0.84743   0.09261   0.00000  Uiso   1.00
C639   C     0.46102   0.83748   0.45172   0.00000  Uiso   1.00
C640   C     0.53154   0.86120   0.04753   0.00000  Uiso   1.00
C641   C     0.49645   0.85077   0.47626   0.00000  Uiso   1.00
C642   C     0.49489   0.85178   0.02317   0.00000  Uiso   1.00
C643   C     0.53351   0.86245   0.45404   0.00000  Uiso   1.00
C644   C     0.45708   0.84347   0.04553   0.00000  Uiso   1.00
C645   C     0.42261   0.84083   0.47197   0.00000  Uiso   1.00
C646   C     0.56386   0.88603   0.02597   0.00000  Uiso   1.00
Cu647  Cu    0.50000   0.88022   0.25000   0.00000  Uiso   1.00
Cu648  Cu    0.50000   0.78645   0.25000   0.00000  Uiso   1.00
N649   N     0.50000   0.95069   0.25000   0.00000  Uiso   1.00
N650   N     0.50000   0.71598   0.25000   0.00000  Uiso   1.00
O651   O     0.43988   0.87291   0.24999   0.00000  Uiso   1.00
O652   O     0.56012   0.79375   0.25000   0.00000  Uiso   1.00
O653   O     0.56012   0.87291   0.25000   0.00000  Uiso   1.00
O654   O     0.43988   0.79375   0.24999   0.00000  Uiso   1.00
O655   O     0.49999   0.87293   0.18513   0.00000  Uiso   1.00
O656   O     0.50001   0.79373   0.31487   0.00000  Uiso   1.00
O657   O     0.50001   0.87293   0.31487   0.00000  Uiso   1.00
O658   O     0.49999   0.79373   0.18513   0.00000  Uiso   1.00
N659   N     0.57471   0.85554   0.38576   0.00000  Uiso   1.00
H660   H     0.57371   0.86420   0.35228   0.00000  Uiso   1.00
C661   C     0.59993   0.81647   0.39479   0.00000  Uiso   1.00
H662   H     0.62815   0.81927   0.37443   0.00000  Uiso   1.00
H663   H     0.58283   0.78382   0.38620   0.00000  Uiso   1.00
H664   H     0.60901   0.81560   0.43076   0.00000  Uiso   1.00
N665   N     0.42231   0.84356   0.11847   0.00000  Uiso   1.00
H666   H     0.42395   0.86961   0.14181   0.00000  Uiso   1.00
C667   C     0.40520   0.80099   0.13648   0.00000  Uiso   1.00
H668   H     0.37297   0.80597   0.14638   0.00000  Uiso   1.00
H669   H     0.42269   0.79149   0.16669   0.00000  Uiso   1.00
H670   H     0.40559   0.77289   0.11128   0.00000  Uiso   1.00
I671   I     0.42413   0.77141   0.38018   0.00000  Uiso   1.00
I672   I     0.59072   0.83311   0.12441   0.00000  Uiso   1.00
I673   I     0.37199   0.86174   0.43069   0.00000  Uiso   1.00
I674   I     0.59989   0.93674   0.06327   0.00000  Uiso   1.00
I675   I     0.35883   0.84323   0.04510   0.00000  Uiso   1.00
I676   I     0.60706   0.93400   0.44568   0.00000  Uiso   1.00
I677   I     0.37223   0.72590   0.27711   0.00000  Uiso   1.00
I678   I     0.62555   0.94337   0.24624   0.00000  Uiso   1.00
I679   I     0.61860   0.73601   0.20319   0.00000  Uiso   1.00
I680   I     0.38617   0.92859   0.30483   0.00000  Uiso   1.00
N681   N     0.45402   0.71319   0.18553   0.00000  Uiso   1.00
H682   H     0.46900   0.72189   0.15639   0.00000  Uiso   1.00
C683   C     0.41251   0.69426   0.17790   0.00000  Uiso   1.00
H684   H     0.39017   0.72185   0.18013   0.00000  Uiso   1.00
H685   H     0.40367   0.66758   0.20310   0.00000  Uiso   1.00
H686   H     0.40933   0.67913   0.14391   0.00000  Uiso   1.00
N687   N     0.53186   0.95367   0.32385   0.00000  Uiso   1.00
H688   H     0.56328   0.95219   0.32712   0.00000  Uiso   1.00
C689   C     0.51066   0.96356   0.36501   0.00000  Uiso   1.00
H690   H     0.53141   0.98340   0.38829   0.00000  Uiso   1.00
H691   H     0.50098   0.93103   0.38173   0.00000  Uiso   1.00
H692   H     0.48249   0.98328   0.35869   0.00000  Uiso   1.00
N693   N     0.54234   0.71812   0.31649   0.00000  Uiso   1.00
H694   H     0.52758   0.72055   0.34660   0.00000  Uiso   1.00
C695   C     0.58622   0.71273   0.32024   0.00000  Uiso   1.00
H696   H     0.60210   0.74716   0.31880   0.00000  Uiso   1.00
H697   H     0.59775   0.69172   0.29267   0.00000  Uiso   1.00
H698   H     0.59407   0.69602   0.35261   0.00000  Uiso   1.00
N699   N     0.46948   0.95090   0.17599   0.00000  Uiso   1.00
H700   H     0.43899   0.94048   0.17408   0.00000  Uiso   1.00
C701   C     0.48945   0.96358   0.13438   0.00000  Uiso   1.00
H702   H     0.46915   0.98479   0.11326   0.00000  Uiso   1.00
H703   H     0.49581   0.93208   0.11533   0.00000  Uiso   1.00
H704   H     0.51913   0.98287   0.14052   0.00000  Uiso   1.00
C705   C     0.75442   0.83262   0.25487   0.00000  Uiso   1.00
C706   C     0.91267   0.83409   0.24748   0.00000  Uiso   1.00
C707   C     0.75335   0.84236   0.01907   0.00000  Uiso   1.00
C708   C     0.89826   0.88671   0.47868   0.00000  Uiso   1.00
C709   C     0.68602   0.79085   0.25292   0.00000  Uiso   1.00
C710   C     0.98129   0.87587   0.25678   0.00000  Uiso   1.00
C711   C     0.97820   0.79332   0.24060   0.00000  Uiso   1.00
C712   C     0.68969   0.87324   0.26741   0.00000  Uiso   1.00
C713   C     0.95791   0.83513   0.24620   0.00000  Uiso   1.00
C714   C     0.70962   0.83165   0.26048   0.00000  Uiso   1.00
C715   C     0.81242   0.69049   0.21757   0.00000  Uiso   1.00
C716   C     0.85085   0.97632   0.28475   0.00000  Uiso   1.00
C717   C     0.85378   0.69250   0.28271   0.00000  Uiso   1.00
C718   C     0.81624   0.97479   0.21520   0.00000  Uiso   1.00
C719   C     0.83227   0.83372   0.16435   0.00000  Uiso   1.00
C720   C     0.83397   0.83331   0.33561   0.00000  Uiso   1.00
C721   C     0.86945   0.85295   0.40767   0.00000  Uiso   1.00
C722   C     0.79184   0.83973   0.09302   0.00000  Uiso   1.00
C723   C     0.83460   0.83444   0.38448   0.00000  Uiso   1.00
C724   C     0.83032   0.83652   0.11538   0.00000  Uiso   1.00
C725   C     0.79822   0.82384   0.40711   0.00000  Uiso   1.00
C726   C     0.86678   0.84743   0.09261   0.00000  Uiso   1.00
C727   C     0.79435   0.83748   0.45172   0.00000  Uiso   1.00
C728   C     0.86487   0.86120   0.04753   0.00000  Uiso   1.00
C729   C     0.82979   0.85077   0.47626   0.00000  Uiso   1.00
C730   C     0.82822   0.85178   0.02317   0.00000  Uiso   1.00
C731   C     0.86684   0.86245   0.45404   0.00000  Uiso   1.00
C732   C     0.79042   0.84347   0.04553   0.00000  Uiso   1.00
C733   C     0.75595   0.84083   0.47197   0.00000  Uiso   1.00
C734   C     0.89719   0.88603   0.02597   0.00000  Uiso   1.00
Cu735  Cu    0.83333   0.88022   0.25000   0.00000  Uiso   1.00
Cu736  Cu    0.83333   0.78645   0.25000   0.00000  Uiso   1.00
N737   N     0.83333   0.95069   0.25000   0.00000  Uiso   1.00
N738   N     0.83333   0.71598   0.25000   0.00000  Uiso   1.00
O739   O     0.77321   0.87291   0.24999   0.00000  Uiso   1.00
O740   O     0.89345   0.79375   0.25000   0.00000  Uiso   1.00
O741   O     0.89345   0.87291   0.25000   0.00000  Uiso   1.00
O742   O     0.77321   0.79375   0.24999   0.00000  Uiso   1.00
O743   O     0.83332   0.87293   0.18513   0.00000  Uiso   1.00
O744   O     0.83334   0.79373   0.31487   0.00000  Uiso   1.00
O745   O     0.83334   0.87293   0.31487   0.00000  Uiso   1.00
O746   O     0.83332   0.79373   0.18513   0.00000  Uiso   1.00
N747   N     0.90804   0.85554   0.38576   0.00000  Uiso   1.00
H748   H     0.90705   0.86420   0.35228   0.00000  Uiso   1.00
C749   C     0.93327   0.81647   0.39479   0.00000  Uiso   1.00
H750   H     0.96148   0.81927   0.37443   0.00000  Uiso   1.00
H751   H     0.91616   0.78382   0.38620   0.00000  Uiso   1.00
H752   H     0.94234   0.81560   0.43076   0.00000  Uiso   1.00
N753   N     0.75564   0.84356   0.11847   0.00000  Uiso   1.00
H754   H     0.75728   0.86961   0.14181   0.00000  Uiso   1.00
C755   C     0.73854   0.80099   0.13648   0.00000  Uiso   1.00
H756   H     0.70631   0.80597   0.14638   0.00000  Uiso   1.00
H757   H     0.75602   0.79149   0.16669   0.00000  Uiso   1.00
H758   H     0.73893   0.77289   0.11128   0.00000  Uiso   1.00
I759   I     0.75747   0.77141   0.38018   0.00000  Uiso   1.00
I760   I     0.92406   0.83311   0.12441   0.00000  Uiso   1.00
I761   I     0.70532   0.86174   0.43069   0.00000  Uiso   1.00
I762   I     0.93322   0.93674   0.06327   0.00000  Uiso   1.00
I763   I     0.69216   0.84323   0.04510   0.00000  Uiso   1.00
I764   I     0.94039   0.93400   0.44568   0.00000  Uiso   1.00
I765   I     0.70557   0.72590   0.27711   0.00000  Uiso   1.00
I766   I     0.95889   0.94337   0.24624   0.00000  Uiso   1.00
I767   I     0.95193   0.73601   0.20319   0.00000  Uiso   1.00
I768   I     0.71950   0.92859   0.30483   0.00000  Uiso   1.00
N769   N     0.78736   0.71319   0.18553   0.00000  Uiso   1.00
H770   H     0.80233   0.72189   0.15639   0.00000  Uiso   1.00
C771   C     0.74585   0.69426   0.17790   0.00000  Uiso   1.00
H772   H     0.72350   0.72185   0.18013   0.00000  Uiso   1.00
H773   H     0.73701   0.66758   0.20310   0.00000  Uiso   1.00
H774   H     0.74266   0.67913   0.14391   0.00000  Uiso   1.00
N775   N     0.86520   0.95367   0.32385   0.00000  Uiso   1.00
H776   H     0.89662   0.95219   0.32712   0.00000  Uiso   1.00
C777   C     0.84399   0.96356   0.36501   0.00000  Uiso   1.00
H778   H     0.86475   0.98340   0.38829   0.00000  Uiso   1.00
H779   H     0.83431   0.93103   0.38173   0.00000  Uiso   1.00
H780   H     0.81582   0.98328   0.35869   0.00000  Uiso   1.00
N781   N     0.87567   0.71812   0.31649   0.00000  Uiso   1.00
H782   H     0.86092   0.72055   0.34660   0.00000  Uiso   1.00
C783   C     0.91956   0.71273   0.32024   0.00000  Uiso   1.00
H784   H     0.93543   0.74716   0.31880   0.00000  Uiso   1.00
H785   H     0.93108   0.69172   0.29267   0.00000  Uiso   1.00
H786   H     0.92740   0.69602   0.35261   0.00000  Uiso   1.00
N787   N     0.80281   0.95090   0.17599   0.00000  Uiso   1.00
H788   H     0.77232   0.94048   0.17408   0.00000  Uiso   1.00
C789   C     0.82278   0.96358   0.13438   0.00000  Uiso   1.00
H790   H     0.80248   0.98479   0.11326   0.00000  Uiso   1.00
H791   H     0.82915   0.93208   0.11533   0.00000  Uiso   1.00
H792   H     0.85246   0.98287   0.14052   0.00000  Uiso   1.00
C793   C     0.08775   0.16595   0.75487   0.00000  Uiso   1.00
C794   C     0.24600   0.16742   0.74748   0.00000  Uiso   1.00
C795   C     0.08668   0.17569   0.51907   0.00000  Uiso   1.00
C796   C     0.23160   0.22004   0.97868   0.00000  Uiso   1.00
C797   C     0.01936   0.12418   0.75292   0.00000  Uiso   1.00
C798   C     0.31462   0.20921   0.75678   0.00000  Uiso   1.00
C799   C     0.31153   0.12666   0.74060   0.00000  Uiso   1.00
C800   C     0.02303   0.20657   0.76741   0.00000  Uiso   1.00
C801   C     0.29124   0.16847   0.74620   0.00000  Uiso   1.00
C802   C     0.04296   0.16498   0.76048   0.00000  Uiso   1.00
C803   C     0.14575   0.02382   0.71757   0.00000  Uiso   1.00
C804   C     0.18418   0.30965   0.78475   0.00000  Uiso   1.00
C805   C     0.18711   0.02584   0.78271   0.00000  Uiso   1.00
C806   C     0.14957   0.30812   0.71520   0.00000  Uiso   1.00
C807   C     0.16561   0.16705   0.66435   0.00000  Uiso   1.00
C808   C     0.16731   0.16665   0.83561   0.00000  Uiso   1.00
C809   C     0.20278   0.18628   0.90767   0.00000  Uiso   1.00
C810   C     0.12518   0.17307   0.59302   0.00000  Uiso   1.00
C811   C     0.16794   0.16777   0.88448   0.00000  Uiso   1.00
C812   C     0.16365   0.16985   0.61538   0.00000  Uiso   1.00
C813   C     0.13156   0.15718   0.90711   0.00000  Uiso   1.00
C814   C     0.20011   0.18076   0.59261   0.00000  Uiso   1.00
C815   C     0.12768   0.17082   0.95172   0.00000  Uiso   1.00
C816   C     0.19821   0.19453   0.54753   0.00000  Uiso   1.00
C817   C     0.16312   0.18411   0.97626   0.00000  Uiso   1.00
C818   C     0.16156   0.18511   0.52317   0.00000  Uiso   1.00
C819   C     0.20018   0.19579   0.95404   0.00000  Uiso   1.00
C820   C     0.12375   0.17680   0.54553   0.00000  Uiso   1.00
C821   C     0.08928   0.17417   0.97197   0.00000  Uiso   1.00
C822   C     0.23053   0.21936   0.52597   0.00000  Uiso   1.00
Cu823  Cu    0.16667   0.21355   0.75000   0.00000  Uiso   1.00
Cu824  Cu    0.16667   0.11978   0.75000   0.00000  Uiso   1.00
N825   N     0.16667   0.28402   0.75000   0.00000  Uiso   1.00
N826   N     0.16667   0.04931   0.75000   0.00000  Uiso   1.00
O827   O     0.10655   0.20625   0.74999   0.00000  Uiso   1.00
O828   O     0.22679   0.12709   0.75000   0.00000  Uiso   1.00
O829   O     0.22679   0.20625   0.75000   0.00000  Uiso   1.00
O830   O     0.10655   0.12709   0.74999   0.00000  Uiso   1.00
O831   O     0.16666   0.20627   0.68513   0.00000  Uiso   1.00
O832   O     0.16668   0.12707   0.81487   0.00000  Uiso   1.00
O833   O     0.16668   0.20627   0.81487   0.00000  Uiso   1.00
O834   O     0.16666   0.12707   0.68513   0.00000  Uiso   1.00
N835   N     0.24138   0.18887   0.88576   0.00000  Uiso   1.00
H836   H     0.24038   0.19753   0.85228   0.00000  Uiso   1.00
C837   C     0.26660   0.14980   0.89479   0.00000  Uiso   1.00
H838   H     0.29482   0.15261   0.87443   0.00000  Uiso   1.00
H839   H     0.24950   0.11715   0.88620   0.00000  Uiso   1.00
H840   H     0.27567   0.14893   0.93076   0.00000  Uiso   1.00
N841   N     0.08897   0.17689   0.61847   0.00000  Uiso   1.00
H842   H     0.09061   0.20294   0.64181   0.00000  Uiso   1.00
C843   C     0.07187   0.13433   0.63648   0.00000  Uiso   1.00
H844   H     0.03964   0.13931   0.64638   0.00000  Uiso   1.00
H845   H     0.08936   0.12482   0.66669   0.00000  Uiso   1.00
H846   H     0.07226   0.10623   0.61128   0.00000  Uiso   1.00
I847   I     0.09080   0.10474   0.88018   0.00000  Uiso   1.00
I848   I     0.25739   0.16644   0.62441   0.00000  Uiso   1.00
I849   I     0.03865   0.19507   0.93069   0.00000  Uiso   1.00
I850   I     0.26655   0.27008   0.56327   0.00000  Uiso   1.00
I851   I     0.02549   0.17656   0.54510   0.00000  Uiso   1.00
I852   I     0.27372   0.26734   0.94568   0.00000  Uiso   1.00
I853   I     0.03890   0.05924   0.77711   0.00000  Uiso   1.00
I854   I     0.29222   0.27670   0.74624   0.00000  Uiso   1.00
I855   I     0.28527   0.06934   0.70319   0.00000  Uiso   1.00
I856   I     0.05284   0.26192   0.80483   0.00000  Uiso   1.00
N857   N     0.12069   0.04653   0.68553   0.00000  Uiso   1.00
H858   H     0.13566   0.05523   0.65639   0.00000  Uiso   1.00
C859   C     0.07918   0.02760   0.67790   0.00000  Uiso   1.00
H860   H     0.05684   0.05518   0.68013   0.00000  Uiso   1.00
H861   H     0.07034   0.00091   0.70310   0.00000  Uiso   1.00
H862   H     0.07599   0.01246   0.64391   0.00000  Uiso   1.00
N863   N     0.19853   0.28701   0.82385   0.00000  Uiso   1.00
H864   H     0.22995   0.28552   0.82712   0.00000  Uiso   1.00
C865   C     0.17733   0.29689   0.86501   0.00000  Uiso   1.00
H866   H     0.19808   0.31673   0.88829   0.00000  Uiso   1.00
H867   H     0.16764   0.26436   0.88173   0.00000  Uiso   1.00
H868   H     0.14916   0.31662   0.85869   0.00000  Uiso   1.00
N869   N     0.20900   0.05145   0.81649   0.00000  Uiso   1.00
H870   H     0.19425   0.05388   0.84660   0.00000  Uiso   1.00
C871   C     0.25289   0.04606   0.82024   0.00000  Uiso   1.00
H872   H     0.26877   0.08050   0.81880   0.00000  Uiso   1.00
H873   H     0.26441   0.02506   0.79267   0.00000  Uiso   1.00
H874   H     0.26073   0.02935   0.85261   0.00000  Uiso   1.00
N875   N     0.13615   0.28423   0.67599   0.00000  Uiso   1.00
H876   H     0.10566   0.27381   0.67408   0.00000  Uiso   1.00
C877   C     0.15612   0.29692   0.63438   0.00000  Uiso   1.00
H878   H     0.13582   0.31812   0.61326   0.00000  Uiso   1.00
H879   H     0.16248   0.26542   0.61533   0.00000  Uiso   1.00
H880   H     0.18580   0.31620   0.64052   0.00000  Uiso   1.00
C881   C     0.42109   0.16595   0.75487   0.00000  Uiso   1.00
C882   C     0.57933   0.16742   0.74748   0.00000  Uiso   1.00
C883   C     0.42001   0.17569   0.51907   0.00000  Uiso   1.00
C884   C     0.56493   0.22004   0.97868   0.00000  Uiso   1.00
C885   C     0.35269   0.12418   0.75292   0.00000  Uiso   1.00
C886   C     0.64796   0.20921   0.75678   0.00000  Uiso   1.00
C887   C     0.64487   0.12666   0.74060   0.00000  Uiso   1.00
C888   C     0.35636   0.20657   0.76741   0.00000  Uiso   1.00
C889   C     0.62458   0.16847   0.74620   0.00000  Uiso   1.00
C890   C     0.37629   0.16498   0.76048   0.00000  Uiso   1.00
C891   C     0.47908   0.02382   0.71757   0.00000  Uiso   1.00
C892   C     0.51752   0.30965   0.78475   0.00000  Uiso   1.00
C893   C     0.52045   0.02584   0.78271   0.00000  Uiso   1.00
C894   C     0.48291   0.30812   0.71520   0.00000  Uiso   1.00
C895   C     0.49894   0.16705   0.66435   0.00000  Uiso   1.00
C896   C     0.50064   0.16665   0.83561   0.00000  Uiso   1.00
C897   C     0.53612   0.18628   0.90767   0.00000  Uiso   1.00
C898   C     0.45851   0.17307   0.59302   0.00000  Uiso   1.00
C899   C     0.50127   0.16777   0.88448   0.00000  Uiso   1.00
C900   C     0.49698   0.16985   0.61538   0.00000  Uiso   1.00
C901   C     0.46489   0.15718   0.90711   0.00000  Uiso   1.00
C902   C     0.53345   0.18076   0.59261   0.00000  Uiso   1.00
C903   C     0.46102   0.17082   0.95172   0.00000  Uiso   1.00
C904   C     0.53154   0.19453   0.54753   0.00000  Uiso   1.00
C905   C     0.49645   0.18411   0.97626   0.00000  Uiso   1.00
C906   C     0.49489   0.18511   0.52317   0.00000  Uiso   1.00
C907   C     0.53351   0.19579   0.95404   0.00000  Uiso   1.00
C908   C     0.45708   0.17680   0.54553   0.00000  Uiso   1.00
C909   C     0.42261   0.17417   0.97197   0.00000  Uiso   1.00
C910   C     0.56386   0.21936   0.52597   0.00000  Uiso   1.00
Cu911  Cu    0.50000   0.21355   0.75000   0.00000  Uiso   1.00
Cu912  Cu    0.50000   0.11978   0.75000   0.00000  Uiso   1.00
N913   N     0.50000   0.28402   0.75000   0.00000  Uiso   1.00
N914   N     0.50000   0.04931   0.75000   0.00000  Uiso   1.00
O915   O     0.43988   0.20625   0.74999   0.00000  Uiso   1.00
O916   O     0.56012   0.12709   0.75000   0.00000  Uiso   1.00
O917   O     0.56012   0.20625   0.75000   0.00000  Uiso   1.00
O918   O     0.43988   0.12709   0.74999   0.00000  Uiso   1.00
O919   O     0.49999   0.20627   0.68513   0.00000  Uiso   1.00
O920   O     0.50001   0.12707   0.81487   0.00000  Uiso   1.00
O921   O     0.50001   0.20627   0.81487   0.00000  Uiso   1.00
O922   O     0.49999   0.12707   0.68513   0.00000  Uiso   1.00
N923   N     0.57471   0.18887   0.88576   0.00000  Uiso   1.00
H924   H     0.57371   0.19753   0.85228   0.00000  Uiso   1.00
C925   C     0.59993   0.14980   0.89479   0.00000  Uiso   1.00
H926   H     0.62815   0.15261   0.87443   0.00000  Uiso   1.00
H927   H     0.58283   0.11715   0.88620   0.00000  Uiso   1.00
H928   H     0.60901   0.14893   0.93076   0.00000  Uiso   1.00
N929   N     0.42231   0.17689   0.61847   0.00000  Uiso   1.00
H930   H     0.42395   0.20294   0.64181   0.00000  Uiso   1.00
C931   C     0.40520   0.13433   0.63648   0.00000  Uiso   1.00
H932   H     0.37297   0.13931   0.64638   0.00000  Uiso   1.00
H933   H     0.42269   0.12482   0.66669   0.00000  Uiso   1.00
H934   H     0.40559   0.10623   0.61128   0.00000  Uiso   1.00
I935   I     0.42413   0.10474   0.88018   0.00000  Uiso   1.00
I936   I     0.59072   0.16644   0.62441   0.00000  Uiso   1.00
I937   I     0.37199   0.19507   0.93069   0.00000  Uiso   1.00
I938   I     0.59989   0.27008   0.56327   0.00000  Uiso   1.00
I939   I     0.35883   0.17656   0.54510   0.00000  Uiso   1.00
I940   I     0.60706   0.26734   0.94568   0.00000  Uiso   1.00
I941   I     0.37223   0.05924   0.77711   0.00000  Uiso   1.00
I942   I     0.62555   0.27670   0.74624   0.00000  Uiso   1.00
I943   I     0.61860   0.06934   0.70319   0.00000  Uiso   1.00
I944   I     0.38617   0.26192   0.80483   0.00000  Uiso   1.00
N945   N     0.45402   0.04653   0.68553   0.00000  Uiso   1.00
H946   H     0.46900   0.05523   0.65639   0.00000  Uiso   1.00
C947   C     0.41251   0.02760   0.67790   0.00000  Uiso   1.00
H948   H     0.39017   0.05518   0.68013   0.00000  Uiso   1.00
H949   H     0.40367   0.00091   0.70310   0.00000  Uiso   1.00
H950   H     0.40933   0.01246   0.64391   0.00000  Uiso   1.00
N951   N     0.53186   0.28701   0.82385   0.00000  Uiso   1.00
H952   H     0.56328   0.28552   0.82712   0.00000  Uiso   1.00
C953   C     0.51066   0.29689   0.86501   0.00000  Uiso   1.00
H954   H     0.53141   0.31673   0.88829   0.00000  Uiso   1.00
H955   H     0.50098   0.26436   0.88173   0.00000  Uiso   1.00
H956   H     0.48249   0.31662   0.85869   0.00000  Uiso   1.00
N957   N     0.54234   0.05145   0.81649   0.00000  Uiso   1.00
H958   H     0.52758   0.05388   0.84660   0.00000  Uiso   1.00
C959   C     0.58622   0.04606   0.82024   0.00000  Uiso   1.00
H960   H     0.60210   0.08050   0.81880   0.00000  Uiso   1.00
H961   H     0.59775   0.02506   0.79267   0.00000  Uiso   1.00
H962   H     0.59407   0.02935   0.85261   0.00000  Uiso   1.00
N963   N     0.46948   0.28423   0.67599   0.00000  Uiso   1.00
H964   H     0.43899   0.27381   0.67408   0.00000  Uiso   1.00
C965   C     0.48945   0.29692   0.63438   0.00000  Uiso   1.00
H966   H     0.46915   0.31812   0.61326   0.00000  Uiso   1.00
H967   H     0.49581   0.26542   0.61533   0.00000  Uiso   1.00
H968   H     0.51913   0.31620   0.64052   0.00000  Uiso   1.00
C969   C     0.75442   0.16595   0.75487   0.00000  Uiso   1.00
C970   C     0.91267   0.16742   0.74748   0.00000  Uiso   1.00
C971   C     0.75335   0.17569   0.51907   0.00000  Uiso   1.00
C972   C     0.89826   0.22004   0.97868   0.00000  Uiso   1.00
C973   C     0.68602   0.12418   0.75292   0.00000  Uiso   1.00
C974   C     0.98129   0.20921   0.75678   0.00000  Uiso   1.00
C975   C     0.97820   0.12666   0.74060   0.00000  Uiso   1.00
C976   C     0.68969   0.20657   0.76741   0.00000  Uiso   1.00
C977   C     0.95791   0.16847   0.74620   0.00000  Uiso   1.00
C978   C     0.70962   0.16498   0.76048   0.00000  Uiso   1.00
C979   C     0.81242   0.02382   0.71757   0.00000  Uiso   1.00
C980   C     0.85085   0.30965   0.78475   0.00000  Uiso   1.00
C981   C     0.85378   0.02584   0.78271   0.00000  Uiso   1.00
C982   C     0.81624   0.30812   0.71520   0.00000  Uiso   1.00
C983   C     0.83227   0.16705   0.66435   0.00000  Uiso   1.00
C984   C     0.83397   0.16665   0.83561   0.00000  Uiso   1.00
C985   C     0.86945   0.18628   0.90767   0.00000  Uiso   1.00
C986   C     0.79184   0.17307   0.59302   0.00000  Uiso   1.00
C987   C     0.83460   0.16777   0.88448   0.00000  Uiso   1.00
C988   C     0.83032   0.16985   0.61538   0.00000  Uiso   1.00
C989   C     0.79822   0.15718   0.90711   0.00000  Uiso   1.00
C990   C     0.86678   0.18076   0.59261   0.00000  Uiso   1.00
C991   C     0.79435   0.17082   0.95172   0.00000  Uiso   1.00
C992   C     0.86487   0.19453   0.54753   0.00000  Uiso   1.00
C993   C     0.82979   0.18411   0.97626   0.00000  Uiso   1.00
C994   C     0.82822   0.18511   0.52317   0.00000  Uiso   1.00
C995   C     0.86684   0.19579   0.95404   0.00000  Uiso   1.00
C996   C     0.79042   0.17680   0.54553   0.00000  Uiso   1.00
C997   C     0.75595   0.17417   0.97197   0.00000  Uiso   1.00
C998   C     0.89719   0.21936   0.52597   0.00000  Uiso   1.00
Cu999  Cu    0.83333   0.21355   0.75000   0.00000  Uiso   1.00
Cu1000 Cu    0.83333   0.11978   0.75000   0.00000  Uiso   1.00
N1001  N     0.83333   0.28402   0.75000   0.00000  Uiso   1.00
N1002  N     0.83333   0.04931   0.75000   0.00000  Uiso   1.00
O1003  O     0.77321   0.20625   0.74999   0.00000  Uiso   1.00
O1004  O     0.89345   0.12709   0.75000   0.00000  Uiso   1.00
O1005  O     0.89345   0.20625   0.75000   0.00000  Uiso   1.00
O1006  O     0.77321   0.12709   0.74999   0.00000  Uiso   1.00
O1007  O     0.83332   0.20627   0.68513   0.00000  Uiso   1.00
O1008  O     0.83334   0.12707   0.81487   0.00000  Uiso   1.00
O1009  O     0.83334   0.20627   0.81487   0.00000  Uiso   1.00
O1010  O     0.83332   0.12707   0.68513   0.00000  Uiso   1.00
N1011  N     0.90804   0.18887   0.88576   0.00000  Uiso   1.00
H1012  H     0.90705   0.19753   0.85228   0.00000  Uiso   1.00
C1013  C     0.93327   0.14980   0.89479   0.00000  Uiso   1.00
H1014  H     0.96148   0.15261   0.87443   0.00000  Uiso   1.00
H1015  H     0.91616   0.11715   0.88620   0.00000  Uiso   1.00
H1016  H     0.94234   0.14893   0.93076   0.00000  Uiso   1.00
N1017  N     0.75564   0.17689   0.61847   0.00000  Uiso   1.00
H1018  H     0.75728   0.20294   0.64181   0.00000  Uiso   1.00
C1019  C     0.73854   0.13433   0.63648   0.00000  Uiso   1.00
H1020  H     0.70631   0.13931   0.64638   0.00000  Uiso   1.00
H1021  H     0.75602   0.12482   0.66669   0.00000  Uiso   1.00
H1022  H     0.73893   0.10623   0.61128   0.00000  Uiso   1.00
I1023  I     0.75747   0.10474   0.88018   0.00000  Uiso   1.00
I1024  I     0.92406   0.16644   0.62441   0.00000  Uiso   1.00
I1025  I     0.70532   0.19507   0.93069   0.00000  Uiso   1.00
I1026  I     0.93322   0.27008   0.56327   0.00000  Uiso   1.00
I1027  I     0.69216   0.17656   0.54510   0.00000  Uiso   1.00
I1028  I     0.94039   0.26734   0.94568   0.00000  Uiso   1.00
I1029  I     0.70557   0.05924   0.77711   0.00000  Uiso   1.00
I1030  I     0.95889   0.27670   0.74624   0.00000  Uiso   1.00
I1031  I     0.95193   0.06934   0.70319   0.00000  Uiso   1.00
I1032  I     0.71950   0.26192   0.80483   0.00000  Uiso   1.00
N1033  N     0.78736   0.04653   0.68553   0.00000  Uiso   1.00
H1034  H     0.80233   0.05523   0.65639   0.00000  Uiso   1.00
C1035  C     0.74585   0.02760   0.67790   0.00000  Uiso   1.00
H1036  H     0.72350   0.05518   0.68013   0.00000  Uiso   1.00
H1037  H     0.73701   0.00091   0.70310   0.00000  Uiso   1.00
H1038  H     0.74266   0.01246   0.64391   0.00000  Uiso   1.00
N1039  N     0.86520   0.28701   0.82385   0.00000  Uiso   1.00
H1040  H     0.89662   0.28552   0.82712   0.00000  Uiso   1.00
C1041  C     0.84399   0.29689   0.86501   0.00000  Uiso   1.00
H1042  H     0.86475   0.31673   0.88829   0.00000  Uiso   1.00
H1043  H     0.83431   0.26436   0.88173   0.00000  Uiso   1.00
H1044  H     0.81582   0.31662   0.85869   0.00000  Uiso   1.00
N1045  N     0.87567   0.05145   0.81649   0.00000  Uiso   1.00
H1046  H     0.86092   0.05388   0.84660   0.00000  Uiso   1.00
C1047  C     0.91956   0.04606   0.82024   0.00000  Uiso   1.00
H1048  H     0.93543   0.08050   0.81880   0.00000  Uiso   1.00
H1049  H     0.93108   0.02506   0.79267   0.00000  Uiso   1.00
H1050  H     0.92740   0.02935   0.85261   0.00000  Uiso   1.00
N1051  N     0.80281   0.28423   0.67599   0.00000  Uiso   1.00
H1052  H     0.77232   0.27381   0.67408   0.00000  Uiso   1.00
C1053  C     0.82278   0.29692   0.63438   0.00000  Uiso   1.00
H1054  H     0.80248   0.31812   0.61326   0.00000  Uiso   1.00
H1055  H     0.82915   0.26542   0.61533   0.00000  Uiso   1.00
H1056  H     0.85246   0.31620   0.64052   0.00000  Uiso   1.00
C1057  C     0.08775   0.49928   0.75487   0.00000  Uiso   1.00
C1058  C     0.24600   0.50075   0.74748   0.00000  Uiso   1.00
C1059  C     0.08668   0.50903   0.51907   0.00000  Uiso   1.00
C1060  C     0.23160   0.55338   0.97868   0.00000  Uiso   1.00
C1061  C     0.01936   0.45752   0.75292   0.00000  Uiso   1.00
C1062  C     0.31462   0.54254   0.75678   0.00000  Uiso   1.00
C1063  C     0.31153   0.45999   0.74060   0.00000  Uiso   1.00
C1064  C     0.02303   0.53990   0.76741   0.00000  Uiso   1.00
C1065  C     0.29124   0.50180   0.74620   0.00000  Uiso   1.00
C1066  C     0.04296   0.49832   0.76048   0.00000  Uiso   1.00
C1067  C     0.14575   0.35715   0.71757   0.00000  Uiso   1.00
C1068  C     0.18418   0.64299   0.78475   0.00000  Uiso   1.00
C1069  C     0.18711   0.35917   0.78271   0.00000  Uiso   1.00
C1070  C     0.14957   0.64146   0.71520   0.00000  Uiso   1.00
C1071  C     0.16561   0.50038   0.66435   0.00000  Uiso   1.00
C1072  C     0.16731   0.49998   0.83561   0.00000  Uiso   1.00
C1073  C     0.20278   0.51962   0.90767   0.00000  Uiso   1.00
C1074  C     0.12518   0.50640   0.59302   0.00000  Uiso   1.00
C1075  C     0.16794   0.50111   0.88448   0.00000  Uiso   1.00
C1076  C     0.16365   0.50319   0.61538   0.00000  Uiso   1.00
C1077  C     0.13156   0.49051   0.90711   0.00000  Uiso   1.00
C1078  C     0.20011   0.51410   0.59261   0.00000  Uiso   1.00
C1079  C     0.12768   0.50415   0.95172   0.00000  Uiso   1.00
C1080  C     0.19821   0.52786   0.54753   0.00000  Uiso   1.00
C1081  C     0.16312   0.51744   0.97626   0.00000  Uiso   1.00
C1082  C     0.16156   0.51845   0.52317   0.00000  Uiso   1.00
C1083  C     0.20018   0.52912   0.95404   0.00000  Uiso   1.00
C1084  C     0.12375   0.51014   0.54553   0.00000  Uiso   1.00
C1085  C     0.08928   0.50750   0.97197   0.00000  Uiso   1.00
C1086  C     0.23053   0.55269   0.52597   0.00000  Uiso   1.00
Cu1087 Cu    0.16667   0.54689   0.75000   0.00000  Uiso   1.00
Cu1088 Cu    0.16667   0.45311   0.75000   0.00000  Uiso   1.00
N1089  N     0.16667   0.61736   0.75000   0.00000  Uiso   1.00
N1090  N     0.16667   0.38264   0.75000   0.00000  Uiso   1.00
O1091  O     0.10655   0.53958   0.74999   0.00000  Uiso   1.00
O1092  O     0.22679   0.46042   0.75000   0.00000  Uiso   1.00
O1093  O     0.22679   0.53958   0.75000   0.00000  Uiso   1.00
O1094  O     0.10655   0.46042   0.74999   0.00000  Uiso   1.00
O1095  O     0.16666   0.53960   0.68513   0.00000  Uiso   1.00
O1096  O     0.16668   0.46040   0.81487   0.00000  Uiso   1.00
O1097  O     0.16668   0.53960   0.81487   0.00000  Uiso   1.00
O1098  O     0.16666   0.46040   0.68513   0.00000  Uiso   1.00
N1099  N     0.24138   0.52220   0.88576   0.00000  Uiso   1.00
H1100  H     0.24038   0.53087   0.85228   0.00000  Uiso   1.00
C1101  C     0.26660   0.48314   0.89479   0.00000  Uiso   1.00
H1102  H     0.29482   0.48594   0.87443   0.00000  Uiso   1.00
H1103  H     0.24950   0.45048   0.88620   0.00000  Uiso   1.00
H1104  H     0.27567   0.48227   0.93076   0.00000  Uiso   1.00
N1105  N     0.08897   0.51022   0.61847   0.00000  Uiso   1.00
H1106  H     0.09061   0.53628   0.64181   0.00000  Uiso   1.00
C1107  C     0.07187   0.46766   0.63648   0.00000  Uiso   1.00
H1108  H     0.03964   0.47264   0.64638   0.00000  Uiso   1.00
H1109  H     0.08936   0.45816   0.66669   0.00000  Uiso   1.00
H1110  H     0.07226   0.43956   0.61128   0.00000  Uiso   1.00
I1111  I     0.09080   0.43807   0.88018   0.00000  Uiso   1.00
I1112  I     0.25739   0.49977   0.62441   0.00000  Uiso   1.00
I1113  I     0.03865   0.52841   0.93069   0.00000  Uiso   1.00
I1114  I     0.26655   0.60341   0.56327   0.00000  Uiso   1.00
I1115  I     0.02549   0.50989   0.54510   0.00000  Uiso   1.00
I1116  I     0.27372   0.60067   0.94568   0.00000  Uiso   1.00
I1117  I     0.03890   0.39257   0.77711   0.00000  Uiso   1.00
I1118  I     0.29222   0.61003   0.74624   0.00000  Uiso   1.00
I1119  I     0.28527   0.40268   0.70319   0.00000  Uiso   1.00
I1120  I     0.05284   0.59525   0.80483   0.00000  Uiso   1.00
N1121  N     0.12069   0.37986   0.68553   0.00000  Uiso   1.00
H1122  H     0.13566   0.38856   0.65639   0.00000  Uiso   1.00
C1123  C     0.07918   0.36093   0.67790   0.00000  Uiso   1.00
H1124  H     0.05684   0.38851   0.68013   0.00000  Uiso   1.00
H1125  H     0.07034   0.33425   0.70310   0.00000  Uiso   1.00
H1126  H     0.07599   0.34579   0.64391   0.00000  Uiso   1.00
N1127  N     0.19853   0.62034   0.82385   0.00000  Uiso   1.00
H1128  H     0.22995   0.61885   0.82712   0.00000  Uiso   1.00
C1129  C     0.17733   0.63023   0.86501   0.00000  Uiso   1.00
H1130  H     0.19808   0.65006   0.88829   0.00000  Uiso   1.00
H1131  H     0.16764   0.59769   0.88173   0.00000  Uiso   1.00
H1132  H     0.14916   0.64995   0.85869   0.00000  Uiso   1.00
N1133  N     0.20900   0.38478   0.81649   0.00000  Uiso   1.00
H1134  H     0.19425   0.38721   0.84660   0.00000  Uiso   1.00
C1135  C     0.25289   0.37940   0.82024   0.00000  Uiso   1.00
H1136  H     0.26877   0.41383   0.81880   0.00000  Uiso   1.00
H1137  H     0.26441   0.35839   0.79267   0.00000  Uiso   1.00
H1138  H     0.26073   0.36268   0.85261   0.00000  Uiso   1.00
N1139  N     0.13615   0.61757   0.67599   0.00000  Uiso   1.00
H1140  H     0.10566   0.60714   0.67408   0.00000  Uiso   1.00
C1141  C     0.15612   0.63025   0.63438   0.00000  Uiso   1.00
H1142  H     0.13582   0.65145   0.61326   0.00000  Uiso   1.00
H1143  H     0.16248   0.59875   0.61533   0.00000  Uiso   1.00
H1144  H     0.18580   0.64954   0.64052   0.00000  Uiso   1.00
C1145  C     0.42109   0.49928   0.75487   0.00000  Uiso   1.00
C1146  C     0.57933   0.50075   0.74748   0.00000  Uiso   1.00
C1147  C     0.42001   0.50903   0.51907   0.00000  Uiso   1.00
C1148  C     0.56493   0.55338   0.97868   0.00000  Uiso   1.00
C1149  C     0.35269   0.45752   0.75292   0.00000  Uiso   1.00
C1150  C     0.64796   0.54254   0.75678   0.00000  Uiso   1.00
C1151  C     0.64487   0.45999   0.74060   0.00000  Uiso   1.00
C1152  C     0.35636   0.53990   0.76741   0.00000  Uiso   1.00
C1153  C     0.62458   0.50180   0.74620   0.00000  Uiso   1.00
C1154  C     0.37629   0.49832   0.76048   0.00000  Uiso   1.00
C1155  C     0.47908   0.35715   0.71757   0.00000  Uiso   1.00
C1156  C     0.51752   0.64299   0.78475   0.00000  Uiso   1.00
C1157  C     0.52045   0.35917   0.78271   0.00000  Uiso   1.00
C1158  C     0.48291   0.64146   0.71520   0.00000  Uiso   1.00
C1159  C     0.49894   0.50038   0.66435   0.00000  Uiso   1.00
C1160  C     0.50064   0.49998   0.83561   0.00000  Uiso   1.00
C1161  C     0.53612   0.51962   0.90767   0.00000  Uiso   1.00
C1162  C     0.45851   0.50640   0.59302   0.00000  Uiso   1.00
C1163  C     0.50127   0.50111   0.88448   0.00000  Uiso   1.00
C1164  C     0.49698   0.50319   0.61538   0.00000  Uiso   1.00
C1165  C     0.46489   0.49051   0.90711   0.00000  Uiso   1.00
C1166  C     0.53345   0.51410   0.59261   0.00000  Uiso   1.00
C1167  C     0.46102   0.50415   0.95172   0.00000  Uiso   1.00
C1168  C     0.53154   0.52786   0.54753   0.00000  Uiso   1.00
C1169  C     0.49645   0.51744   0.97626   0.00000  Uiso   1.00
C1170  C     0.49489   0.51845   0.52317   0.00000  Uiso   1.00
C1171  C     0.53351   0.52912   0.95404   0.00000  Uiso   1.00
C1172  C     0.45708   0.51014   0.54553   0.00000  Uiso   1.00
C1173  C     0.42261   0.50750   0.97197   0.00000  Uiso   1.00
C1174  C     0.56386   0.55269   0.52597   0.00000  Uiso   1.00
Cu1175 Cu    0.50000   0.54689   0.75000   0.00000  Uiso   1.00
Cu1176 Cu    0.50000   0.45311   0.75000   0.00000  Uiso   1.00
N1177  N     0.50000   0.61736   0.75000   0.00000  Uiso   1.00
N1178  N     0.50000   0.38264   0.75000   0.00000  Uiso   1.00
O1179  O     0.43988   0.53958   0.74999   0.00000  Uiso   1.00
O1180  O     0.56012   0.46042   0.75000   0.00000  Uiso   1.00
O1181  O     0.56012   0.53958   0.75000   0.00000  Uiso   1.00
O1182  O     0.43988   0.46042   0.74999   0.00000  Uiso   1.00
O1183  O     0.49999   0.53960   0.68513   0.00000  Uiso   1.00
O1184  O     0.50001   0.46040   0.81487   0.00000  Uiso   1.00
O1185  O     0.50001   0.53960   0.81487   0.00000  Uiso   1.00
O1186  O     0.49999   0.46040   0.68513   0.00000  Uiso   1.00
N1187  N     0.57471   0.52220   0.88576   0.00000  Uiso   1.00
H1188  H     0.57371   0.53087   0.85228   0.00000  Uiso   1.00
C1189  C     0.59993   0.48314   0.89479   0.00000  Uiso   1.00
H1190  H     0.62815   0.48594   0.87443   0.00000  Uiso   1.00
H1191  H     0.58283   0.45048   0.88620   0.00000  Uiso   1.00
H1192  H     0.60901   0.48227   0.93076   0.00000  Uiso   1.00
N1193  N     0.42231   0.51022   0.61847   0.00000  Uiso   1.00
H1194  H     0.42395   0.53628   0.64181   0.00000  Uiso   1.00
C1195  C     0.40520   0.46766   0.63648   0.00000  Uiso   1.00
H1196  H     0.37297   0.47264   0.64638   0.00000  Uiso   1.00
H1197  H     0.42269   0.45816   0.66669   0.00000  Uiso   1.00
H1198  H     0.40559   0.43956   0.61128   0.00000  Uiso   1.00
I1199  I     0.42413   0.43807   0.88018   0.00000  Uiso   1.00
I1200  I     0.59072   0.49977   0.62441   0.00000  Uiso   1.00
I1201  I     0.37199   0.52841   0.93069   0.00000  Uiso   1.00
I1202  I     0.59989   0.60341   0.56327   0.00000  Uiso   1.00
I1203  I     0.35883   0.50989   0.54510   0.00000  Uiso   1.00
I1204  I     0.60706   0.60067   0.94568   0.00000  Uiso   1.00
I1205  I     0.37223   0.39257   0.77711   0.00000  Uiso   1.00
I1206  I     0.62555   0.61003   0.74624   0.00000  Uiso   1.00
I1207  I     0.61860   0.40268   0.70319   0.00000  Uiso   1.00
I1208  I     0.38617   0.59525   0.80483   0.00000  Uiso   1.00
N1209  N     0.45402   0.37986   0.68553   0.00000  Uiso   1.00
H1210  H     0.46900   0.38856   0.65639   0.00000  Uiso   1.00
C1211  C     0.41251   0.36093   0.67790   0.00000  Uiso   1.00
H1212  H     0.39017   0.38851   0.68013   0.00000  Uiso   1.00
H1213  H     0.40367   0.33425   0.70310   0.00000  Uiso   1.00
H1214  H     0.40933   0.34579   0.64391   0.00000  Uiso   1.00
N1215  N     0.53186   0.62034   0.82385   0.00000  Uiso   1.00
H1216  H     0.56328   0.61885   0.82712   0.00000  Uiso   1.00
C1217  C     0.51066   0.63023   0.86501   0.00000  Uiso   1.00
H1218  H     0.53141   0.65006   0.88829   0.00000  Uiso   1.00
H1219  H     0.50098   0.59769   0.88173   0.00000  Uiso   1.00
H1220  H     0.48249   0.64995   0.85869   0.00000  Uiso   1.00
N1221  N     0.54234   0.38478   0.81649   0.00000  Uiso   1.00
H1222  H     0.52758   0.38721   0.84660   0.00000  Uiso   1.00
C1223  C     0.58622   0.37940   0.82024   0.00000  Uiso   1.00
H1224  H     0.60210   0.41383   0.81880   0.00000  Uiso   1.00
H1225  H     0.59775   0.35839   0.79267   0.00000  Uiso   1.00
H1226  H     0.59407   0.36268   0.85261   0.00000  Uiso   1.00
N1227  N     0.46948   0.61757   0.67599   0.00000  Uiso   1.00
H1228  H     0.43899   0.60714   0.67408   0.00000  Uiso   1.00
C1229  C     0.48945   0.63025   0.63438   0.00000  Uiso   1.00
H1230  H     0.46915   0.65145   0.61326   0.00000  Uiso   1.00
H1231  H     0.49581   0.59875   0.61533   0.00000  Uiso   1.00
H1232  H     0.51913   0.64954   0.64052   0.00000  Uiso   1.00
C1233  C     0.75442   0.49928   0.75487   0.00000  Uiso   1.00
C1234  C     0.91267   0.50075   0.74748   0.00000  Uiso   1.00
C1235  C     0.75335   0.50903   0.51907   0.00000  Uiso   1.00
C1236  C     0.89826   0.55338   0.97868   0.00000  Uiso   1.00
C1237  C     0.68602   0.45752   0.75292   0.00000  Uiso   1.00
C1238  C     0.98129   0.54254   0.75678   0.00000  Uiso   1.00
C1239  C     0.97820   0.45999   0.74060   0.00000  Uiso   1.00
C1240  C     0.68969   0.53990   0.76741   0.00000  Uiso   1.00
C1241  C     0.95791   0.50180   0.74620   0.00000  Uiso   1.00
C1242  C     0.70962   0.49832   0.76048   0.00000  Uiso   1.00
C1243  C     0.81242   0.35715   0.71757   0.00000  Uiso   1.00
C1244  C     0.85085   0.64299   0.78475   0.00000  Uiso   1.00
C1245  C     0.85378   0.35917   0.78271   0.00000  Uiso   1.00
C1246  C     0.81624   0.64146   0.71520   0.00000  Uiso   1.00
C1247  C     0.83227   0.50038   0.66435   0.00000  Uiso   1.00
C1248  C     0.83397   0.49998   0.83561   0.00000  Uiso   1.00
C1249  C     0.86945   0.51962   0.90767   0.00000  Uiso   1.00
C1250  C     0.79184   0.50640   0.59302   0.00000  Uiso   1.00
C1251  C     0.83460   0.50111   0.88448   0.00000  Uiso   1.00
C1252  C     0.83032   0.50319   0.61538   0.00000  Uiso   1.00
C1253  C     0.79822   0.49051   0.90711   0.00000  Uiso   1.00
C1254  C     0.86678   0.51410   0.59261   0.00000  Uiso   1.00
C1255  C     0.79435   0.50415   0.95172   0.00000  Uiso   1.00
C1256  C     0.86487   0.52786   0.54753   0.00000  Uiso   1.00
C1257  C     0.82979   0.51744   0.97626   0.00000  Uiso   1.00
C1258  C     0.82822   0.51845   0.52317   0.00000  Uiso   1.00
C1259  C     0.86684   0.52912   0.95404   0.00000  Uiso   1.00
C1260  C     0.79042   0.51014   0.54553   0.00000  Uiso   1.00
C1261  C     0.75595   0.50750   0.97197   0.00000  Uiso   1.00
C1262  C     0.89719   0.55269   0.52597   0.00000  Uiso   1.00
Cu1263 Cu    0.83333   0.54689   0.75000   0.00000  Uiso   1.00
Cu1264 Cu    0.83333   0.45311   0.75000   0.00000  Uiso   1.00
N1265  N     0.83333   0.61736   0.75000   0.00000  Uiso   1.00
N1266  N     0.83333   0.38264   0.75000   0.00000  Uiso   1.00
O1267  O     0.77321   0.53958   0.74999   0.00000  Uiso   1.00
O1268  O     0.89345   0.46042   0.75000   0.00000  Uiso   1.00
O1269  O     0.89345   0.53958   0.75000   0.00000  Uiso   1.00
O1270  O     0.77321   0.46042   0.74999   0.00000  Uiso   1.00
O1271  O     0.83332   0.53960   0.68513   0.00000  Uiso   1.00
O1272  O     0.83334   0.46040   0.81487   0.00000  Uiso   1.00
O1273  O     0.83334   0.53960   0.81487   0.00000  Uiso   1.00
O1274  O     0.83332   0.46040   0.68513   0.00000  Uiso   1.00
N1275  N     0.90804   0.52220   0.88576   0.00000  Uiso   1.00
H1276  H     0.90705   0.53087   0.85228   0.00000  Uiso   1.00
C1277  C     0.93327   0.48314   0.89479   0.00000  Uiso   1.00
H1278  H     0.96148   0.48594   0.87443   0.00000  Uiso   1.00
H1279  H     0.91616   0.45048   0.88620   0.00000  Uiso   1.00
H1280  H     0.94234   0.48227   0.93076   0.00000  Uiso   1.00
N1281  N     0.75564   0.51022   0.61847   0.00000  Uiso   1.00
H1282  H     0.75728   0.53628   0.64181   0.00000  Uiso   1.00
C1283  C     0.73854   0.46766   0.63648   0.00000  Uiso   1.00
H1284  H     0.70631   0.47264   0.64638   0.00000  Uiso   1.00
H1285  H     0.75602   0.45816   0.66669   0.00000  Uiso   1.00
H1286  H     0.73893   0.43956   0.61128   0.00000  Uiso   1.00
I1287  I     0.75747   0.43807   0.88018   0.00000  Uiso   1.00
I1288  I     0.92406   0.49977   0.62441   0.00000  Uiso   1.00
I1289  I     0.70532   0.52841   0.93069   0.00000  Uiso   1.00
I1290  I     0.93322   0.60341   0.56327   0.00000  Uiso   1.00
I1291  I     0.69216   0.50989   0.54510   0.00000  Uiso   1.00
I1292  I     0.94039   0.60067   0.94568   0.00000  Uiso   1.00
I1293  I     0.70557   0.39257   0.77711   0.00000  Uiso   1.00
I1294  I     0.95889   0.61003   0.74624   0.00000  Uiso   1.00
I1295  I     0.95193   0.40268   0.70319   0.00000  Uiso   1.00
I1296  I     0.71950   0.59525   0.80483   0.00000  Uiso   1.00
N1297  N     0.78736   0.37986   0.68553   0.00000  Uiso   1.00
H1298  H     0.80233   0.38856   0.65639   0.00000  Uiso   1.00
C1299  C     0.74585   0.36093   0.67790   0.00000  Uiso   1.00
H1300  H     0.72350   0.38851   0.68013   0.00000  Uiso   1.00
H1301  H     0.73701   0.33425   0.70310   0.00000  Uiso   1.00
H1302  H     0.74266   0.34579   0.64391   0.00000  Uiso   1.00
N1303  N     0.86520   0.62034   0.82385   0.00000  Uiso   1.00
H1304  H     0.89662   0.61885   0.82712   0.00000  Uiso   1.00
C1305  C     0.84399   0.63023   0.86501   0.00000  Uiso   1.00
H1306  H     0.86475   0.65006   0.88829   0.00000  Uiso   1.00
H1307  H     0.83431   0.59769   0.88173   0.00000  Uiso   1.00
H1308  H     0.81582   0.64995   0.85869   0.00000  Uiso   1.00
N1309  N     0.87567   0.38478   0.81649   0.00000  Uiso   1.00
H1310  H     0.86092   0.38721   0.84660   0.00000  Uiso   1.00
C1311  C     0.91956   0.37940   0.82024   0.00000  Uiso   1.00
H1312  H     0.93543   0.41383   0.81880   0.00000  Uiso   1.00
H1313  H     0.93108   0.35839   0.79267   0.00000  Uiso   1.00
H1314  H     0.92740   0.36268   0.85261   0.00000  Uiso   1.00
N1315  N     0.80281   0.61757   0.67599   0.00000  Uiso   1.00
H1316  H     0.77232   0.60714   0.67408   0.00000  Uiso   1.00
C1317  C     0.82278   0.63025   0.63438   0.00000  Uiso   1.00
H1318  H     0.80248   0.65145   0.61326   0.00000  Uiso   1.00
H1319  H     0.82915   0.59875   0.61533   0.00000  Uiso   1.00
H1320  H     0.85246   0.64954   0.64052   0.00000  Uiso   1.00
C1321  C     0.08775   0.83262   0.75487   0.00000  Uiso   1.00
C1322  C     0.24600   0.83409   0.74748   0.00000  Uiso   1.00
C1323  C     0.08668   0.84236   0.51907   0.00000  Uiso   1.00
C1324  C     0.23160   0.88671   0.97868   0.00000  Uiso   1.00
C1325  C     0.01936   0.79085   0.75292   0.00000  Uiso   1.00
C1326  C     0.31462   0.87587   0.75678   0.00000  Uiso   1.00
C1327  C     0.31153   0.79332   0.74060   0.00000  Uiso   1.00
C1328  C     0.02303   0.87324   0.76741   0.00000  Uiso   1.00
C1329  C     0.29124   0.83513   0.74620   0.00000  Uiso   1.00
C1330  C     0.04296   0.83165   0.76048   0.00000  Uiso   1.00
C1331  C     0.14575   0.69049   0.71757   0.00000  Uiso   1.00
C1332  C     0.18418   0.97632   0.78475   0.00000  Uiso   1.00
C1333  C     0.18711   0.69250   0.78271   0.00000  Uiso   1.00
C1334  C     0.14957   0.97479   0.71520   0.00000  Uiso   1.00
C1335  C     0.16561   0.83372   0.66435   0.00000  Uiso   1.00
C1336  C     0.16731   0.83331   0.83561   0.00000  Uiso   1.00
C1337  C     0.20278   0.85295   0.90767   0.00000  Uiso   1.00
C1338  C     0.12518   0.83973   0.59302   0.00000  Uiso   1.00
C1339  C     0.16794   0.83444   0.88448   0.00000  Uiso   1.00
C1340  C     0.16365   0.83652   0.61538   0.00000  Uiso   1.00
C1341  C     0.13156   0.82384   0.90711   0.00000  Uiso   1.00
C1342  C     0.20011   0.84743   0.59261   0.00000  Uiso   1.00
C1343  C     0.12768   0.83748   0.95172   0.00000  Uiso   1.00
C1344  C     0.19821   0.86120   0.54753   0.00000  Uiso   1.00
C1345  C     0.16312   0.85077   0.97626   0.00000  Uiso   1.00
C1346  C     0.16156   0.85178   0.52317   0.00000  Uiso   1.00
C1347  C     0.20018   0.86245   0.95404   0.00000  Uiso   1.00
C1348  C     0.12375   0.84347   0.54553   0.00000  Uiso   1.00
C1349  C     0.08928   0.84083   0.97197   0.00000  Uiso   1.00
C1350  C     0.23053   0.88603   0.52597   0.00000  Uiso   1.00
Cu1351 Cu    0.16667   0.88022   0.75000   0.00000  Uiso   1.00
Cu1352 Cu    0.16667   0.78645   0.75000   0.00000  Uiso   1.00
N1353  N     0.16667   0.95069   0.75000   0.00000  Uiso   1.00
N1354  N     0.16667   0.71598   0.75000   0.00000  Uiso   1.00
O1355  O     0.10655   0.87291   0.74999   0.00000  Uiso   1.00
O1356  O     0.22679   0.79375   0.75000   0.00000  Uiso   1.00
O1357  O     0.22679   0.87291   0.75000   0.00000  Uiso   1.00
O1358  O     0.10655   0.79375   0.74999   0.00000  Uiso   1.00
O1359  O     0.16666   0.87293   0.68513   0.00000  Uiso   1.00
O1360  O     0.16668   0.79373   0.81487   0.00000  Uiso   1.00
O1361  O     0.16668   0.87293   0.81487   0.00000  Uiso   1.00
O1362  O     0.16666   0.79373   0.68513   0.00000  Uiso   1.00
N1363  N     0.24138   0.85554   0.88576   0.00000  Uiso   1.00
H1364  H     0.24038   0.86420   0.85228   0.00000  Uiso   1.00
C1365  C     0.26660   0.81647   0.89479   0.00000  Uiso   1.00
H1366  H     0.29482   0.81927   0.87443   0.00000  Uiso   1.00
H1367  H     0.24950   0.78382   0.88620   0.00000  Uiso   1.00
H1368  H     0.27567   0.81560   0.93076   0.00000  Uiso   1.00
N1369  N     0.08897   0.84356   0.61847   0.00000  Uiso   1.00
H1370  H     0.09061   0.86961   0.64181   0.00000  Uiso   1.00
C1371  C     0.07187   0.80099   0.63648   0.00000  Uiso   1.00
H1372  H     0.03964   0.80597   0.64638   0.00000  Uiso   1.00
H1373  H     0.08936   0.79149   0.66669   0.00000  Uiso   1.00
H1374  H     0.07226   0.77289   0.61128   0.00000  Uiso   1.00
I1375  I     0.09080   0.77141   0.88018   0.00000  Uiso   1.00
I1376  I     0.25739   0.83311   0.62441   0.00000  Uiso   1.00
I1377  I     0.03865   0.86174   0.93069   0.00000  Uiso   1.00
I1378  I     0.26655   0.93674   0.56327   0.00000  Uiso   1.00
I1379  I     0.02549   0.84323   0.54510   0.00000  Uiso   1.00
I1380  I     0.27372   0.93400   0.94568   0.00000  Uiso   1.00
I1381  I     0.03890   0.72590   0.77711   0.00000  Uiso   1.00
I1382  I     0.29222   0.94337   0.74624   0.00000  Uiso   1.00
I1383  I     0.28527   0.73601   0.70319   0.00000  Uiso   1.00
I1384  I     0.05284   0.92859   0.80483   0.00000  Uiso   1.00
N1385  N     0.12069   0.71319   0.68553   0.00000  Uiso   1.00
H1386  H     0.13566   0.72189   0.65639   0.00000  Uiso   1.00
C1387  C     0.07918   0.69426   0.67790   0.00000  Uiso   1.00
H1388  H     0.05684   0.72185   0.68013   0.00000  Uiso   1.00
H1389  H     0.07034   0.66758   0.70310   0.00000  Uiso   1.00
H1390  H     0.07599   0.67913   0.64391   0.00000  Uiso   1.00
N1391  N     0.19853   0.95367   0.82385   0.00000  Uiso   1.00
H1392  H     0.22995   0.95219   0.82712   0.00000  Uiso   1.00
C1393  C     0.17733   0.96356   0.86501   0.00000  Uiso   1.00
H1394  H     0.19808   0.98340   0.88829   0.00000  Uiso   1.00
H1395  H     0.16764   0.93103   0.88173   0.00000  Uiso   1.00
H1396  H     0.14916   0.98328   0.85869   0.00000  Uiso   1.00
N1397  N     0.20900   0.71812   0.81649   0.00000  Uiso   1.00
H1398  H     0.19425   0.72055   0.84660   0.00000  Uiso   1.00
C1399  C     0.25289   0.71273   0.82024   0.00000  Uiso   1.00
H1400  H     0.26877   0.74716   0.81880   0.00000  Uiso   1.00
H1401  H     0.26441   0.69172   0.79267   0.00000  Uiso   1.00
H1402  H     0.26073   0.69602   0.85261   0.00000  Uiso   1.00
N1403  N     0.13615   0.95090   0.67599   0.00000  Uiso   1.00
H1404  H     0.10566   0.94048   0.67408   0.00000  Uiso   1.00
C1405  C     0.15612   0.96358   0.63438   0.00000  Uiso   1.00
H1406  H     0.13582   0.98479   0.61326   0.00000  Uiso   1.00
H1407  H     0.16248   0.93208   0.61533   0.00000  Uiso   1.00
H1408  H     0.18580   0.98287   0.64052   0.00000  Uiso   1.00
C1409  C     0.42109   0.83262   0.75487   0.00000  Uiso   1.00
C1410  C     0.57933   0.83409   0.74748   0.00000  Uiso   1.00
C1411  C     0.42001   0.84236   0.51907   0.00000  Uiso   1.00
C1412  C     0.56493   0.88671   0.97868   0.00000  Uiso   1.00
C1413  C     0.35269   0.79085   0.75292   0.00000  Uiso   1.00
C1414  C     0.64796   0.87587   0.75678   0.00000  Uiso   1.00
C1415  C     0.64487   0.79332   0.74060   0.00000  Uiso   1.00
C1416  C     0.35636   0.87324   0.76741   0.00000  Uiso   1.00
C1417  C     0.62458   0.83513   0.74620   0.00000  Uiso   1.00
C1418  C     0.37629   0.83165   0.76048   0.00000  Uiso   1.00
C1419  C     0.47908   0.69049   0.71757   0.00000  Uiso   1.00
C1420  C     0.51752   0.97632   0.78475   0.00000  Uiso   1.00
C1421  C     0.52045   0.69250   0.78271   0.00000  Uiso   1.00
C1422  C     0.48291   0.97479   0.71520   0.00000  Uiso   1.00
C1423  C     0.49894   0.83372   0.66435   0.00000  Uiso   1.00
C1424  C     0.50064   0.83331   0.83561   0.00000  Uiso   1.00
C1425  C     0.53612   0.85295   0.90767   0.00000  Uiso   1.00
C1426  C     0.45851   0.83973   0.59302   0.00000  Uiso   1.00
C1427  C     0.50127   0.83444   0.88448   0.00000  Uiso   1.00
C1428  C     0.49698   0.83652   0.61538   0.00000  Uiso   1.00
C1429  C     0.46489   0.82384   0.90711   0.00000  Uiso   1.00
C1430  C     0.53345   0.84743   0.59261   0.00000  Uiso   1.00
C1431  C     0.46102   0.83748   0.95172   0.00000  Uiso   1.00
C1432  C     0.53154   0.86120   0.54753   0.00000  Uiso   1.00
C1433  C     0.49645   0.85077   0.97626   0.00000  Uiso   1.00
C1434  C     0.49489   0.85178   0.52317   0.00000  Uiso   1.00
C1435  C     0.53351   0.86245   0.95404   0.00000  Uiso   1.00
C1436  C     0.45708   0.84347   0.54553   0.00000  Uiso   1.00
C1437  C     0.42261   0.84083   0.97197   0.00000  Uiso   1.00
C1438  C     0.56386   0.88603   0.52597   0.00000  Uiso   1.00
Cu1439 Cu    0.50000   0.88022   0.75000   0.00000  Uiso   1.00
Cu1440 Cu    0.50000   0.78645   0.75000   0.00000  Uiso   1.00
N1441  N     0.50000   0.95069   0.75000   0.00000  Uiso   1.00
N1442  N     0.50000   0.71598   0.75000   0.00000  Uiso   1.00
O1443  O     0.43988   0.87291   0.74999   0.00000  Uiso   1.00
O1444  O     0.56012   0.79375   0.75000   0.00000  Uiso   1.00
O1445  O     0.56012   0.87291   0.75000   0.00000  Uiso   1.00
O1446  O     0.43988   0.79375   0.74999   0.00000  Uiso   1.00
O1447  O     0.49999   0.87293   0.68513   0.00000  Uiso   1.00
O1448  O     0.50001   0.79373   0.81487   0.00000  Uiso   1.00
O1449  O     0.50001   0.87293   0.81487   0.00000  Uiso   1.00
O1450  O     0.49999   0.79373   0.68513   0.00000  Uiso   1.00
N1451  N     0.57471   0.85554   0.88576   0.00000  Uiso   1.00
H1452  H     0.57371   0.86420   0.85228   0.00000  Uiso   1.00
C1453  C     0.59993   0.81647   0.89479   0.00000  Uiso   1.00
H1454  H     0.62815   0.81927   0.87443   0.00000  Uiso   1.00
H1455  H     0.58283   0.78382   0.88620   0.00000  Uiso   1.00
H1456  H     0.60901   0.81560   0.93076   0.00000  Uiso   1.00
N1457  N     0.42231   0.84356   0.61847   0.00000  Uiso   1.00
H1458  H     0.42395   0.86961   0.64181   0.00000  Uiso   1.00
C1459  C     0.40520   0.80099   0.63648   0.00000  Uiso   1.00
H1460  H     0.37297   0.80597   0.64638   0.00000  Uiso   1.00
H1461  H     0.42269   0.79149   0.66669   0.00000  Uiso   1.00
H1462  H     0.40559   0.77289   0.61128   0.00000  Uiso   1.00
I1463  I     0.42413   0.77141   0.88018   0.00000  Uiso   1.00
I1464  I     0.59072   0.83311   0.62441   0.00000  Uiso   1.00
I1465  I     0.37199   0.86174   0.93069   0.00000  Uiso   1.00
I1466  I     0.59989   0.93674   0.56327   0.00000  Uiso   1.00
I1467  I     0.35883   0.84323   0.54510   0.00000  Uiso   1.00
I1468  I     0.60706   0.93400   0.94568   0.00000  Uiso   1.00
I1469  I     0.37223   0.72590   0.77711   0.00000  Uiso   1.00
I1470  I     0.62555   0.94337   0.74624   0.00000  Uiso   1.00
I1471  I     0.61860   0.73601   0.70319   0.00000  Uiso   1.00
I1472  I     0.38617   0.92859   0.80483   0.00000  Uiso   1.00
N1473  N     0.45402   0.71319   0.68553   0.00000  Uiso   1.00
H1474  H     0.46900   0.72189   0.65639   0.00000  Uiso   1.00
C1475  C     0.41251   0.69426   0.67790   0.00000  Uiso   1.00
H1476  H     0.39017   0.72185   0.68013   0.00000  Uiso   1.00
H1477  H     0.40367   0.66758   0.70310   0.00000  Uiso   1.00
H1478  H     0.40933   0.67913   0.64391   0.00000  Uiso   1.00
N1479  N     0.53186   0.95367   0.82385   0.00000  Uiso   1.00
H1480  H     0.56328   0.95219   0.82712   0.00000  Uiso   1.00
C1481  C     0.51066   0.96356   0.86501   0.00000  Uiso   1.00
H1482  H     0.53141   0.98340   0.88829   0.00000  Uiso   1.00
H1483  H     0.50098   0.93103   0.88173   0.00000  Uiso   1.00
H1484  H     0.48249   0.98328   0.85869   0.00000  Uiso   1.00
N1485  N     0.54234   0.71812   0.81649   0.00000  Uiso   1.00
H1486  H     0.52758   0.72055   0.84660   0.00000  Uiso   1.00
C1487  C     0.58622   0.71273   0.82024   0.00000  Uiso   1.00
H1488  H     0.60210   0.74716   0.81880   0.00000  Uiso   1.00
H1489  H     0.59775   0.69172   0.79267   0.00000  Uiso   1.00
H1490  H     0.59407   0.69602   0.85261   0.00000  Uiso   1.00
N1491  N     0.46948   0.95090   0.67599   0.00000  Uiso   1.00
H1492  H     0.43899   0.94048   0.67408   0.00000  Uiso   1.00
C1493  C     0.48945   0.96358   0.63438   0.00000  Uiso   1.00
H1494  H     0.46915   0.98479   0.61326   0.00000  Uiso   1.00
H1495  H     0.49581   0.93208   0.61533   0.00000  Uiso   1.00
H1496  H     0.51913   0.98287   0.64052   0.00000  Uiso   1.00
C1497  C     0.75442   0.83262   0.75487   0.00000  Uiso   1.00
C1498  C     0.91267   0.83409   0.74748   0.00000  Uiso   1.00
C1499  C     0.75335   0.84236   0.51907   0.00000  Uiso   1.00
C1500  C     0.89826   0.88671   0.97868   0.00000  Uiso   1.00
C1501  C     0.68602   0.79085   0.75292   0.00000  Uiso   1.00
C1502  C     0.98129   0.87587   0.75678   0.00000  Uiso   1.00
C1503  C     0.97820   0.79332   0.74060   0.00000  Uiso   1.00
C1504  C     0.68969   0.87324   0.76741   0.00000  Uiso   1.00
C1505  C     0.95791   0.83513   0.74620   0.00000  Uiso   1.00
C1506  C     0.70962   0.83165   0.76048   0.00000  Uiso   1.00
C1507  C     0.81242   0.69049   0.71757   0.00000  Uiso   1.00
C1508  C     0.85085   0.97632   0.78475   0.00000  Uiso   1.00
C1509  C     0.85378   0.69250   0.78271   0.00000  Uiso   1.00
C1510  C     0.81624   0.97479   0.71520   0.00000  Uiso   1.00
C1511  C     0.83227   0.83372   0.66435   0.00000  Uiso   1.00
C1512  C     0.83397   0.83331   0.83561   0.00000  Uiso   1.00
C1513  C     0.86945   0.85295   0.90767   0.00000  Uiso   1.00
C1514  C     0.79184   0.83973   0.59302   0.00000  Uiso   1.00
C1515  C     0.83460   0.83444   0.88448   0.00000  Uiso   1.00
C1516  C     0.83032   0.83652   0.61538   0.00000  Uiso   1.00
C1517  C     0.79822   0.82384   0.90711   0.00000  Uiso   1.00
C1518  C     0.86678   0.84743   0.59261   0.00000  Uiso   1.00
C1519  C     0.79435   0.83748   0.95172   0.00000  Uiso   1.00
C1520  C     0.86487   0.86120   0.54753   0.00000  Uiso   1.00
C1521  C     0.82979   0.85077   0.97626   0.00000  Uiso   1.00
C1522  C     0.82822   0.85178   0.52317   0.00000  Uiso   1.00
C1523  C     0.86684   0.86245   0.95404   0.00000  Uiso   1.00
C1524  C     0.79042   0.84347   0.54553   0.00000  Uiso   1.00
C1525  C     0.75595   0.84083   0.97197   0.00000  Uiso   1.00
C1526  C     0.89719   0.88603   0.52597   0.00000  Uiso   1.00
Cu1527 Cu    0.83333   0.88022   0.75000   0.00000  Uiso   1.00
Cu1528 Cu    0.83333   0.78645   0.75000   0.00000  Uiso   1.00
N1529  N     0.83333   0.95069   0.75000   0.00000  Uiso   1.00
N1530  N     0.83333   0.71598   0.75000   0.00000  Uiso   1.00
O1531  O     0.77321   0.87291   0.74999   0.00000  Uiso   1.00
O1532  O     0.89345   0.79375   0.75000   0.00000  Uiso   1.00
O1533  O     0.89345   0.87291   0.75000   0.00000  Uiso   1.00
O1534  O     0.77321   0.79375   0.74999   0.00000  Uiso   1.00
O1535  O     0.83332   0.87293   0.68513   0.00000  Uiso   1.00
O1536  O     0.83334   0.79373   0.81487   0.00000  Uiso   1.00
O1537  O     0.83334   0.87293   0.81487   0.00000  Uiso   1.00
O1538  O     0.83332   0.79373   0.68513   0.00000  Uiso   1.00
N1539  N     0.90804   0.85554   0.88576   0.00000  Uiso   1.00
H1540  H     0.90705   0.86420   0.85228   0.00000  Uiso   1.00
C1541  C     0.93327   0.81647   0.89479   0.00000  Uiso   1.00
H1542  H     0.96148   0.81927   0.87443   0.00000  Uiso   1.00
H1543  H     0.91616   0.78382   0.88620   0.00000  Uiso   1.00
H1544  H     0.94234   0.81560   0.93076   0.00000  Uiso   1.00
N1545  N     0.75564   0.84356   0.61847   0.00000  Uiso   1.00
H1546  H     0.75728   0.86961   0.64181   0.00000  Uiso   1.00
C1547  C     0.73854   0.80099   0.63648   0.00000  Uiso   1.00
H1548  H     0.70631   0.80597   0.64638   0.00000  Uiso   1.00
H1549  H     0.75602   0.79149   0.66669   0.00000  Uiso   1.00
H1550  H     0.73893   0.77289   0.61128   0.00000  Uiso   1.00
I1551  I     0.75747   0.77141   0.88018   0.00000  Uiso   1.00
I1552  I     0.92406   0.83311   0.62441   0.00000  Uiso   1.00
I1553  I     0.70532   0.86174   0.93069   0.00000  Uiso   1.00
I1554  I     0.93322   0.93674   0.56327   0.00000  Uiso   1.00
I1555  I     0.69216   0.84323   0.54510   0.00000  Uiso   1.00
I1556  I     0.94039   0.93400   0.94568   0.00000  Uiso   1.00
I1557  I     0.70557   0.72590   0.77711   0.00000  Uiso   1.00
I1558  I     0.95889   0.94337   0.74624   0.00000  Uiso   1.00
I1559  I     0.95193   0.73601   0.70319   0.00000  Uiso   1.00
I1560  I     0.71950   0.92859   0.80483   0.00000  Uiso   1.00
N1561  N     0.78736   0.71319   0.68553   0.00000  Uiso   1.00
H1562  H     0.80233   0.72189   0.65639   0.00000  Uiso   1.00
C1563  C     0.74585   0.69426   0.67790   0.00000  Uiso   1.00
H1564  H     0.72350   0.72185   0.68013   0.00000  Uiso   1.00
H1565  H     0.73701   0.66758   0.70310   0.00000  Uiso   1.00
H1566  H     0.74266   0.67913   0.64391   0.00000  Uiso   1.00
N1567  N     0.86520   0.95367   0.82385   0.00000  Uiso   1.00
H1568  H     0.89662   0.95219   0.82712   0.00000  Uiso   1.00
C1569  C     0.84399   0.96356   0.86501   0.00000  Uiso   1.00
H1570  H     0.86475   0.98340   0.88829   0.00000  Uiso   1.00
H1571  H     0.83431   0.93103   0.88173   0.00000  Uiso   1.00
H1572  H     0.81582   0.98328   0.85869   0.00000  Uiso   1.00
N1573  N     0.87567   0.71812   0.81649   0.00000  Uiso   1.00
H1574  H     0.86092   0.72055   0.84660   0.00000  Uiso   1.00
C1575  C     0.91956   0.71273   0.82024   0.00000  Uiso   1.00
H1576  H     0.93543   0.74716   0.81880   0.00000  Uiso   1.00
H1577  H     0.93108   0.69172   0.79267   0.00000  Uiso   1.00
H1578  H     0.92740   0.69602   0.85261   0.00000  Uiso   1.00
N1579  N     0.80281   0.95090   0.67599   0.00000  Uiso   1.00
H1580  H     0.77232   0.94048   0.67408   0.00000  Uiso   1.00
C1581  C     0.82278   0.96358   0.63438   0.00000  Uiso   1.00
H1582  H     0.80248   0.98479   0.61326   0.00000  Uiso   1.00
H1583  H     0.82915   0.93208   0.61533   0.00000  Uiso   1.00
H1584  H     0.85246   0.98287   0.64052   0.00000  Uiso   1.00
loop_
_geom_bond_atom_site_label_1
_geom_bond_atom_site_label_2
_geom_bond_distance
_geom_bond_site_symmetry_2
_ccdc_geom_bond_type
C1     O38     1.312   .     A
C1     O35     1.308   .     A
C1     C10     1.472   .     S
C2     O36     1.308   .     A
C2     O37     1.311   .     A
C2     C9      1.475   .     S
C3     C28     1.434   .     A
C3     I59     2.153   .     S
C3     C821    1.412   1_554 S
C4     C27     1.419   .     A
C4     I60     2.152   .     S
C4     C822    1.414   .     S
C5     C10     1.404   .     A
C5     I61     2.130   .     S
C5     C183    1.390   1_455 S
C6     C9      1.416   .     A
C6     I62     2.134   .     S
C6     C96     1.397   .     S
C7     I63     2.150   .     S
C7     C9      1.414   .     A
C7     C93     1.390   .     S
C8     I64     2.153   .     S
C8     C10     1.408   .     A
C8     C182    1.397   1_455 S
C11    N34     1.378   .     A
C11    N65     1.425   .     S
C11    C542    1.433   1_545 S
C12    N71     1.419   .     S
C12    N33     1.383   .     A
C12    C277    1.436   .     S
C13    N77     1.423   .     S
C13    N34     1.368   .     A
C13    C540    1.436   1_545 S
C14    N33     1.373   .     A
C14    N83     1.418   .     S
C14    C275    1.433   .     S
C15    C20     1.465   .     S
C15    O39     1.296   .     A
C15    O42     1.314   .     A
C16    O40     1.305   .     A
C16    C19     1.460   .     S
C16    O41     1.304   .     A
C17    C27     1.418   .     A
C17    N43     1.426   .     S
C17    C19     1.412   .     A
C18    C20     1.418   .     A
C18    C28     1.422   .     A
C18    N49     1.421   .     S
C19    C21     1.397   .     A
C20    C22     1.404   .     A
C21    I55     2.133   .     S
C21    C23     1.400   .     A
C22    I56     2.136   .     S
C22    C24     1.404   .     A
C23    C29     1.405   .     A
C23    C25     1.401   .     A
C24    C26     1.408   .     A
C24    C30     1.416   .     A
C25    C27     1.416   .     A
C25    C818    1.404   .     S
C26    C28     1.423   .     A
C26    C817    1.404   1_554 S
C29    I57     2.149   .     S
C29    C795    1.412   .     S
C30    I58     2.151   .     S
C30    C796    1.414   1_554 S
Cu31   N33     2.043   .     S
Cu31   O37     1.979   .     S
Cu31   Cu32    2.718   .     S
Cu31   O35     1.963   .     S
Cu31   O41     1.949   .     S
Cu31   O39     1.950   .     S
Cu32   O36     1.963   .     S
Cu32   O38     1.979   .     S
Cu32   N34     2.043   .     S
Cu32   O40     1.950   .     S
Cu32   O42     1.949   .     S
N43    H44     1.030   .     S
N43    C45     1.446   .     S
C45    H48     1.111   .     S
C45    H47     1.110   .     S
C45    H46     1.111   .     S
N49    C51     1.441   .     S
N49    H50     1.029   .     S
C51    H52     1.110   .     S
C51    H54     1.112   .     S
C51    H53     1.100   .     S
N65    C67     1.456   .     S
N65    H66     1.030   .     S
C67    H68     1.104   .     S
C67    H69     1.111   .     S
C67    H70     1.110   .     S
N71    H72     1.030   .     S
N71    C73     1.454   .     S
C73    H74     1.110   .     S
C73    H75     1.104   .     S
C73    H76     1.113   .     S
N77    H78     1.030   .     S
N77    C79     1.447   .     S
C79    H81     1.104   .     S
C79    H82     1.111   .     S
C79    H80     1.108   .     S
N83    H84     1.029   .     S
N83    C85     1.452   .     S
C85    H87     1.105   .     S
C85    H86     1.108   .     S
C85    H88     1.113   .     S
C89    O126    1.312   .     A
C89    O123    1.308   .     A
C89    C98     1.472   .     S
C90    O124    1.308   .     A
C90    O125    1.311   .     A
C90    C97     1.475   .     S
C91    C116    1.434   .     A
C91    I147    2.153   .     S
C91    C909    1.412   1_554 S
C92    C115    1.419   .     A
C92    I148    2.152   .     S
C92    C910    1.414   .     S
C93    C98     1.404   .     A
C93    I149    2.130   .     S
C94    C97     1.416   .     A
C94    I150    2.134   .     S
C94    C184    1.397   .     S
C95    I151    2.150   .     S
C95    C97     1.414   .     A
C95    C181    1.390   .     S
C96    I152    2.153   .     S
C96    C98     1.408   .     A
C99    N122    1.378   .     A
C99    N153    1.425   .     S
C99    C630    1.433   1_545 S
C100   N159    1.419   .     S
C100   N121    1.383   .     A
C100   C365    1.436   .     S
C101   N165    1.423   .     S
C101   N122    1.368   .     A
C101   C628    1.436   1_545 S
C102   N121    1.373   .     A
C102   N171    1.418   .     S
C102   C363    1.433   .     S
C103   C108    1.465   .     S
C103   O127    1.296   .     A
C103   O130    1.314   .     A
C104   O128    1.305   .     A
C104   C107    1.460   .     S
C104   O129    1.304   .     A
C105   C115    1.418   .     A
C105   N131    1.426   .     S
C105   C107    1.412   .     A
C106   C108    1.418   .     A
C106   C116    1.422   .     A
C106   N137    1.421   .     S
C107   C109    1.397   .     A
C108   C110    1.404   .     A
C109   I143    2.133   .     S
C109   C111    1.400   .     A
C110   I144    2.136   .     S
C110   C112    1.404   .     A
C111   C117    1.405   .     A
C111   C113    1.401   .     A
C112   C114    1.408   .     A
C112   C118    1.416   .     A
C113   C115    1.416   .     A
C113   C906    1.404   .     S
C114   C116    1.423   .     A
C114   C905    1.404   1_554 S
C117   I145    2.149   .     S
C117   C883    1.412   .     S
C118   I146    2.151   .     S
C118   C884    1.414   1_554 S
Cu119  N121    2.043   .     S
Cu119  O125    1.979   .     S
Cu119  Cu120   2.718   .     S
Cu119  O123    1.963   .     S
Cu119  O129    1.949   .     S
Cu119  O127    1.950   .     S
Cu120  O124    1.963   .     S
Cu120  O126    1.979   .     S
Cu120  N122    2.043   .     S
Cu120  O128    1.950   .     S
Cu120  O130    1.949   .     S
N131   H132    1.030   .     S
N131   C133    1.446   .     S
C133   H136    1.111   .     S
C133   H135    1.110   .     S
C133   H134    1.111   .     S
N137   C139    1.441   .     S
N137   H138    1.029   .     S
C139   H140    1.110   .     S
C139   H142    1.112   .     S
C139   H141    1.100   .     S
N153   C155    1.456   .     S
N153   H154    1.030   .     S
C155   H156    1.104   .     S
C155   H157    1.111   .     S
C155   H158    1.110   .     S
N159   H160    1.030   .     S
N159   C161    1.454   .     S
C161   H162    1.110   .     S
C161   H163    1.104   .     S
C161   H164    1.113   .     S
N165   H166    1.030   .     S
N165   C167    1.447   .     S
C167   H169    1.104   .     S
C167   H170    1.111   .     S
C167   H168    1.108   .     S
N171   H172    1.029   .     S
N171   C173    1.452   .     S
C173   H175    1.105   .     S
C173   H174    1.108   .     S
C173   H176    1.113   .     S
C177   O214    1.312   .     A
C177   O211    1.308   .     A
C177   C186    1.472   .     S
C178   O212    1.308   .     A
C178   O213    1.311   .     A
C178   C185    1.475   .     S
C179   C204    1.434   .     A
C179   I235    2.153   .     S
C179   C997    1.412   1_554 S
C180   C203    1.419   .     A
C180   I236    2.152   .     S
C180   C998    1.414   .     S
C181   C186    1.404   .     A
C181   I237    2.130   .     S
C182   C185    1.416   .     A
C182   I238    2.134   .     S
C182   C8      1.397   1_655 S
C183   I239    2.150   .     S
C183   C185    1.414   .     A
C183   C5      1.390   1_655 S
C184   I240    2.153   .     S
C184   C186    1.408   .     A
C187   N210    1.378   .     A
C187   N241    1.425   .     S
C187   C718    1.433   1_545 S
C188   N247    1.419   .     S
C188   N209    1.383   .     A
C188   C453    1.436   .     S
C189   N253    1.423   .     S
C189   N210    1.368   .     A
C189   C716    1.436   1_545 S
C190   N209    1.373   .     A
C190   N259    1.418   .     S
C190   C451    1.433   .     S
C191   C196    1.465   .     S
C191   O215    1.296   .     A
C191   O218    1.314   .     A
C192   O216    1.305   .     A
C192   C195    1.460   .     S
C192   O217    1.304   .     A
C193   C203    1.418   .     A
C193   N219    1.426   .     S
C193   C195    1.412   .     A
C194   C196    1.418   .     A
C194   C204    1.422   .     A
C194   N225    1.421   .     S
C195   C197    1.397   .     A
C196   C198    1.404   .     A
C197   I231    2.133   .     S
C197   C199    1.400   .     A
C198   I232    2.136   .     S
C198   C200    1.404   .     A
C199   C205    1.405   .     A
C199   C201    1.401   .     A
C200   C202    1.408   .     A
C200   C206    1.416   .     A
C201   C203    1.416   .     A
C201   C994    1.404   .     S
C202   C204    1.423   .     A
C202   C993    1.404   1_554 S
C205   I233    2.149   .     S
C205   C971    1.412   .     S
C206   I234    2.151   .     S
C206   C972    1.414   1_554 S
Cu207  N209    2.043   .     S
Cu207  O213    1.979   .     S
Cu207  Cu208   2.718   .     S
Cu207  O211    1.963   .     S
Cu207  O217    1.949   .     S
Cu207  O215    1.950   .     S
Cu208  O212    1.963   .     S
Cu208  O214    1.979   .     S
Cu208  N210    2.043   .     S
Cu208  O216    1.950   .     S
Cu208  O218    1.949   .     S
N219   H220    1.030   .     S
N219   C221    1.446   .     S
C221   H224    1.111   .     S
C221   H223    1.110   .     S
C221   H222    1.111   .     S
N225   C227    1.441   .     S
N225   H226    1.029   .     S
C227   H228    1.110   .     S
C227   H230    1.112   .     S
C227   H229    1.100   .     S
N241   C243    1.456   .     S
N241   H242    1.030   .     S
C243   H244    1.104   .     S
C243   H245    1.111   .     S
C243   H246    1.110   .     S
N247   H248    1.030   .     S
N247   C249    1.454   .     S
C249   H250    1.110   .     S
C249   H251    1.104   .     S
C249   H252    1.113   .     S
N253   H254    1.030   .     S
N253   C255    1.447   .     S
C255   H257    1.104   .     S
C255   H258    1.111   .     S
C255   H256    1.108   .     S
N259   H260    1.029   .     S
N259   C261    1.452   .     S
C261   H263    1.105   .     S
C261   H262    1.108   .     S
C261   H264    1.113   .     S
C265   O302    1.312   .     A
C265   O299    1.308   .     A
C265   C274    1.472   .     S
C266   O300    1.308   .     A
C266   O301    1.311   .     A
C266   C273    1.475   .     S
C267   C292    1.434   .     A
C267   I323    2.153   .     S
C267   C1085   1.412   1_554 S
C268   C291    1.419   .     A
C268   I324    2.152   .     S
C268   C1086   1.414   .     S
C269   C274    1.404   .     A
C269   I325    2.130   .     S
C269   C447    1.390   1_455 S
C270   C273    1.416   .     A
C270   I326    2.134   .     S
C270   C360    1.397   .     S
C271   I327    2.150   .     S
C271   C273    1.414   .     A
C271   C357    1.390   .     S
C272   I328    2.153   .     S
C272   C274    1.408   .     A
C272   C446    1.397   1_455 S
C275   N298    1.378   .     A
C275   N329    1.425   .     S
C276   N335    1.419   .     S
C276   N297    1.383   .     A
C276   C541    1.436   .     S
C277   N341    1.423   .     S
C277   N298    1.368   .     A
C278   N297    1.373   .     A
C278   N347    1.418   .     S
C278   C539    1.433   .     S
C279   C284    1.465   .     S
C279   O303    1.296   .     A
C279   O306    1.314   .     A
C280   O304    1.305   .     A
C280   C283    1.460   .     S
C280   O305    1.304   .     A
C281   C291    1.418   .     A
C281   N307    1.426   .     S
C281   C283    1.412   .     A
C282   C284    1.418   .     A
C282   C292    1.422   .     A
C282   N313    1.421   .     S
C283   C285    1.397   .     A
C284   C286    1.404   .     A
C285   I319    2.133   .     S
C285   C287    1.400   .     A
C286   I320    2.136   .     S
C286   C288    1.404   .     A
C287   C293    1.405   .     A
C287   C289    1.401   .     A
C288   C290    1.408   .     A
C288   C294    1.416   .     A
C289   C291    1.416   .     A
C289   C1082   1.404   .     S
C290   C292    1.423   .     A
C290   C1081   1.404   1_554 S
C293   I321    2.149   .     S
C293   C1059   1.412   .     S
C294   I322    2.151   .     S
C294   C1060   1.414   1_554 S
Cu295  N297    2.043   .     S
Cu295  O301    1.979   .     S
Cu295  Cu296   2.718   .     S
Cu295  O299    1.963   .     S
Cu295  O305    1.949   .     S
Cu295  O303    1.950   .     S
Cu296  O300    1.963   .     S
Cu296  O302    1.979   .     S
Cu296  N298    2.043   .     S
Cu296  O304    1.950   .     S
Cu296  O306    1.949   .     S
N307   H308    1.030   .     S
N307   C309    1.446   .     S
C309   H312    1.111   .     S
C309   H311    1.110   .     S
C309   H310    1.111   .     S
N313   C315    1.441   .     S
N313   H314    1.029   .     S
C315   H316    1.110   .     S
C315   H318    1.112   .     S
C315   H317    1.100   .     S
N329   C331    1.456   .     S
N329   H330    1.030   .     S
C331   H332    1.104   .     S
C331   H333    1.111   .     S
C331   H334    1.110   .     S
N335   H336    1.030   .     S
N335   C337    1.454   .     S
C337   H338    1.110   .     S
C337   H339    1.104   .     S
C337   H340    1.113   .     S
N341   H342    1.030   .     S
N341   C343    1.447   .     S
C343   H345    1.104   .     S
C343   H346    1.111   .     S
C343   H344    1.108   .     S
N347   H348    1.029   .     S
N347   C349    1.452   .     S
C349   H351    1.105   .     S
C349   H350    1.108   .     S
C349   H352    1.113   .     S
C353   O390    1.312   .     A
C353   O387    1.308   .     A
C353   C362    1.472   .     S
C354   O388    1.308   .     A
C354   O389    1.311   .     A
C354   C361    1.475   .     S
C355   C380    1.434   .     A
C355   I411    2.153   .     S
C355   C1173   1.412   1_554 S
C356   C379    1.419   .     A
C356   I412    2.152   .     S
C356   C1174   1.414   .     S
C357   C362    1.404   .     A
C357   I413    2.130   .     S
C358   C361    1.416   .     A
C358   I414    2.134   .     S
C358   C448    1.397   .     S
C359   I415    2.150   .     S
C359   C361    1.414   .     A
C359   C445    1.390   .     S
C360   I416    2.153   .     S
C360   C362    1.408   .     A
C363   N386    1.378   .     A
C363   N417    1.425   .     S
C364   N423    1.419   .     S
C364   N385    1.383   .     A
C364   C629    1.436   .     S
C365   N429    1.423   .     S
C365   N386    1.368   .     A
C366   N385    1.373   .     A
C366   N435    1.418   .     S
C366   C627    1.433   .     S
C367   C372    1.465   .     S
C367   O391    1.296   .     A
C367   O394    1.314   .     A
C368   O392    1.305   .     A
C368   C371    1.460   .     S
C368   O393    1.304   .     A
C369   C379    1.418   .     A
C369   N395    1.426   .     S
C369   C371    1.412   .     A
C370   C372    1.418   .     A
C370   C380    1.422   .     A
C370   N401    1.421   .     S
C371   C373    1.397   .     A
C372   C374    1.404   .     A
C373   I407    2.133   .     S
C373   C375    1.400   .     A
C374   I408    2.136   .     S
C374   C376    1.404   .     A
C375   C381    1.405   .     A
C375   C377    1.401   .     A
C376   C378    1.408   .     A
C376   C382    1.416   .     A
C377   C379    1.416   .     A
C377   C1170   1.404   .     S
C378   C380    1.423   .     A
C378   C1169   1.404   1_554 S
C381   I409    2.149   .     S
C381   C1147   1.412   .     S
C382   I410    2.151   .     S
C382   C1148   1.414   1_554 S
Cu383  N385    2.043   .     S
Cu383  O389    1.979   .     S
Cu383  Cu384   2.718   .     S
Cu383  O387    1.963   .     S
Cu383  O393    1.949   .     S
Cu383  O391    1.950   .     S
Cu384  O388    1.963   .     S
Cu384  O390    1.979   .     S
Cu384  N386    2.043   .     S
Cu384  O392    1.950   .     S
Cu384  O394    1.949   .     S
N395   H396    1.030   .     S
N395   C397    1.446   .     S
C397   H400    1.111   .     S
C397   H399    1.110   .     S
C397   H398    1.111   .     S
N401   C403    1.441   .     S
N401   H402    1.029   .     S
C403   H404    1.110   .     S
C403   H406    1.112   .     S
C403   H405    1.100   .     S
N417   C419    1.456   .     S
N417   H418    1.030   .     S
C419   H420    1.104   .     S
C419   H421    1.111   .     S
C419   H422    1.110   .     S
N423   H424    1.030   .     S
N423   C425    1.454   .     S
C425   H426    1.110   .     S
C425   H427    1.104   .     S
C425   H428    1.113   .     S
N429   H430    1.030   .     S
N429   C431    1.447   .     S
C431   H433    1.104   .     S
C431   H434    1.111   .     S
C431   H432    1.108   .     S
N435   H436    1.029   .     S
N435   C437    1.452   .     S
C437   H439    1.105   .     S
C437   H438    1.108   .     S
C437   H440    1.113   .     S
C441   O478    1.312   .     A
C441   O475    1.308   .     A
C441   C450    1.472   .     S
C442   O476    1.308   .     A
C442   O477    1.311   .     A
C442   C449    1.475   .     S
C443   C468    1.434   .     A
C443   I499    2.153   .     S
C443   C1261   1.412   1_554 S
C444   C467    1.419   .     A
C444   I500    2.152   .     S
C444   C1262   1.414   .     S
C445   C450    1.404   .     A
C445   I501    2.130   .     S
C446   C449    1.416   .     A
C446   I502    2.134   .     S
C446   C272    1.397   1_655 S
C447   I503    2.150   .     S
C447   C449    1.414   .     A
C447   C269    1.390   1_655 S
C448   I504    2.153   .     S
C448   C450    1.408   .     A
C451   N474    1.378   .     A
C451   N505    1.425   .     S
C452   N511    1.419   .     S
C452   N473    1.383   .     A
C452   C717    1.436   .     S
C453   N517    1.423   .     S
C453   N474    1.368   .     A
C454   N473    1.373   .     A
C454   N523    1.418   .     S
C454   C715    1.433   .     S
C455   C460    1.465   .     S
C455   O479    1.296   .     A
C455   O482    1.314   .     A
C456   O480    1.305   .     A
C456   C459    1.460   .     S
C456   O481    1.304   .     A
C457   C467    1.418   .     A
C457   N483    1.426   .     S
C457   C459    1.412   .     A
C458   C460    1.418   .     A
C458   C468    1.422   .     A
C458   N489    1.421   .     S
C459   C461    1.397   .     A
C460   C462    1.404   .     A
C461   I495    2.133   .     S
C461   C463    1.400   .     A
C462   I496    2.136   .     S
C462   C464    1.404   .     A
C463   C469    1.405   .     A
C463   C465    1.401   .     A
C464   C466    1.408   .     A
C464   C470    1.416   .     A
C465   C467    1.416   .     A
C465   C1258   1.404   .     S
C466   C468    1.423   .     A
C466   C1257   1.404   1_554 S
C469   I497    2.149   .     S
C469   C1235   1.412   .     S
C470   I498    2.151   .     S
C470   C1236   1.414   1_554 S
Cu471  N473    2.043   .     S
Cu471  O477    1.979   .     S
Cu471  Cu472   2.718   .     S
Cu471  O475    1.963   .     S
Cu471  O481    1.949   .     S
Cu471  O479    1.950   .     S
Cu472  O476    1.963   .     S
Cu472  O478    1.979   .     S
Cu472  N474    2.043   .     S
Cu472  O480    1.950   .     S
Cu472  O482    1.949   .     S
N483   H484    1.030   .     S
N483   C485    1.446   .     S
C485   H488    1.111   .     S
C485   H487    1.110   .     S
C485   H486    1.111   .     S
N489   C491    1.441   .     S
N489   H490    1.029   .     S
C491   H492    1.110   .     S
C491   H494    1.112   .     S
C491   H493    1.100   .     S
N505   C507    1.456   .     S
N505   H506    1.030   .     S
C507   H508    1.104   .     S
C507   H509    1.111   .     S
C507   H510    1.110   .     S
N511   H512    1.030   .     S
N511   C513    1.454   .     S
C513   H514    1.110   .     S
C513   H515    1.104   .     S
C513   H516    1.113   .     S
N517   H518    1.030   .     S
N517   C519    1.447   .     S
C519   H521    1.104   .     S
C519   H522    1.111   .     S
C519   H520    1.108   .     S
N523   H524    1.029   .     S
N523   C525    1.452   .     S
C525   H527    1.105   .     S
C525   H526    1.108   .     S
C525   H528    1.113   .     S
C529   O566    1.312   .     A
C529   O563    1.308   .     A
C529   C538    1.472   .     S
C530   O564    1.308   .     A
C530   O565    1.311   .     A
C530   C537    1.475   .     S
C531   C556    1.434   .     A
C531   I587    2.153   .     S
C531   C1349   1.412   1_554 S
C532   C555    1.419   .     A
C532   I588    2.152   .     S
C532   C1350   1.414   .     S
C533   C538    1.404   .     A
C533   I589    2.130   .     S
C533   C711    1.390   1_455 S
C534   C537    1.416   .     A
C534   I590    2.134   .     S
C534   C624    1.397   .     S
C535   I591    2.150   .     S
C535   C537    1.414   .     A
C535   C621    1.390   .     S
C536   I592    2.153   .     S
C536   C538    1.408   .     A
C536   C710    1.397   1_455 S
C539   N562    1.378   .     A
C539   N593    1.425   .     S
C540   N599    1.419   .     S
C540   N561    1.383   .     A
C540   C13     1.436   1_565 S
C541   N605    1.423   .     S
C541   N562    1.368   .     A
C542   N561    1.373   .     A
C542   N611    1.418   .     S
C542   C11     1.433   1_565 S
C543   C548    1.465   .     S
C543   O567    1.296   .     A
C543   O570    1.314   .     A
C544   O568    1.305   .     A
C544   C547    1.460   .     S
C544   O569    1.304   .     A
C545   C555    1.418   .     A
C545   N571    1.426   .     S
C545   C547    1.412   .     A
C546   C548    1.418   .     A
C546   C556    1.422   .     A
C546   N577    1.421   .     S
C547   C549    1.397   .     A
C548   C550    1.404   .     A
C549   I583    2.133   .     S
C549   C551    1.400   .     A
C550   I584    2.136   .     S
C550   C552    1.404   .     A
C551   C557    1.405   .     A
C551   C553    1.401   .     A
C552   C554    1.408   .     A
C552   C558    1.416   .     A
C553   C555    1.416   .     A
C553   C1346   1.404   .     S
C554   C556    1.423   .     A
C554   C1345   1.404   1_554 S
C557   I585    2.149   .     S
C557   C1323   1.412   .     S
C558   I586    2.151   .     S
C558   C1324   1.414   1_554 S
Cu559  N561    2.043   .     S
Cu559  O565    1.979   .     S
Cu559  Cu560   2.718   .     S
Cu559  O563    1.963   .     S
Cu559  O569    1.949   .     S
Cu559  O567    1.950   .     S
Cu560  O564    1.963   .     S
Cu560  O566    1.979   .     S
Cu560  N562    2.043   .     S
Cu560  O568    1.950   .     S
Cu560  O570    1.949   .     S
N571   H572    1.030   .     S
N571   C573    1.446   .     S
C573   H576    1.111   .     S
C573   H575    1.110   .     S
C573   H574    1.111   .     S
N577   C579    1.441   .     S
N577   H578    1.029   .     S
C579   H580    1.110   .     S
C579   H582    1.112   .     S
C579   H581    1.100   .     S
N593   C595    1.456   .     S
N593   H594    1.030   .     S
C595   H596    1.104   .     S
C595   H597    1.111   .     S
C595   H598    1.110   .     S
N599   H600    1.030   .     S
N599   C601    1.454   .     S
C601   H602    1.110   .     S
C601   H603    1.104   .     S
C601   H604    1.113   .     S
N605   H606    1.030   .     S
N605   C607    1.447   .     S
C607   H609    1.104   .     S
C607   H610    1.111   .     S
C607   H608    1.108   .     S
N611   H612    1.029   .     S
N611   C613    1.452   .     S
C613   H615    1.105   .     S
C613   H614    1.108   .     S
C613   H616    1.113   .     S
C617   O654    1.312   .     A
C617   O651    1.308   .     A
C617   C626    1.472   .     S
C618   O652    1.308   .     A
C618   O653    1.311   .     A
C618   C625    1.475   .     S
C619   C644    1.434   .     A
C619   I675    2.153   .     S
C619   C1437   1.412   1_554 S
C620   C643    1.419   .     A
C620   I676    2.152   .     S
C620   C1438   1.414   .     S
C621   C626    1.404   .     A
C621   I677    2.130   .     S
C622   C625    1.416   .     A
C622   I678    2.134   .     S
C622   C712    1.397   .     S
C623   I679    2.150   .     S
C623   C625    1.414   .     A
C623   C709    1.390   .     S
C624   I680    2.153   .     S
C624   C626    1.408   .     A
C627   N650    1.378   .     A
C627   N681    1.425   .     S
C628   N687    1.419   .     S
C628   N649    1.383   .     A
C628   C101    1.436   1_565 S
C629   N693    1.423   .     S
C629   N650    1.368   .     A
C630   N649    1.373   .     A
C630   N699    1.418   .     S
C630   C99     1.433   1_565 S
C631   C636    1.465   .     S
C631   O655    1.296   .     A
C631   O658    1.314   .     A
C632   O656    1.305   .     A
C632   C635    1.460   .     S
C632   O657    1.304   .     A
C633   C643    1.418   .     A
C633   N659    1.426   .     S
C633   C635    1.412   .     A
C634   C636    1.418   .     A
C634   C644    1.422   .     A
C634   N665    1.421   .     S
C635   C637    1.397   .     A
C636   C638    1.404   .     A
C637   I671    2.133   .     S
C637   C639    1.400   .     A
C638   I672    2.136   .     S
C638   C640    1.404   .     A
C639   C645    1.405   .     A
C639   C641    1.401   .     A
C640   C642    1.408   .     A
C640   C646    1.416   .     A
C641   C643    1.416   .     A
C641   C1434   1.404   .     S
C642   C644    1.423   .     A
C642   C1433   1.404   1_554 S
C645   I673    2.149   .     S
C645   C1411   1.412   .     S
C646   I674    2.151   .     S
C646   C1412   1.414   1_554 S
Cu647  N649    2.043   .     S
Cu647  O653    1.979   .     S
Cu647  Cu648   2.718   .     S
Cu647  O651    1.963   .     S
Cu647  O657    1.949   .     S
Cu647  O655    1.950   .     S
Cu648  O652    1.963   .     S
Cu648  O654    1.979   .     S
Cu648  N650    2.043   .     S
Cu648  O656    1.950   .     S
Cu648  O658    1.949   .     S
N659   H660    1.030   .     S
N659   C661    1.446   .     S
C661   H664    1.111   .     S
C661   H663    1.110   .     S
C661   H662    1.111   .     S
N665   C667    1.441   .     S
N665   H666    1.029   .     S
C667   H668    1.110   .     S
C667   H670    1.112   .     S
C667   H669    1.100   .     S
N681   C683    1.456   .     S
N681   H682    1.030   .     S
C683   H684    1.104   .     S
C683   H685    1.111   .     S
C683   H686    1.110   .     S
N687   H688    1.030   .     S
N687   C689    1.454   .     S
C689   H690    1.110   .     S
C689   H691    1.104   .     S
C689   H692    1.113   .     S
N693   H694    1.030   .     S
N693   C695    1.447   .     S
C695   H697    1.104   .     S
C695   H698    1.111   .     S
C695   H696    1.108   .     S
N699   H700    1.029   .     S
N699   C701    1.452   .     S
C701   H703    1.105   .     S
C701   H702    1.108   .     S
C701   H704    1.113   .     S
C705   O742    1.312   .     A
C705   O739    1.308   .     A
C705   C714    1.472   .     S
C706   O740    1.308   .     A
C706   O741    1.311   .     A
C706   C713    1.475   .     S
C707   C732    1.434   .     A
C707   I763    2.153   .     S
C707   C1525   1.412   1_554 S
C708   C731    1.419   .     A
C708   I764    2.152   .     S
C708   C1526   1.414   .     S
C709   C714    1.404   .     A
C709   I765    2.130   .     S
C710   C713    1.416   .     A
C710   I766    2.134   .     S
C710   C536    1.397   1_655 S
C711   I767    2.150   .     S
C711   C713    1.414   .     A
C711   C533    1.390   1_655 S
C712   I768    2.153   .     S
C712   C714    1.408   .     A
C715   N738    1.378   .     A
C715   N769    1.425   .     S
C716   N775    1.419   .     S
C716   N737    1.383   .     A
C716   C189    1.436   1_565 S
C717   N781    1.423   .     S
C717   N738    1.368   .     A
C718   N737    1.373   .     A
C718   N787    1.418   .     S
C718   C187    1.433   1_565 S
C719   C724    1.465   .     S
C719   O743    1.296   .     A
C719   O746    1.314   .     A
C720   O744    1.305   .     A
C720   C723    1.460   .     S
C720   O745    1.304   .     A
C721   C731    1.418   .     A
C721   N747    1.426   .     S
C721   C723    1.412   .     A
C722   C724    1.418   .     A
C722   C732    1.422   .     A
C722   N753    1.421   .     S
C723   C725    1.397   .     A
C724   C726    1.404   .     A
C725   I759    2.133   .     S
C725   C727    1.400   .     A
C726   I760    2.136   .     S
C726   C728    1.404   .     A
C727   C733    1.405   .     A
C727   C729    1.401   .     A
C728   C730    1.408   .     A
C728   C734    1.416   .     A
C729   C731    1.416   .     A
C729   C1522   1.404   .     S
C730   C732    1.423   .     A
C730   C1521   1.404   1_554 S
C733   I761    2.149   .     S
C733   C1499   1.412   .     S
C734   I762    2.151   .     S
C734   C1500   1.414   1_554 S
Cu735  N737    2.043   .     S
Cu735  O741    1.979   .     S
Cu735  Cu736   2.718   .     S
Cu735  O739    1.963   .     S
Cu735  O745    1.949   .     S
Cu735  O743    1.950   .     S
Cu736  O740    1.963   .     S
Cu736  O742    1.979   .     S
Cu736  N738    2.043   .     S
Cu736  O744    1.950   .     S
Cu736  O746    1.949   .     S
N747   H748    1.030   .     S
N747   C749    1.446   .     S
C749   H752    1.111   .     S
C749   H751    1.110   .     S
C749   H750    1.111   .     S
N753   C755    1.441   .     S
N753   H754    1.029   .     S
C755   H756    1.110   .     S
C755   H758    1.112   .     S
C755   H757    1.100   .     S
N769   C771    1.456   .     S
N769   H770    1.030   .     S
C771   H772    1.104   .     S
C771   H773    1.111   .     S
C771   H774    1.110   .     S
N775   H776    1.030   .     S
N775   C777    1.454   .     S
C777   H778    1.110   .     S
C777   H779    1.104   .     S
C777   H780    1.113   .     S
N781   H782    1.030   .     S
N781   C783    1.447   .     S
C783   H785    1.104   .     S
C783   H786    1.111   .     S
C783   H784    1.108   .     S
N787   H788    1.029   .     S
N787   C789    1.452   .     S
C789   H791    1.105   .     S
C789   H790    1.108   .     S
C789   H792    1.113   .     S
C793   O830    1.312   .     A
C793   O827    1.308   .     A
C793   C802    1.472   .     S
C794   O828    1.308   .     A
C794   O829    1.311   .     A
C794   C801    1.475   .     S
C795   C820    1.434   .     A
C795   I851    2.153   .     S
C796   C819    1.419   .     A
C796   I852    2.152   .     S
C796   C30     1.414   1_556 S
C797   C802    1.404   .     A
C797   I853    2.130   .     S
C797   C975    1.390   1_455 S
C798   C801    1.416   .     A
C798   I854    2.134   .     S
C798   C888    1.397   .     S
C799   I855    2.150   .     S
C799   C801    1.414   .     A
C799   C885    1.390   .     S
C800   I856    2.153   .     S
C800   C802    1.408   .     A
C800   C974    1.397   1_455 S
C803   N826    1.378   .     A
C803   N857    1.425   .     S
C803   C1334   1.433   1_545 S
C804   N863    1.419   .     S
C804   N825    1.383   .     A
C804   C1069   1.436   .     S
C805   N869    1.423   .     S
C805   N826    1.368   .     A
C805   C1332   1.436   1_545 S
C806   N825    1.373   .     A
C806   N875    1.418   .     S
C806   C1067   1.433   .     S
C807   C812    1.465   .     S
C807   O831    1.296   .     A
C807   O834    1.314   .     A
C808   O832    1.305   .     A
C808   C811    1.460   .     S
C808   O833    1.304   .     A
C809   C819    1.418   .     A
C809   N835    1.426   .     S
C809   C811    1.412   .     A
C810   C812    1.418   .     A
C810   C820    1.422   .     A
C810   N841    1.421   .     S
C811   C813    1.397   .     A
C812   C814    1.404   .     A
C813   I847    2.133   .     S
C813   C815    1.400   .     A
C814   I848    2.136   .     S
C814   C816    1.404   .     A
C815   C821    1.405   .     A
C815   C817    1.401   .     A
C816   C818    1.408   .     A
C816   C822    1.416   .     A
C817   C819    1.416   .     A
C817   C26     1.404   1_556 S
C818   C820    1.423   .     A
C821   I849    2.149   .     S
C821   C3      1.412   1_556 S
C822   I850    2.151   .     S
Cu823  N825    2.043   .     S
Cu823  O829    1.979   .     S
Cu823  Cu824   2.718   .     S
Cu823  O827    1.963   .     S
Cu823  O833    1.949   .     S
Cu823  O831    1.950   .     S
Cu824  O828    1.963   .     S
Cu824  O830    1.979   .     S
Cu824  N826    2.043   .     S
Cu824  O832    1.950   .     S
Cu824  O834    1.949   .     S
N835   H836    1.030   .     S
N835   C837    1.446   .     S
C837   H840    1.111   .     S
C837   H839    1.110   .     S
C837   H838    1.111   .     S
N841   C843    1.441   .     S
N841   H842    1.029   .     S
C843   H844    1.110   .     S
C843   H846    1.112   .     S
C843   H845    1.100   .     S
N857   C859    1.456   .     S
N857   H858    1.030   .     S
C859   H860    1.104   .     S
C859   H861    1.111   .     S
C859   H862    1.110   .     S
N863   H864    1.030   .     S
N863   C865    1.454   .     S
C865   H866    1.110   .     S
C865   H867    1.104   .     S
C865   H868    1.113   .     S
N869   H870    1.030   .     S
N869   C871    1.447   .     S
C871   H873    1.104   .     S
C871   H874    1.111   .     S
C871   H872    1.108   .     S
N875   H876    1.029   .     S
N875   C877    1.452   .     S
C877   H879    1.105   .     S
C877   H878    1.108   .     S
C877   H880    1.113   .     S
C881   O918    1.312   .     A
C881   O915    1.308   .     A
C881   C890    1.472   .     S
C882   O916    1.308   .     A
C882   O917    1.311   .     A
C882   C889    1.475   .     S
C883   C908    1.434   .     A
C883   I939    2.153   .     S
C884   C907    1.419   .     A
C884   I940    2.152   .     S
C884   C118    1.414   1_556 S
C885   C890    1.404   .     A
C885   I941    2.130   .     S
C886   C889    1.416   .     A
C886   I942    2.134   .     S
C886   C976    1.397   .     S
C887   I943    2.150   .     S
C887   C889    1.414   .     A
C887   C973    1.390   .     S
C888   I944    2.153   .     S
C888   C890    1.408   .     A
C891   N914    1.378   .     A
C891   N945    1.425   .     S
C891   C1422   1.433   1_545 S
C892   N951    1.419   .     S
C892   N913    1.383   .     A
C892   C1157   1.436   .     S
C893   N957    1.423   .     S
C893   N914    1.368   .     A
C893   C1420   1.436   1_545 S
C894   N913    1.373   .     A
C894   N963    1.418   .     S
C894   C1155   1.433   .     S
C895   C900    1.465   .     S
C895   O919    1.296   .     A
C895   O922    1.314   .     A
C896   O920    1.305   .     A
C896   C899    1.460   .     S
C896   O921    1.304   .     A
C897   C907    1.418   .     A
C897   N923    1.426   .     S
C897   C899    1.412   .     A
C898   C900    1.418   .     A
C898   C908    1.422   .     A
C898   N929    1.421   .     S
C899   C901    1.397   .     A
C900   C902    1.404   .     A
C901   I935    2.133   .     S
C901   C903    1.400   .     A
C902   I936    2.136   .     S
C902   C904    1.404   .     A
C903   C909    1.405   .     A
C903   C905    1.401   .     A
C904   C906    1.408   .     A
C904   C910    1.416   .     A
C905   C907    1.416   .     A
C905   C114    1.404   1_556 S
C906   C908    1.423   .     A
C909   I937    2.149   .     S
C909   C91     1.412   1_556 S
C910   I938    2.151   .     S
Cu911  N913    2.043   .     S
Cu911  O917    1.979   .     S
Cu911  Cu912   2.718   .     S
Cu911  O915    1.963   .     S
Cu911  O921    1.949   .     S
Cu911  O919    1.950   .     S
Cu912  O916    1.963   .     S
Cu912  O918    1.979   .     S
Cu912  N914    2.043   .     S
Cu912  O920    1.950   .     S
Cu912  O922    1.949   .     S
N923   H924    1.030   .     S
N923   C925    1.446   .     S
C925   H928    1.111   .     S
C925   H927    1.110   .     S
C925   H926    1.111   .     S
N929   C931    1.441   .     S
N929   H930    1.029   .     S
C931   H932    1.110   .     S
C931   H934    1.112   .     S
C931   H933    1.100   .     S
N945   C947    1.456   .     S
N945   H946    1.030   .     S
C947   H948    1.104   .     S
C947   H949    1.111   .     S
C947   H950    1.110   .     S
N951   H952    1.030   .     S
N951   C953    1.454   .     S
C953   H954    1.110   .     S
C953   H955    1.104   .     S
C953   H956    1.113   .     S
N957   H958    1.030   .     S
N957   C959    1.447   .     S
C959   H961    1.104   .     S
C959   H962    1.111   .     S
C959   H960    1.108   .     S
N963   H964    1.029   .     S
N963   C965    1.452   .     S
C965   H967    1.105   .     S
C965   H966    1.108   .     S
C965   H968    1.113   .     S
C969   O1006   1.312   .     A
C969   O1003   1.308   .     A
C969   C978    1.472   .     S
C970   O1004   1.308   .     A
C970   O1005   1.311   .     A
C970   C977    1.475   .     S
C971   C996    1.434   .     A
C971   I1027   2.153   .     S
C972   C995    1.419   .     A
C972   I1028   2.152   .     S
C972   C206    1.414   1_556 S
C973   C978    1.404   .     A
C973   I1029   2.130   .     S
C974   C977    1.416   .     A
C974   I1030   2.134   .     S
C974   C800    1.397   1_655 S
C975   I1031   2.150   .     S
C975   C977    1.414   .     A
C975   C797    1.390   1_655 S
C976   I1032   2.153   .     S
C976   C978    1.408   .     A
C979   N1002   1.378   .     A
C979   N1033   1.425   .     S
C979   C1510   1.433   1_545 S
C980   N1039   1.419   .     S
C980   N1001   1.383   .     A
C980   C1245   1.436   .     S
C981   N1045   1.423   .     S
C981   N1002   1.368   .     A
C981   C1508   1.436   1_545 S
C982   N1001   1.373   .     A
C982   N1051   1.418   .     S
C982   C1243   1.433   .     S
C983   C988    1.465   .     S
C983   O1007   1.296   .     A
C983   O1010   1.314   .     A
C984   O1008   1.305   .     A
C984   C987    1.460   .     S
C984   O1009   1.304   .     A
C985   C995    1.418   .     A
C985   N1011   1.426   .     S
C985   C987    1.412   .     A
C986   C988    1.418   .     A
C986   C996    1.422   .     A
C986   N1017   1.421   .     S
C987   C989    1.397   .     A
C988   C990    1.404   .     A
C989   I1023   2.133   .     S
C989   C991    1.400   .     A
C990   I1024   2.136   .     S
C990   C992    1.404   .     A
C991   C997    1.405   .     A
C991   C993    1.401   .     A
C992   C994    1.408   .     A
C992   C998    1.416   .     A
C993   C995    1.416   .     A
C993   C202    1.404   1_556 S
C994   C996    1.423   .     A
C997   I1025   2.149   .     S
C997   C179    1.412   1_556 S
C998   I1026   2.151   .     S
Cu999  N1001   2.043   .     S
Cu999  O1005   1.979   .     S
Cu999  Cu1000  2.718   .     S
Cu999  O1003   1.963   .     S
Cu999  O1009   1.949   .     S
Cu999  O1007   1.950   .     S
Cu1000 O1004   1.963   .     S
Cu1000 O1006   1.979   .     S
Cu1000 N1002   2.043   .     S
Cu1000 O1008   1.950   .     S
Cu1000 O1010   1.949   .     S
N1011  H1012   1.030   .     S
N1011  C1013   1.446   .     S
C1013  H1016   1.111   .     S
C1013  H1015   1.110   .     S
C1013  H1014   1.111   .     S
N1017  C1019   1.441   .     S
N1017  H1018   1.029   .     S
C1019  H1020   1.110   .     S
C1019  H1022   1.112   .     S
C1019  H1021   1.100   .     S
N1033  C1035   1.456   .     S
N1033  H1034   1.030   .     S
C1035  H1036   1.104   .     S
C1035  H1037   1.111   .     S
C1035  H1038   1.110   .     S
N1039  H1040   1.030   .     S
N1039  C1041   1.454   .     S
C1041  H1042   1.110   .     S
C1041  H1043   1.104   .     S
C1041  H1044   1.113   .     S
N1045  H1046   1.030   .     S
N1045  C1047   1.447   .     S
C1047  H1049   1.104   .     S
C1047  H1050   1.111   .     S
C1047  H1048   1.108   .     S
N1051  H1052   1.029   .     S
N1051  C1053   1.452   .     S
C1053  H1055   1.105   .     S
C1053  H1054   1.108   .     S
C1053  H1056   1.113   .     S
C1057  O1094   1.312   .     A
C1057  O1091   1.308   .     A
C1057  C1066   1.472   .     S
C1058  O1092   1.308   .     A
C1058  O1093   1.311   .     A
C1058  C1065   1.475   .     S
C1059  C1084   1.434   .     A
C1059  I1115   2.153   .     S
C1060  C1083   1.419   .     A
C1060  I1116   2.152   .     S
C1060  C294    1.414   1_556 S
C1061  C1066   1.404   .     A
C1061  I1117   2.130   .     S
C1061  C1239   1.390   1_455 S
C1062  C1065   1.416   .     A
C1062  I1118   2.134   .     S
C1062  C1152   1.397   .     S
C1063  I1119   2.150   .     S
C1063  C1065   1.414   .     A
C1063  C1149   1.390   .     S
C1064  I1120   2.153   .     S
C1064  C1066   1.408   .     A
C1064  C1238   1.397   1_455 S
C1067  N1090   1.378   .     A
C1067  N1121   1.425   .     S
C1068  N1127   1.419   .     S
C1068  N1089   1.383   .     A
C1068  C1333   1.436   .     S
C1069  N1133   1.423   .     S
C1069  N1090   1.368   .     A
C1070  N1089   1.373   .     A
C1070  N1139   1.418   .     S
C1070  C1331   1.433   .     S
C1071  C1076   1.465   .     S
C1071  O1095   1.296   .     A
C1071  O1098   1.314   .     A
C1072  O1096   1.305   .     A
C1072  C1075   1.460   .     S
C1072  O1097   1.304   .     A
C1073  C1083   1.418   .     A
C1073  N1099   1.426   .     S
C1073  C1075   1.412   .     A
C1074  C1076   1.418   .     A
C1074  C1084   1.422   .     A
C1074  N1105   1.421   .     S
C1075  C1077   1.397   .     A
C1076  C1078   1.404   .     A
C1077  I1111   2.133   .     S
C1077  C1079   1.400   .     A
C1078  I1112   2.136   .     S
C1078  C1080   1.404   .     A
C1079  C1085   1.405   .     A
C1079  C1081   1.401   .     A
C1080  C1082   1.408   .     A
C1080  C1086   1.416   .     A
C1081  C1083   1.416   .     A
C1081  C290    1.404   1_556 S
C1082  C1084   1.423   .     A
C1085  I1113   2.149   .     S
C1085  C267    1.412   1_556 S
C1086  I1114   2.151   .     S
Cu1087 N1089   2.043   .     S
Cu1087 O1093   1.979   .     S
Cu1087 Cu1088  2.718   .     S
Cu1087 O1091   1.963   .     S
Cu1087 O1097   1.949   .     S
Cu1087 O1095   1.950   .     S
Cu1088 O1092   1.963   .     S
Cu1088 O1094   1.979   .     S
Cu1088 N1090   2.043   .     S
Cu1088 O1096   1.950   .     S
Cu1088 O1098   1.949   .     S
N1099  H1100   1.030   .     S
N1099  C1101   1.446   .     S
C1101  H1104   1.111   .     S
C1101  H1103   1.110   .     S
C1101  H1102   1.111   .     S
N1105  C1107   1.441   .     S
N1105  H1106   1.029   .     S
C1107  H1108   1.110   .     S
C1107  H1110   1.112   .     S
C1107  H1109   1.100   .     S
N1121  C1123   1.456   .     S
N1121  H1122   1.030   .     S
C1123  H1124   1.104   .     S
C1123  H1125   1.111   .     S
C1123  H1126   1.110   .     S
N1127  H1128   1.030   .     S
N1127  C1129   1.454   .     S
C1129  H1130   1.110   .     S
C1129  H1131   1.104   .     S
C1129  H1132   1.113   .     S
N1133  H1134   1.030   .     S
N1133  C1135   1.447   .     S
C1135  H1137   1.104   .     S
C1135  H1138   1.111   .     S
C1135  H1136   1.108   .     S
N1139  H1140   1.029   .     S
N1139  C1141   1.452   .     S
C1141  H1143   1.105   .     S
C1141  H1142   1.108   .     S
C1141  H1144   1.113   .     S
C1145  O1182   1.312   .     A
C1145  O1179   1.308   .     A
C1145  C1154   1.472   .     S
C1146  O1180   1.308   .     A
C1146  O1181   1.311   .     A
C1146  C1153   1.475   .     S
C1147  C1172   1.434   .     A
C1147  I1203   2.153   .     S
C1148  C1171   1.419   .     A
C1148  I1204   2.152   .     S
C1148  C382    1.414   1_556 S
C1149  C1154   1.404   .     A
C1149  I1205   2.130   .     S
C1150  C1153   1.416   .     A
C1150  I1206   2.134   .     S
C1150  C1240   1.397   .     S
C1151  I1207   2.150   .     S
C1151  C1153   1.414   .     A
C1151  C1237   1.390   .     S
C1152  I1208   2.153   .     S
C1152  C1154   1.408   .     A
C1155  N1178   1.378   .     A
C1155  N1209   1.425   .     S
C1156  N1215   1.419   .     S
C1156  N1177   1.383   .     A
C1156  C1421   1.436   .     S
C1157  N1221   1.423   .     S
C1157  N1178   1.368   .     A
C1158  N1177   1.373   .     A
C1158  N1227   1.418   .     S
C1158  C1419   1.433   .     S
C1159  C1164   1.465   .     S
C1159  O1183   1.296   .     A
C1159  O1186   1.314   .     A
C1160  O1184   1.305   .     A
C1160  C1163   1.460   .     S
C1160  O1185   1.304   .     A
C1161  C1171   1.418   .     A
C1161  N1187   1.426   .     S
C1161  C1163   1.412   .     A
C1162  C1164   1.418   .     A
C1162  C1172   1.422   .     A
C1162  N1193   1.421   .     S
C1163  C1165   1.397   .     A
C1164  C1166   1.404   .     A
C1165  I1199   2.133   .     S
C1165  C1167   1.400   .     A
C1166  I1200   2.136   .     S
C1166  C1168   1.404   .     A
C1167  C1173   1.405   .     A
C1167  C1169   1.401   .     A
C1168  C1170   1.408   .     A
C1168  C1174   1.416   .     A
C1169  C1171   1.416   .     A
C1169  C378    1.404   1_556 S
C1170  C1172   1.423   .     A
C1173  I1201   2.149   .     S
C1173  C355    1.412   1_556 S
C1174  I1202   2.151   .     S
Cu1175 N1177   2.043   .     S
Cu1175 O1181   1.979   .     S
Cu1175 Cu1176  2.718   .     S
Cu1175 O1179   1.963   .     S
Cu1175 O1185   1.949   .     S
Cu1175 O1183   1.950   .     S
Cu1176 O1180   1.963   .     S
Cu1176 O1182   1.979   .     S
Cu1176 N1178   2.043   .     S
Cu1176 O1184   1.950   .     S
Cu1176 O1186   1.949   .     S
N1187  H1188   1.030   .     S
N1187  C1189   1.446   .     S
C1189  H1192   1.111   .     S
C1189  H1191   1.110   .     S
C1189  H1190   1.111   .     S
N1193  C1195   1.441   .     S
N1193  H1194   1.029   .     S
C1195  H1196   1.110   .     S
C1195  H1198   1.112   .     S
C1195  H1197   1.100   .     S
N1209  C1211   1.456   .     S
N1209  H1210   1.030   .     S
C1211  H1212   1.104   .     S
C1211  H1213   1.111   .     S
C1211  H1214   1.110   .     S
N1215  H1216   1.030   .     S
N1215  C1217   1.454   .     S
C1217  H1218   1.110   .     S
C1217  H1219   1.104   .     S
C1217  H1220   1.113   .     S
N1221  H1222   1.030   .     S
N1221  C1223   1.447   .     S
C1223  H1225   1.104   .     S
C1223  H1226   1.111   .     S
C1223  H1224   1.108   .     S
N1227  H1228   1.029   .     S
N1227  C1229   1.452   .     S
C1229  H1231   1.105   .     S
C1229  H1230   1.108   .     S
C1229  H1232   1.113   .     S
C1233  O1270   1.312   .     A
C1233  O1267   1.308   .     A
C1233  C1242   1.472   .     S
C1234  O1268   1.308   .     A
C1234  O1269   1.311   .     A
C1234  C1241   1.475   .     S
C1235  C1260   1.434   .     A
C1235  I1291   2.153   .     S
C1236  C1259   1.419   .     A
C1236  I1292   2.152   .     S
C1236  C470    1.414   1_556 S
C1237  C1242   1.404   .     A
C1237  I1293   2.130   .     S
C1238  C1241   1.416   .     A
C1238  I1294   2.134   .     S
C1238  C1064   1.397   1_655 S
C1239  I1295   2.150   .     S
C1239  C1241   1.414   .     A
C1239  C1061   1.390   1_655 S
C1240  I1296   2.153   .     S
C1240  C1242   1.408   .     A
C1243  N1266   1.378   .     A
C1243  N1297   1.425   .     S
C1244  N1303   1.419   .     S
C1244  N1265   1.383   .     A
C1244  C1509   1.436   .     S
C1245  N1309   1.423   .     S
C1245  N1266   1.368   .     A
C1246  N1265   1.373   .     A
C1246  N1315   1.418   .     S
C1246  C1507   1.433   .     S
C1247  C1252   1.465   .     S
C1247  O1271   1.296   .     A
C1247  O1274   1.314   .     A
C1248  O1272   1.305   .     A
C1248  C1251   1.460   .     S
C1248  O1273   1.304   .     A
C1249  C1259   1.418   .     A
C1249  N1275   1.426   .     S
C1249  C1251   1.412   .     A
C1250  C1252   1.418   .     A
C1250  C1260   1.422   .     A
C1250  N1281   1.421   .     S
C1251  C1253   1.397   .     A
C1252  C1254   1.404   .     A
C1253  I1287   2.133   .     S
C1253  C1255   1.400   .     A
C1254  I1288   2.136   .     S
C1254  C1256   1.404   .     A
C1255  C1261   1.405   .     A
C1255  C1257   1.401   .     A
C1256  C1258   1.408   .     A
C1256  C1262   1.416   .     A
C1257  C1259   1.416   .     A
C1257  C466    1.404   1_556 S
C1258  C1260   1.423   .     A
C1261  I1289   2.149   .     S
C1261  C443    1.412   1_556 S
C1262  I1290   2.151   .     S
Cu1263 N1265   2.043   .     S
Cu1263 O1269   1.979   .     S
Cu1263 Cu1264  2.718   .     S
Cu1263 O1267   1.963   .     S
Cu1263 O1273   1.949   .     S
Cu1263 O1271   1.950   .     S
Cu1264 O1268   1.963   .     S
Cu1264 O1270   1.979   .     S
Cu1264 N1266   2.043   .     S
Cu1264 O1272   1.950   .     S
Cu1264 O1274   1.949   .     S
N1275  H1276   1.030   .     S
N1275  C1277   1.446   .     S
C1277  H1280   1.111   .     S
C1277  H1279   1.110   .     S
C1277  H1278   1.111   .     S
N1281  C1283   1.441   .     S
N1281  H1282   1.029   .     S
C1283  H1284   1.110   .     S
C1283  H1286   1.112   .     S
C1283  H1285   1.100   .     S
N1297  C1299   1.456   .     S
N1297  H1298   1.030   .     S
C1299  H1300   1.104   .     S
C1299  H1301   1.111   .     S
C1299  H1302   1.110   .     S
N1303  H1304   1.030   .     S
N1303  C1305   1.454   .     S
C1305  H1306   1.110   .     S
C1305  H1307   1.104   .     S
C1305  H1308   1.113   .     S
N1309  H1310   1.030   .     S
N1309  C1311   1.447   .     S
C1311  H1313   1.104   .     S
C1311  H1314   1.111   .     S
C1311  H1312   1.108   .     S
N1315  H1316   1.029   .     S
N1315  C1317   1.452   .     S
C1317  H1319   1.105   .     S
C1317  H1318   1.108   .     S
C1317  H1320   1.113   .     S
C1321  O1358   1.312   .     A
C1321  O1355   1.308   .     A
C1321  C1330   1.472   .     S
C1322  O1356   1.308   .     A
C1322  O1357   1.311   .     A
C1322  C1329   1.475   .     S
C1323  C1348   1.434   .     A
C1323  I1379   2.153   .     S
C1324  C1347   1.419   .     A
C1324  I1380   2.152   .     S
C1324  C558    1.414   1_556 S
C1325  C1330   1.404   .     A
C1325  I1381   2.130   .     S
C1325  C1503   1.390   1_455 S
C1326  C1329   1.416   .     A
C1326  I1382   2.134   .     S
C1326  C1416   1.397   .     S
C1327  I1383   2.150   .     S
C1327  C1329   1.414   .     A
C1327  C1413   1.390   .     S
C1328  I1384   2.153   .     S
C1328  C1330   1.408   .     A
C1328  C1502   1.397   1_455 S
C1331  N1354   1.378   .     A
C1331  N1385   1.425   .     S
C1332  N1391   1.419   .     S
C1332  N1353   1.383   .     A
C1332  C805    1.436   1_565 S
C1333  N1397   1.423   .     S
C1333  N1354   1.368   .     A
C1334  N1353   1.373   .     A
C1334  N1403   1.418   .     S
C1334  C803    1.433   1_565 S
C1335  C1340   1.465   .     S
C1335  O1359   1.296   .     A
C1335  O1362   1.314   .     A
C1336  O1360   1.305   .     A
C1336  C1339   1.460   .     S
C1336  O1361   1.304   .     A
C1337  C1347   1.418   .     A
C1337  N1363   1.426   .     S
C1337  C1339   1.412   .     A
C1338  C1340   1.418   .     A
C1338  C1348   1.422   .     A
C1338  N1369   1.421   .     S
C1339  C1341   1.397   .     A
C1340  C1342   1.404   .     A
C1341  I1375   2.133   .     S
C1341  C1343   1.400   .     A
C1342  I1376   2.136   .     S
C1342  C1344   1.404   .     A
C1343  C1349   1.405   .     A
C1343  C1345   1.401   .     A
C1344  C1346   1.408   .     A
C1344  C1350   1.416   .     A
C1345  C1347   1.416   .     A
C1345  C554    1.404   1_556 S
C1346  C1348   1.423   .     A
C1349  I1377   2.149   .     S
C1349  C531    1.412   1_556 S
C1350  I1378   2.151   .     S
Cu1351 N1353   2.043   .     S
Cu1351 O1357   1.979   .     S
Cu1351 Cu1352  2.718   .     S
Cu1351 O1355   1.963   .     S
Cu1351 O1361   1.949   .     S
Cu1351 O1359   1.950   .     S
Cu1352 O1356   1.963   .     S
Cu1352 O1358   1.979   .     S
Cu1352 N1354   2.043   .     S
Cu1352 O1360   1.950   .     S
Cu1352 O1362   1.949   .     S
N1363  H1364   1.030   .     S
N1363  C1365   1.446   .     S
C1365  H1368   1.111   .     S
C1365  H1367   1.110   .     S
C1365  H1366   1.111   .     S
N1369  C1371   1.441   .     S
N1369  H1370   1.029   .     S
C1371  H1372   1.110   .     S
C1371  H1374   1.112   .     S
C1371  H1373   1.100   .     S
N1385  C1387   1.456   .     S
N1385  H1386   1.030   .     S
C1387  H1388   1.104   .     S
C1387  H1389   1.111   .     S
C1387  H1390   1.110   .     S
N1391  H1392   1.030   .     S
N1391  C1393   1.454   .     S
C1393  H1394   1.110   .     S
C1393  H1395   1.104   .     S
C1393  H1396   1.113   .     S
N1397  H1398   1.030   .     S
N1397  C1399   1.447   .     S
C1399  H1401   1.104   .     S
C1399  H1402   1.111   .     S
C1399  H1400   1.108   .     S
N1403  H1404   1.029   .     S
N1403  C1405   1.452   .     S
C1405  H1407   1.105   .     S
C1405  H1406   1.108   .     S
C1405  H1408   1.113   .     S
C1409  O1446   1.312   .     A
C1409  O1443   1.308   .     A
C1409  C1418   1.472   .     S
C1410  O1444   1.308   .     A
C1410  O1445   1.311   .     A
C1410  C1417   1.475   .     S
C1411  C1436   1.434   .     A
C1411  I1467   2.153   .     S
C1412  C1435   1.419   .     A
C1412  I1468   2.152   .     S
C1412  C646    1.414   1_556 S
C1413  C1418   1.404   .     A
C1413  I1469   2.130   .     S
C1414  C1417   1.416   .     A
C1414  I1470   2.134   .     S
C1414  C1504   1.397   .     S
C1415  I1471   2.150   .     S
C1415  C1417   1.414   .     A
C1415  C1501   1.390   .     S
C1416  I1472   2.153   .     S
C1416  C1418   1.408   .     A
C1419  N1442   1.378   .     A
C1419  N1473   1.425   .     S
C1420  N1479   1.419   .     S
C1420  N1441   1.383   .     A
C1420  C893    1.436   1_565 S
C1421  N1485   1.423   .     S
C1421  N1442   1.368   .     A
C1422  N1441   1.373   .     A
C1422  N1491   1.418   .     S
C1422  C891    1.433   1_565 S
C1423  C1428   1.465   .     S
C1423  O1447   1.296   .     A
C1423  O1450   1.314   .     A
C1424  O1448   1.305   .     A
C1424  C1427   1.460   .     S
C1424  O1449   1.304   .     A
C1425  C1435   1.418   .     A
C1425  N1451   1.426   .     S
C1425  C1427   1.412   .     A
C1426  C1428   1.418   .     A
C1426  C1436   1.422   .     A
C1426  N1457   1.421   .     S
C1427  C1429   1.397   .     A
C1428  C1430   1.404   .     A
C1429  I1463   2.133   .     S
C1429  C1431   1.400   .     A
C1430  I1464   2.136   .     S
C1430  C1432   1.404   .     A
C1431  C1437   1.405   .     A
C1431  C1433   1.401   .     A
C1432  C1434   1.408   .     A
C1432  C1438   1.416   .     A
C1433  C1435   1.416   .     A
C1433  C642    1.404   1_556 S
C1434  C1436   1.423   .     A
C1437  I1465   2.149   .     S
C1437  C619    1.412   1_556 S
C1438  I1466   2.151   .     S
Cu1439 N1441   2.043   .     S
Cu1439 O1445   1.979   .     S
Cu1439 Cu1440  2.718   .     S
Cu1439 O1443   1.963   .     S
Cu1439 O1449   1.949   .     S
Cu1439 O1447   1.950   .     S
Cu1440 O1444   1.963   .     S
Cu1440 O1446   1.979   .     S
Cu1440 N1442   2.043   .     S
Cu1440 O1448   1.950   .     S
Cu1440 O1450   1.949   .     S
N1451  H1452   1.030   .     S
N1451  C1453   1.446   .     S
C1453  H1456   1.111   .     S
C1453  H1455   1.110   .     S
C1453  H1454   1.111   .     S
N1457  C1459   1.441   .     S
N1457  H1458   1.029   .     S
C1459  H1460   1.110   .     S
C1459  H1462   1.112   .     S
C1459  H1461   1.100   .     S
N1473  C1475   1.456   .     S
N1473  H1474   1.030   .     S
C1475  H1476   1.104   .     S
C1475  H1477   1.111   .     S
C1475  H1478   1.110   .     S
N1479  H1480   1.030   .     S
N1479  C1481   1.454   .     S
C1481  H1482   1.110   .     S
C1481  H1483   1.104   .     S
C1481  H1484   1.113   .     S
N1485  H1486   1.030   .     S
N1485  C1487   1.447   .     S
C1487  H1489   1.104   .     S
C1487  H1490   1.111   .     S
C1487  H1488   1.108   .     S
N1491  H1492   1.029   .     S
N1491  C1493   1.452   .     S
C1493  H1495   1.105   .     S
C1493  H1494   1.108   .     S
C1493  H1496   1.113   .     S
C1497  O1534   1.312   .     A
C1497  O1531   1.308   .     A
C1497  C1506   1.472   .     S
C1498  O1532   1.308   .     A
C1498  O1533   1.311   .     A
C1498  C1505   1.475   .     S
C1499  C1524   1.434   .     A
C1499  I1555   2.153   .     S
C1500  C1523   1.419   .     A
C1500  I1556   2.152   .     S
C1500  C734    1.414   1_556 S
C1501  C1506   1.404   .     A
C1501  I1557   2.130   .     S
C1502  C1505   1.416   .     A
C1502  I1558   2.134   .     S
C1502  C1328   1.397   1_655 S
C1503  I1559   2.150   .     S
C1503  C1505   1.414   .     A
C1503  C1325   1.390   1_655 S
C1504  I1560   2.153   .     S
C1504  C1506   1.408   .     A
C1507  N1530   1.378   .     A
C1507  N1561   1.425   .     S
C1508  N1567   1.419   .     S
C1508  N1529   1.383   .     A
C1508  C981    1.436   1_565 S
C1509  N1573   1.423   .     S
C1509  N1530   1.368   .     A
C1510  N1529   1.373   .     A
C1510  N1579   1.418   .     S
C1510  C979    1.433   1_565 S
C1511  C1516   1.465   .     S
C1511  O1535   1.296   .     A
C1511  O1538   1.314   .     A
C1512  O1536   1.305   .     A
C1512  C1515   1.460   .     S
C1512  O1537   1.304   .     A
C1513  C1523   1.418   .     A
C1513  N1539   1.426   .     S
C1513  C1515   1.412   .     A
C1514  C1516   1.418   .     A
C1514  C1524   1.422   .     A
C1514  N1545   1.421   .     S
C1515  C1517   1.397   .     A
C1516  C1518   1.404   .     A
C1517  I1551   2.133   .     S
C1517  C1519   1.400   .     A
C1518  I1552   2.136   .     S
C1518  C1520   1.404   .     A
C1519  C1525   1.405   .     A
C1519  C1521   1.401   .     A
C1520  C1522   1.408   .     A
C1520  C1526   1.416   .     A
C1521  C1523   1.416   .     A
C1521  C730    1.404   1_556 S
C1522  C1524   1.423   .     A
C1525  I1553   2.149   .     S
C1525  C707    1.412   1_556 S
C1526  I1554   2.151   .     S
Cu1527 N1529   2.043   .     S
Cu1527 O1533   1.979   .     S
Cu1527 Cu1528  2.718   .     S
Cu1527 O1531   1.963   .     S
Cu1527 O1537   1.949   .     S
Cu1527 O1535   1.950   .     S
Cu1528 O1532   1.963   .     S
Cu1528 O1534   1.979   .     S
Cu1528 N1530   2.043   .     S
Cu1528 O1536   1.950   .     S
Cu1528 O1538   1.949   .     S
N1539  H1540   1.030   .     S
N1539  C1541   1.446   .     S
C1541  H1544   1.111   .     S
C1541  H1543   1.110   .     S
C1541  H1542   1.111   .     S
N1545  C1547   1.441   .     S
N1545  H1546   1.029   .     S
C1547  H1548   1.110   .     S
C1547  H1550   1.112   .     S
C1547  H1549   1.100   .     S
N1561  C1563   1.456   .     S
N1561  H1562   1.030   .     S
C1563  H1564   1.104   .     S
C1563  H1565   1.111   .     S
C1563  H1566   1.110   .     S
N1567  H1568   1.030   .     S
N1567  C1569   1.454   .     S
C1569  H1570   1.110   .     S
C1569  H1571   1.104   .     S
C1569  H1572   1.113   .     S
N1573  H1574   1.030   .     S
N1573  C1575   1.447   .     S
C1575  H1577   1.104   .     S
C1575  H1578   1.111   .     S
C1575  H1576   1.108   .     S
N1579  H1580   1.029   .     S
N1579  C1581   1.452   .     S
C1581  H1583   1.105   .     S
C1581  H1582   1.108   .     S
C1581  H1584   1.113   .     S
