data_str_m2_o2_o10_pcu_sym.97
_audit_creation_date              2020-01-03
_audit_creation_method            'Materials Studio'
_symmetry_space_group_name_H-M    'P1'
_symmetry_Int_Tables_number       1
_symmetry_cell_setting            triclinic
loop_
_symmetry_equiv_pos_as_xyz
  x,y,z
_cell_length_a                    26.1625
_cell_length_b                    30.2969
_cell_length_c                    27.9226
_cell_angle_alpha                 89.9451
_cell_angle_beta                  98.1992
_cell_angle_gamma                 92.4531
loop_
_atom_site_label
_atom_site_type_symbol
_atom_site_fract_x
_atom_site_fract_y
_atom_site_fract_z
_atom_site_U_iso_or_equiv
_atom_site_adp_type
_atom_site_occupancy
C1     C     0.17163   0.16519   0.25063   0.00000  Uiso   1.00
C2     C     0.18717   0.28779   0.44853   0.00000  Uiso   1.00
C3     C     0.16246   0.25212   0.02664   0.00000  Uiso   1.00
C4     C     0.16299   0.25285   0.47202   0.00000  Uiso   1.00
C5     C     0.06794   0.24957   0.23756   0.00000  Uiso   1.00
C6     C     0.26540   0.25003   0.26247   0.00000  Uiso   1.00
C7     C     0.01256   0.24866   0.23087   0.00000  Uiso   1.00
C8     C     0.32081   0.25021   0.26929   0.00000  Uiso   1.00
C9     C     0.18560   0.04788   0.29526   0.00000  Uiso   1.00
C10    C     0.15959   0.45305   0.20532   0.00000  Uiso   1.00
C11    C     0.18721   0.09370   0.29603   0.00000  Uiso   1.00
C12    C     0.16302   0.33502   0.24937   0.00000  Uiso   1.00
C13    C     0.15751   0.40735   0.20434   0.00000  Uiso   1.00
C14    C     0.18252   0.11726   0.25186   0.00000  Uiso   1.00
C15    C     0.15547   0.38347   0.24775   0.00000  Uiso   1.00
C16    C     0.19152   0.09406   0.20952   0.00000  Uiso   1.00
C17    C     0.14355   0.40686   0.28876   0.00000  Uiso   1.00
C18    C     0.19685   0.04769   0.21181   0.00000  Uiso   1.00
C19    C     0.14319   0.45367   0.28763   0.00000  Uiso   1.00
C20    C     0.18036   0.02457   0.25147   0.00000  Uiso   1.00
C21    C     0.16217   0.47651   0.24880   0.00000  Uiso   1.00
C22    C     0.19867   0.11780   0.16429   0.00000  Uiso   1.00
C23    C     0.20570   0.26870   0.05817   0.00000  Uiso   1.00
C24    C     0.12611   0.38257   0.33020   0.00000  Uiso   1.00
C25    C     0.23167   0.02551   0.18203   0.00000  Uiso   1.00
C26    C     0.11281   0.47692   0.32042   0.00000  Uiso   1.00
C27    C     0.08634   0.20245   0.12073   0.00000  Uiso   1.00
C28    C     0.24038   0.30556   0.38268   0.00000  Uiso   1.00
C29    C     0.07057   0.22239   0.01707   0.00000  Uiso   1.00
C30    C     0.19711   0.33207   0.47260   0.00000  Uiso   1.00
C31    C     0.14031   0.21751   0.44258   0.00000  Uiso   1.00
C32    C     0.20524   0.27105   0.10827   0.00000  Uiso   1.00
C33    C     0.13744   0.21926   0.39208   0.00000  Uiso   1.00
C34    C     0.12555   0.22964   0.09957   0.00000  Uiso   1.00
C35    C     0.19570   0.28158   0.39962   0.00000  Uiso   1.00
C36    C     0.12039   0.23407   0.04813   0.00000  Uiso   1.00
Cl37   Cl    0.19716   0.11858   0.35390   0.00000  Uiso   1.00
Cl38   Cl    0.15734   0.38329   0.14667   0.00000  Uiso   1.00
Cl39   Cl    0.25395   0.30484   0.14135   0.00000  Uiso   1.00
Cl40   Cl    0.09425   0.18131   0.35810   0.00000  Uiso   1.00
Cu41   Cu    0.16667   0.25000   0.29822   0.00000  Uiso   1.00
Cu42   Cu    0.16667   0.25001   0.20179   0.00000  Uiso   1.00
H43    H     0.32572   0.24653   0.19412   0.00000  Uiso   1.00
H44    H     0.11302   0.46684   0.35764   0.00000  Uiso   1.00
H45    H     0.09756   0.17407   0.14264   0.00000  Uiso   1.00
H46    H     0.23920   0.31809   0.34658   0.00000  Uiso   1.00
H47    H     0.05624   0.24426   0.48785   0.00000  Uiso   1.00
H48    H     0.18297   0.33844   0.00646   0.00000  Uiso   1.00
H49    H     0.00769   0.25194   0.30611   0.00000  Uiso   1.00
H50    H     0.18825   0.03072   0.32939   0.00000  Uiso   1.00
H51    H     0.15969   0.46994   0.17130   0.00000  Uiso   1.00
H52    H     0.23935   0.28212   0.04378   0.00000  Uiso   1.00
H53    H     0.12268   0.18905   0.45813   0.00000  Uiso   1.00
H54    H     0.22556   0.14619   0.16528   0.00000  Uiso   1.00
H55    H     0.09828   0.35486   0.32367   0.00000  Uiso   1.00
H56    H     0.24883   0.49485   0.19465   0.00000  Uiso   1.00
N57    N     0.16667   0.25001   0.12935   0.00000  Uiso   1.00
N58    N     0.16667   0.24999   0.37065   0.00000  Uiso   1.00
O59    O     0.16667   0.18573   0.29071   0.00000  Uiso   1.00
O60    O     0.14379   0.39250   0.37179   0.00000  Uiso   1.00
O61    O     0.24265   0.04088   0.14422   0.00000  Uiso   1.00
O62    O     0.08550   0.00707   0.30529   0.00000  Uiso   1.00
O63    O     0.04093   0.21182   0.11418   0.00000  Uiso   1.00
O64    O     0.28110   0.31073   0.40990   0.00000  Uiso   1.00
O65    O     0.04676   0.18750   0.02189   0.00000  Uiso   1.00
O66    O     0.21860   0.36284   0.45410   0.00000  Uiso   1.00
O67    O     0.16666   0.31428   0.20929   0.00000  Uiso   1.00
O68    O     0.16667   0.18573   0.20928   0.00000  Uiso   1.00
O69    O     0.16666   0.31427   0.29072   0.00000  Uiso   1.00
O70    O     0.09161   0.25000   0.28132   0.00000  Uiso   1.00
O71    O     0.24172   0.25001   0.21868   0.00000  Uiso   1.00
O72    O     0.09161   0.25000   0.19989   0.00000  Uiso   1.00
O73    O     0.24172   0.25000   0.30012   0.00000  Uiso   1.00
O74    O     0.17385   0.10607   0.12569   0.00000  Uiso   1.00
C75    C     0.50496   0.16519   0.25063   0.00000  Uiso   1.00
C76    C     0.52050   0.28779   0.44853   0.00000  Uiso   1.00
C77    C     0.49579   0.25212   0.02664   0.00000  Uiso   1.00
C78    C     0.49632   0.25285   0.47202   0.00000  Uiso   1.00
C79    C     0.40128   0.24957   0.23756   0.00000  Uiso   1.00
C80    C     0.59873   0.25003   0.26247   0.00000  Uiso   1.00
C81    C     0.34589   0.24866   0.23087   0.00000  Uiso   1.00
C82    C     0.65414   0.25021   0.26929   0.00000  Uiso   1.00
C83    C     0.51893   0.04788   0.29526   0.00000  Uiso   1.00
C84    C     0.49293   0.45305   0.20532   0.00000  Uiso   1.00
C85    C     0.52055   0.09370   0.29603   0.00000  Uiso   1.00
C86    C     0.49635   0.33502   0.24937   0.00000  Uiso   1.00
C87    C     0.49085   0.40735   0.20434   0.00000  Uiso   1.00
C88    C     0.51585   0.11726   0.25186   0.00000  Uiso   1.00
C89    C     0.48880   0.38347   0.24775   0.00000  Uiso   1.00
C90    C     0.52486   0.09406   0.20952   0.00000  Uiso   1.00
C91    C     0.47689   0.40686   0.28876   0.00000  Uiso   1.00
C92    C     0.53018   0.04769   0.21181   0.00000  Uiso   1.00
C93    C     0.47652   0.45367   0.28763   0.00000  Uiso   1.00
C94    C     0.51369   0.02457   0.25147   0.00000  Uiso   1.00
C95    C     0.49550   0.47651   0.24880   0.00000  Uiso   1.00
C96    C     0.53200   0.11780   0.16429   0.00000  Uiso   1.00
C97    C     0.53903   0.26870   0.05817   0.00000  Uiso   1.00
C98    C     0.45944   0.38257   0.33020   0.00000  Uiso   1.00
C99    C     0.56500   0.02551   0.18203   0.00000  Uiso   1.00
C100   C     0.44615   0.47692   0.32042   0.00000  Uiso   1.00
C101   C     0.41967   0.20245   0.12073   0.00000  Uiso   1.00
C102   C     0.57371   0.30556   0.38268   0.00000  Uiso   1.00
C103   C     0.40391   0.22239   0.01707   0.00000  Uiso   1.00
C104   C     0.53044   0.33207   0.47260   0.00000  Uiso   1.00
C105   C     0.47364   0.21751   0.44258   0.00000  Uiso   1.00
C106   C     0.53857   0.27105   0.10827   0.00000  Uiso   1.00
C107   C     0.47077   0.21926   0.39208   0.00000  Uiso   1.00
C108   C     0.45889   0.22964   0.09957   0.00000  Uiso   1.00
C109   C     0.52904   0.28158   0.39962   0.00000  Uiso   1.00
C110   C     0.45372   0.23407   0.04813   0.00000  Uiso   1.00
Cl111  Cl    0.53049   0.11858   0.35390   0.00000  Uiso   1.00
Cl112  Cl    0.49067   0.38329   0.14667   0.00000  Uiso   1.00
Cl113  Cl    0.58729   0.30484   0.14135   0.00000  Uiso   1.00
Cl114  Cl    0.42759   0.18131   0.35810   0.00000  Uiso   1.00
Cu115  Cu    0.50000   0.25000   0.29822   0.00000  Uiso   1.00
Cu116  Cu    0.50000   0.25001   0.20179   0.00000  Uiso   1.00
H117   H     0.65906   0.24653   0.19412   0.00000  Uiso   1.00
H118   H     0.44636   0.46684   0.35764   0.00000  Uiso   1.00
H119   H     0.43089   0.17407   0.14264   0.00000  Uiso   1.00
H120   H     0.57253   0.31809   0.34658   0.00000  Uiso   1.00
H121   H     0.38958   0.24426   0.48785   0.00000  Uiso   1.00
H122   H     0.51630   0.33844   0.00646   0.00000  Uiso   1.00
H123   H     0.34103   0.25194   0.30611   0.00000  Uiso   1.00
H124   H     0.52158   0.03072   0.32939   0.00000  Uiso   1.00
H125   H     0.49303   0.46994   0.17130   0.00000  Uiso   1.00
H126   H     0.57268   0.28212   0.04378   0.00000  Uiso   1.00
H127   H     0.45602   0.18905   0.45813   0.00000  Uiso   1.00
H128   H     0.55889   0.14619   0.16528   0.00000  Uiso   1.00
H129   H     0.43161   0.35486   0.32367   0.00000  Uiso   1.00
H130   H     0.58216   0.49485   0.19465   0.00000  Uiso   1.00
N131   N     0.50000   0.25001   0.12935   0.00000  Uiso   1.00
N132   N     0.50000   0.24999   0.37065   0.00000  Uiso   1.00
O133   O     0.50000   0.18573   0.29071   0.00000  Uiso   1.00
O134   O     0.47712   0.39250   0.37179   0.00000  Uiso   1.00
O135   O     0.57598   0.04088   0.14422   0.00000  Uiso   1.00
O136   O     0.41884   0.00707   0.30529   0.00000  Uiso   1.00
O137   O     0.37426   0.21182   0.11418   0.00000  Uiso   1.00
O138   O     0.61443   0.31073   0.40990   0.00000  Uiso   1.00
O139   O     0.38009   0.18750   0.02189   0.00000  Uiso   1.00
O140   O     0.55194   0.36284   0.45410   0.00000  Uiso   1.00
O141   O     0.50000   0.31428   0.20929   0.00000  Uiso   1.00
O142   O     0.50000   0.18573   0.20928   0.00000  Uiso   1.00
O143   O     0.50000   0.31427   0.29072   0.00000  Uiso   1.00
O144   O     0.42495   0.25000   0.28132   0.00000  Uiso   1.00
O145   O     0.57505   0.25001   0.21868   0.00000  Uiso   1.00
O146   O     0.42495   0.25000   0.19989   0.00000  Uiso   1.00
O147   O     0.57505   0.25000   0.30012   0.00000  Uiso   1.00
O148   O     0.50719   0.10607   0.12569   0.00000  Uiso   1.00
C149   C     0.83829   0.16519   0.25063   0.00000  Uiso   1.00
C150   C     0.85383   0.28779   0.44853   0.00000  Uiso   1.00
C151   C     0.82913   0.25212   0.02664   0.00000  Uiso   1.00
C152   C     0.82965   0.25285   0.47202   0.00000  Uiso   1.00
C153   C     0.73461   0.24957   0.23756   0.00000  Uiso   1.00
C154   C     0.93207   0.25003   0.26247   0.00000  Uiso   1.00
C155   C     0.67922   0.24866   0.23087   0.00000  Uiso   1.00
C156   C     0.98747   0.25021   0.26929   0.00000  Uiso   1.00
C157   C     0.85227   0.04788   0.29526   0.00000  Uiso   1.00
C158   C     0.82626   0.45305   0.20532   0.00000  Uiso   1.00
C159   C     0.85388   0.09370   0.29603   0.00000  Uiso   1.00
C160   C     0.82969   0.33502   0.24937   0.00000  Uiso   1.00
C161   C     0.82418   0.40735   0.20434   0.00000  Uiso   1.00
C162   C     0.84918   0.11726   0.25186   0.00000  Uiso   1.00
C163   C     0.82213   0.38347   0.24775   0.00000  Uiso   1.00
C164   C     0.85819   0.09406   0.20952   0.00000  Uiso   1.00
C165   C     0.81022   0.40686   0.28876   0.00000  Uiso   1.00
C166   C     0.86352   0.04769   0.21181   0.00000  Uiso   1.00
C167   C     0.80986   0.45367   0.28763   0.00000  Uiso   1.00
C168   C     0.84703   0.02457   0.25147   0.00000  Uiso   1.00
C169   C     0.82883   0.47651   0.24880   0.00000  Uiso   1.00
C170   C     0.86534   0.11780   0.16429   0.00000  Uiso   1.00
C171   C     0.87236   0.26870   0.05817   0.00000  Uiso   1.00
C172   C     0.79278   0.38257   0.33020   0.00000  Uiso   1.00
C173   C     0.89834   0.02551   0.18203   0.00000  Uiso   1.00
C174   C     0.77948   0.47692   0.32042   0.00000  Uiso   1.00
C175   C     0.75301   0.20245   0.12073   0.00000  Uiso   1.00
C176   C     0.90705   0.30556   0.38268   0.00000  Uiso   1.00
C177   C     0.73724   0.22239   0.01707   0.00000  Uiso   1.00
C178   C     0.86377   0.33207   0.47260   0.00000  Uiso   1.00
C179   C     0.80698   0.21751   0.44258   0.00000  Uiso   1.00
C180   C     0.87191   0.27105   0.10827   0.00000  Uiso   1.00
C181   C     0.80411   0.21926   0.39208   0.00000  Uiso   1.00
C182   C     0.79222   0.22964   0.09957   0.00000  Uiso   1.00
C183   C     0.86237   0.28158   0.39962   0.00000  Uiso   1.00
C184   C     0.78706   0.23407   0.04813   0.00000  Uiso   1.00
Cl185  Cl    0.86383   0.11858   0.35390   0.00000  Uiso   1.00
Cl186  Cl    0.82401   0.38329   0.14667   0.00000  Uiso   1.00
Cl187  Cl    0.92062   0.30484   0.14135   0.00000  Uiso   1.00
Cl188  Cl    0.76092   0.18131   0.35810   0.00000  Uiso   1.00
Cu189  Cu    0.83333   0.25000   0.29822   0.00000  Uiso   1.00
Cu190  Cu    0.83333   0.25001   0.20179   0.00000  Uiso   1.00
H191   H     0.99239   0.24653   0.19412   0.00000  Uiso   1.00
H192   H     0.77969   0.46684   0.35764   0.00000  Uiso   1.00
H193   H     0.76422   0.17407   0.14264   0.00000  Uiso   1.00
H194   H     0.90587   0.31809   0.34658   0.00000  Uiso   1.00
H195   H     0.72291   0.24426   0.48785   0.00000  Uiso   1.00
H196   H     0.84964   0.33844   0.00646   0.00000  Uiso   1.00
H197   H     0.67436   0.25194   0.30611   0.00000  Uiso   1.00
H198   H     0.85492   0.03072   0.32939   0.00000  Uiso   1.00
H199   H     0.82636   0.46994   0.17130   0.00000  Uiso   1.00
H200   H     0.90601   0.28212   0.04378   0.00000  Uiso   1.00
H201   H     0.78935   0.18905   0.45813   0.00000  Uiso   1.00
H202   H     0.89222   0.14619   0.16528   0.00000  Uiso   1.00
H203   H     0.76494   0.35486   0.32367   0.00000  Uiso   1.00
H204   H     0.91550   0.49485   0.19465   0.00000  Uiso   1.00
N205   N     0.83333   0.25001   0.12935   0.00000  Uiso   1.00
N206   N     0.83333   0.24999   0.37065   0.00000  Uiso   1.00
O207   O     0.83334   0.18573   0.29071   0.00000  Uiso   1.00
O208   O     0.81046   0.39250   0.37179   0.00000  Uiso   1.00
O209   O     0.90932   0.04088   0.14422   0.00000  Uiso   1.00
O210   O     0.75217   0.00707   0.30529   0.00000  Uiso   1.00
O211   O     0.70759   0.21182   0.11418   0.00000  Uiso   1.00
O212   O     0.94777   0.31073   0.40990   0.00000  Uiso   1.00
O213   O     0.71343   0.18750   0.02189   0.00000  Uiso   1.00
O214   O     0.88527   0.36284   0.45410   0.00000  Uiso   1.00
O215   O     0.83333   0.31428   0.20929   0.00000  Uiso   1.00
O216   O     0.83334   0.18573   0.20928   0.00000  Uiso   1.00
O217   O     0.83333   0.31427   0.29072   0.00000  Uiso   1.00
O218   O     0.75828   0.25000   0.28132   0.00000  Uiso   1.00
O219   O     0.90839   0.25001   0.21868   0.00000  Uiso   1.00
O220   O     0.75828   0.25000   0.19989   0.00000  Uiso   1.00
O221   O     0.90839   0.25000   0.30012   0.00000  Uiso   1.00
O222   O     0.84052   0.10607   0.12569   0.00000  Uiso   1.00
C223   C     0.17163   0.66519   0.25063   0.00000  Uiso   1.00
C224   C     0.18717   0.78779   0.44853   0.00000  Uiso   1.00
C225   C     0.16246   0.75212   0.02664   0.00000  Uiso   1.00
C226   C     0.16299   0.75285   0.47202   0.00000  Uiso   1.00
C227   C     0.06794   0.74957   0.23756   0.00000  Uiso   1.00
C228   C     0.26540   0.75003   0.26247   0.00000  Uiso   1.00
C229   C     0.01256   0.74866   0.23087   0.00000  Uiso   1.00
C230   C     0.32081   0.75021   0.26929   0.00000  Uiso   1.00
C231   C     0.18560   0.54788   0.29526   0.00000  Uiso   1.00
C232   C     0.15959   0.95305   0.20532   0.00000  Uiso   1.00
C233   C     0.18721   0.59370   0.29603   0.00000  Uiso   1.00
C234   C     0.16302   0.83502   0.24937   0.00000  Uiso   1.00
C235   C     0.15751   0.90735   0.20434   0.00000  Uiso   1.00
C236   C     0.18252   0.61726   0.25186   0.00000  Uiso   1.00
C237   C     0.15547   0.88347   0.24775   0.00000  Uiso   1.00
C238   C     0.19152   0.59406   0.20952   0.00000  Uiso   1.00
C239   C     0.14355   0.90686   0.28876   0.00000  Uiso   1.00
C240   C     0.19685   0.54769   0.21181   0.00000  Uiso   1.00
C241   C     0.14319   0.95367   0.28763   0.00000  Uiso   1.00
C242   C     0.18036   0.52457   0.25147   0.00000  Uiso   1.00
C243   C     0.16217   0.97651   0.24880   0.00000  Uiso   1.00
C244   C     0.19867   0.61780   0.16429   0.00000  Uiso   1.00
C245   C     0.20570   0.76870   0.05817   0.00000  Uiso   1.00
C246   C     0.12611   0.88257   0.33020   0.00000  Uiso   1.00
C247   C     0.23167   0.52551   0.18203   0.00000  Uiso   1.00
C248   C     0.11281   0.97692   0.32042   0.00000  Uiso   1.00
C249   C     0.08634   0.70245   0.12073   0.00000  Uiso   1.00
C250   C     0.24038   0.80556   0.38268   0.00000  Uiso   1.00
C251   C     0.07057   0.72239   0.01707   0.00000  Uiso   1.00
C252   C     0.19711   0.83207   0.47260   0.00000  Uiso   1.00
C253   C     0.14031   0.71751   0.44258   0.00000  Uiso   1.00
C254   C     0.20524   0.77105   0.10827   0.00000  Uiso   1.00
C255   C     0.13744   0.71926   0.39208   0.00000  Uiso   1.00
C256   C     0.12555   0.72964   0.09957   0.00000  Uiso   1.00
C257   C     0.19570   0.78158   0.39962   0.00000  Uiso   1.00
C258   C     0.12039   0.73407   0.04813   0.00000  Uiso   1.00
Cl259  Cl    0.19716   0.61858   0.35390   0.00000  Uiso   1.00
Cl260  Cl    0.15734   0.88329   0.14667   0.00000  Uiso   1.00
Cl261  Cl    0.25395   0.80484   0.14135   0.00000  Uiso   1.00
Cl262  Cl    0.09425   0.68131   0.35810   0.00000  Uiso   1.00
Cu263  Cu    0.16667   0.75000   0.29822   0.00000  Uiso   1.00
Cu264  Cu    0.16667   0.75001   0.20179   0.00000  Uiso   1.00
H265   H     0.32572   0.74653   0.19412   0.00000  Uiso   1.00
H266   H     0.11302   0.96684   0.35764   0.00000  Uiso   1.00
H267   H     0.09756   0.67407   0.14264   0.00000  Uiso   1.00
H268   H     0.23920   0.81809   0.34658   0.00000  Uiso   1.00
H269   H     0.05624   0.74426   0.48785   0.00000  Uiso   1.00
H270   H     0.18297   0.83844   0.00646   0.00000  Uiso   1.00
H271   H     0.00769   0.75194   0.30611   0.00000  Uiso   1.00
H272   H     0.18825   0.53072   0.32939   0.00000  Uiso   1.00
H273   H     0.15969   0.96994   0.17130   0.00000  Uiso   1.00
H274   H     0.23935   0.78212   0.04378   0.00000  Uiso   1.00
H275   H     0.12268   0.68905   0.45813   0.00000  Uiso   1.00
H276   H     0.22556   0.64619   0.16528   0.00000  Uiso   1.00
H277   H     0.09828   0.85486   0.32367   0.00000  Uiso   1.00
H278   H     0.24883   0.99485   0.19465   0.00000  Uiso   1.00
N279   N     0.16667   0.75001   0.12935   0.00000  Uiso   1.00
N280   N     0.16667   0.74999   0.37065   0.00000  Uiso   1.00
O281   O     0.16667   0.68573   0.29071   0.00000  Uiso   1.00
O282   O     0.14379   0.89250   0.37179   0.00000  Uiso   1.00
O283   O     0.24265   0.54088   0.14422   0.00000  Uiso   1.00
O284   O     0.08550   0.50707   0.30529   0.00000  Uiso   1.00
O285   O     0.04093   0.71182   0.11418   0.00000  Uiso   1.00
O286   O     0.28110   0.81073   0.40990   0.00000  Uiso   1.00
O287   O     0.04676   0.68750   0.02189   0.00000  Uiso   1.00
O288   O     0.21860   0.86284   0.45410   0.00000  Uiso   1.00
O289   O     0.16666   0.81428   0.20929   0.00000  Uiso   1.00
O290   O     0.16667   0.68573   0.20928   0.00000  Uiso   1.00
O291   O     0.16666   0.81427   0.29072   0.00000  Uiso   1.00
O292   O     0.09161   0.75000   0.28132   0.00000  Uiso   1.00
O293   O     0.24172   0.75001   0.21868   0.00000  Uiso   1.00
O294   O     0.09161   0.75000   0.19989   0.00000  Uiso   1.00
O295   O     0.24172   0.75000   0.30012   0.00000  Uiso   1.00
O296   O     0.17385   0.60607   0.12569   0.00000  Uiso   1.00
C297   C     0.50496   0.66519   0.25063   0.00000  Uiso   1.00
C298   C     0.52050   0.78779   0.44853   0.00000  Uiso   1.00
C299   C     0.49579   0.75212   0.02664   0.00000  Uiso   1.00
C300   C     0.49632   0.75285   0.47202   0.00000  Uiso   1.00
C301   C     0.40128   0.74957   0.23756   0.00000  Uiso   1.00
C302   C     0.59873   0.75003   0.26247   0.00000  Uiso   1.00
C303   C     0.34589   0.74866   0.23087   0.00000  Uiso   1.00
C304   C     0.65414   0.75021   0.26929   0.00000  Uiso   1.00
C305   C     0.51893   0.54788   0.29526   0.00000  Uiso   1.00
C306   C     0.49293   0.95305   0.20532   0.00000  Uiso   1.00
C307   C     0.52055   0.59370   0.29603   0.00000  Uiso   1.00
C308   C     0.49635   0.83502   0.24937   0.00000  Uiso   1.00
C309   C     0.49085   0.90735   0.20434   0.00000  Uiso   1.00
C310   C     0.51585   0.61726   0.25186   0.00000  Uiso   1.00
C311   C     0.48880   0.88347   0.24775   0.00000  Uiso   1.00
C312   C     0.52486   0.59406   0.20952   0.00000  Uiso   1.00
C313   C     0.47689   0.90686   0.28876   0.00000  Uiso   1.00
C314   C     0.53018   0.54769   0.21181   0.00000  Uiso   1.00
C315   C     0.47652   0.95367   0.28763   0.00000  Uiso   1.00
C316   C     0.51369   0.52457   0.25147   0.00000  Uiso   1.00
C317   C     0.49550   0.97651   0.24880   0.00000  Uiso   1.00
C318   C     0.53200   0.61780   0.16429   0.00000  Uiso   1.00
C319   C     0.53903   0.76870   0.05817   0.00000  Uiso   1.00
C320   C     0.45944   0.88257   0.33020   0.00000  Uiso   1.00
C321   C     0.56500   0.52551   0.18203   0.00000  Uiso   1.00
C322   C     0.44615   0.97692   0.32042   0.00000  Uiso   1.00
C323   C     0.41967   0.70245   0.12073   0.00000  Uiso   1.00
C324   C     0.57371   0.80556   0.38268   0.00000  Uiso   1.00
C325   C     0.40391   0.72239   0.01707   0.00000  Uiso   1.00
C326   C     0.53044   0.83207   0.47260   0.00000  Uiso   1.00
C327   C     0.47364   0.71751   0.44258   0.00000  Uiso   1.00
C328   C     0.53857   0.77105   0.10827   0.00000  Uiso   1.00
C329   C     0.47077   0.71926   0.39208   0.00000  Uiso   1.00
C330   C     0.45889   0.72964   0.09957   0.00000  Uiso   1.00
C331   C     0.52904   0.78158   0.39962   0.00000  Uiso   1.00
C332   C     0.45372   0.73407   0.04813   0.00000  Uiso   1.00
Cl333  Cl    0.53049   0.61858   0.35390   0.00000  Uiso   1.00
Cl334  Cl    0.49067   0.88329   0.14667   0.00000  Uiso   1.00
Cl335  Cl    0.58729   0.80484   0.14135   0.00000  Uiso   1.00
Cl336  Cl    0.42759   0.68131   0.35810   0.00000  Uiso   1.00
Cu337  Cu    0.50000   0.75000   0.29822   0.00000  Uiso   1.00
Cu338  Cu    0.50000   0.75001   0.20179   0.00000  Uiso   1.00
H339   H     0.65906   0.74653   0.19412   0.00000  Uiso   1.00
H340   H     0.44636   0.96684   0.35764   0.00000  Uiso   1.00
H341   H     0.43089   0.67407   0.14264   0.00000  Uiso   1.00
H342   H     0.57253   0.81809   0.34658   0.00000  Uiso   1.00
H343   H     0.38958   0.74426   0.48785   0.00000  Uiso   1.00
H344   H     0.51630   0.83844   0.00646   0.00000  Uiso   1.00
H345   H     0.34103   0.75194   0.30611   0.00000  Uiso   1.00
H346   H     0.52158   0.53072   0.32939   0.00000  Uiso   1.00
H347   H     0.49303   0.96994   0.17130   0.00000  Uiso   1.00
H348   H     0.57268   0.78212   0.04378   0.00000  Uiso   1.00
H349   H     0.45602   0.68905   0.45813   0.00000  Uiso   1.00
H350   H     0.55889   0.64619   0.16528   0.00000  Uiso   1.00
H351   H     0.43161   0.85486   0.32367   0.00000  Uiso   1.00
H352   H     0.58216   0.99485   0.19465   0.00000  Uiso   1.00
N353   N     0.50000   0.75001   0.12935   0.00000  Uiso   1.00
N354   N     0.50000   0.74999   0.37065   0.00000  Uiso   1.00
O355   O     0.50000   0.68573   0.29071   0.00000  Uiso   1.00
O356   O     0.47712   0.89250   0.37179   0.00000  Uiso   1.00
O357   O     0.57598   0.54088   0.14422   0.00000  Uiso   1.00
O358   O     0.41884   0.50707   0.30529   0.00000  Uiso   1.00
O359   O     0.37426   0.71182   0.11418   0.00000  Uiso   1.00
O360   O     0.61443   0.81073   0.40990   0.00000  Uiso   1.00
O361   O     0.38009   0.68750   0.02189   0.00000  Uiso   1.00
O362   O     0.55194   0.86284   0.45410   0.00000  Uiso   1.00
O363   O     0.50000   0.81428   0.20929   0.00000  Uiso   1.00
O364   O     0.50000   0.68573   0.20928   0.00000  Uiso   1.00
O365   O     0.50000   0.81427   0.29072   0.00000  Uiso   1.00
O366   O     0.42495   0.75000   0.28132   0.00000  Uiso   1.00
O367   O     0.57505   0.75001   0.21868   0.00000  Uiso   1.00
O368   O     0.42495   0.75000   0.19989   0.00000  Uiso   1.00
O369   O     0.57505   0.75000   0.30012   0.00000  Uiso   1.00
O370   O     0.50719   0.60607   0.12569   0.00000  Uiso   1.00
C371   C     0.83829   0.66519   0.25063   0.00000  Uiso   1.00
C372   C     0.85383   0.78779   0.44853   0.00000  Uiso   1.00
C373   C     0.82913   0.75212   0.02664   0.00000  Uiso   1.00
C374   C     0.82965   0.75285   0.47202   0.00000  Uiso   1.00
C375   C     0.73461   0.74957   0.23756   0.00000  Uiso   1.00
C376   C     0.93207   0.75003   0.26247   0.00000  Uiso   1.00
C377   C     0.67922   0.74866   0.23087   0.00000  Uiso   1.00
C378   C     0.98747   0.75021   0.26929   0.00000  Uiso   1.00
C379   C     0.85227   0.54788   0.29526   0.00000  Uiso   1.00
C380   C     0.82626   0.95305   0.20532   0.00000  Uiso   1.00
C381   C     0.85388   0.59370   0.29603   0.00000  Uiso   1.00
C382   C     0.82969   0.83502   0.24937   0.00000  Uiso   1.00
C383   C     0.82418   0.90735   0.20434   0.00000  Uiso   1.00
C384   C     0.84918   0.61726   0.25186   0.00000  Uiso   1.00
C385   C     0.82213   0.88347   0.24775   0.00000  Uiso   1.00
C386   C     0.85819   0.59406   0.20952   0.00000  Uiso   1.00
C387   C     0.81022   0.90686   0.28876   0.00000  Uiso   1.00
C388   C     0.86352   0.54769   0.21181   0.00000  Uiso   1.00
C389   C     0.80986   0.95367   0.28763   0.00000  Uiso   1.00
C390   C     0.84703   0.52457   0.25147   0.00000  Uiso   1.00
C391   C     0.82883   0.97651   0.24880   0.00000  Uiso   1.00
C392   C     0.86534   0.61780   0.16429   0.00000  Uiso   1.00
C393   C     0.87236   0.76870   0.05817   0.00000  Uiso   1.00
C394   C     0.79278   0.88257   0.33020   0.00000  Uiso   1.00
C395   C     0.89834   0.52551   0.18203   0.00000  Uiso   1.00
C396   C     0.77948   0.97692   0.32042   0.00000  Uiso   1.00
C397   C     0.75301   0.70245   0.12073   0.00000  Uiso   1.00
C398   C     0.90705   0.80556   0.38268   0.00000  Uiso   1.00
C399   C     0.73724   0.72239   0.01707   0.00000  Uiso   1.00
C400   C     0.86377   0.83207   0.47260   0.00000  Uiso   1.00
C401   C     0.80698   0.71751   0.44258   0.00000  Uiso   1.00
C402   C     0.87191   0.77105   0.10827   0.00000  Uiso   1.00
C403   C     0.80411   0.71926   0.39208   0.00000  Uiso   1.00
C404   C     0.79222   0.72964   0.09957   0.00000  Uiso   1.00
C405   C     0.86237   0.78158   0.39962   0.00000  Uiso   1.00
C406   C     0.78706   0.73407   0.04813   0.00000  Uiso   1.00
Cl407  Cl    0.86383   0.61858   0.35390   0.00000  Uiso   1.00
Cl408  Cl    0.82401   0.88329   0.14667   0.00000  Uiso   1.00
Cl409  Cl    0.92062   0.80484   0.14135   0.00000  Uiso   1.00
Cl410  Cl    0.76092   0.68131   0.35810   0.00000  Uiso   1.00
Cu411  Cu    0.83333   0.75000   0.29822   0.00000  Uiso   1.00
Cu412  Cu    0.83333   0.75001   0.20179   0.00000  Uiso   1.00
H413   H     0.99239   0.74653   0.19412   0.00000  Uiso   1.00
H414   H     0.77969   0.96684   0.35764   0.00000  Uiso   1.00
H415   H     0.76422   0.67407   0.14264   0.00000  Uiso   1.00
H416   H     0.90587   0.81809   0.34658   0.00000  Uiso   1.00
H417   H     0.72291   0.74426   0.48785   0.00000  Uiso   1.00
H418   H     0.84964   0.83844   0.00646   0.00000  Uiso   1.00
H419   H     0.67436   0.75194   0.30611   0.00000  Uiso   1.00
H420   H     0.85492   0.53072   0.32939   0.00000  Uiso   1.00
H421   H     0.82636   0.96994   0.17130   0.00000  Uiso   1.00
H422   H     0.90601   0.78212   0.04378   0.00000  Uiso   1.00
H423   H     0.78935   0.68905   0.45813   0.00000  Uiso   1.00
H424   H     0.89222   0.64619   0.16528   0.00000  Uiso   1.00
H425   H     0.76494   0.85486   0.32367   0.00000  Uiso   1.00
H426   H     0.91550   0.99485   0.19465   0.00000  Uiso   1.00
N427   N     0.83333   0.75001   0.12935   0.00000  Uiso   1.00
N428   N     0.83333   0.74999   0.37065   0.00000  Uiso   1.00
O429   O     0.83334   0.68573   0.29071   0.00000  Uiso   1.00
O430   O     0.81046   0.89250   0.37179   0.00000  Uiso   1.00
O431   O     0.90932   0.54088   0.14422   0.00000  Uiso   1.00
O432   O     0.75217   0.50707   0.30529   0.00000  Uiso   1.00
O433   O     0.70759   0.71182   0.11418   0.00000  Uiso   1.00
O434   O     0.94777   0.81073   0.40990   0.00000  Uiso   1.00
O435   O     0.71343   0.68750   0.02189   0.00000  Uiso   1.00
O436   O     0.88527   0.86284   0.45410   0.00000  Uiso   1.00
O437   O     0.83333   0.81428   0.20929   0.00000  Uiso   1.00
O438   O     0.83334   0.68573   0.20928   0.00000  Uiso   1.00
O439   O     0.83333   0.81427   0.29072   0.00000  Uiso   1.00
O440   O     0.75828   0.75000   0.28132   0.00000  Uiso   1.00
O441   O     0.90839   0.75001   0.21868   0.00000  Uiso   1.00
O442   O     0.75828   0.75000   0.19989   0.00000  Uiso   1.00
O443   O     0.90839   0.75000   0.30012   0.00000  Uiso   1.00
O444   O     0.84052   0.60607   0.12569   0.00000  Uiso   1.00
C445   C     0.17163   0.16519   0.75063   0.00000  Uiso   1.00
C446   C     0.18717   0.28779   0.94853   0.00000  Uiso   1.00
C447   C     0.16246   0.25212   0.52664   0.00000  Uiso   1.00
C448   C     0.16299   0.25285   0.97202   0.00000  Uiso   1.00
C449   C     0.06794   0.24957   0.73756   0.00000  Uiso   1.00
C450   C     0.26540   0.25003   0.76247   0.00000  Uiso   1.00
C451   C     0.01256   0.24866   0.73087   0.00000  Uiso   1.00
C452   C     0.32081   0.25021   0.76929   0.00000  Uiso   1.00
C453   C     0.18560   0.04788   0.79526   0.00000  Uiso   1.00
C454   C     0.15959   0.45305   0.70532   0.00000  Uiso   1.00
C455   C     0.18721   0.09370   0.79603   0.00000  Uiso   1.00
C456   C     0.16302   0.33502   0.74937   0.00000  Uiso   1.00
C457   C     0.15751   0.40735   0.70434   0.00000  Uiso   1.00
C458   C     0.18252   0.11726   0.75186   0.00000  Uiso   1.00
C459   C     0.15547   0.38347   0.74775   0.00000  Uiso   1.00
C460   C     0.19152   0.09406   0.70952   0.00000  Uiso   1.00
C461   C     0.14355   0.40686   0.78876   0.00000  Uiso   1.00
C462   C     0.19685   0.04769   0.71181   0.00000  Uiso   1.00
C463   C     0.14319   0.45367   0.78763   0.00000  Uiso   1.00
C464   C     0.18036   0.02457   0.75147   0.00000  Uiso   1.00
C465   C     0.16217   0.47651   0.74880   0.00000  Uiso   1.00
C466   C     0.19867   0.11780   0.66429   0.00000  Uiso   1.00
C467   C     0.20570   0.26870   0.55817   0.00000  Uiso   1.00
C468   C     0.12611   0.38257   0.83020   0.00000  Uiso   1.00
C469   C     0.23167   0.02551   0.68203   0.00000  Uiso   1.00
C470   C     0.11281   0.47692   0.82042   0.00000  Uiso   1.00
C471   C     0.08634   0.20245   0.62073   0.00000  Uiso   1.00
C472   C     0.24038   0.30556   0.88268   0.00000  Uiso   1.00
C473   C     0.07057   0.22239   0.51707   0.00000  Uiso   1.00
C474   C     0.19711   0.33207   0.97260   0.00000  Uiso   1.00
C475   C     0.14031   0.21751   0.94258   0.00000  Uiso   1.00
C476   C     0.20524   0.27105   0.60827   0.00000  Uiso   1.00
C477   C     0.13744   0.21926   0.89208   0.00000  Uiso   1.00
C478   C     0.12555   0.22964   0.59957   0.00000  Uiso   1.00
C479   C     0.19570   0.28158   0.89962   0.00000  Uiso   1.00
C480   C     0.12039   0.23407   0.54813   0.00000  Uiso   1.00
Cl481  Cl    0.19716   0.11858   0.85390   0.00000  Uiso   1.00
Cl482  Cl    0.15734   0.38329   0.64667   0.00000  Uiso   1.00
Cl483  Cl    0.25395   0.30484   0.64135   0.00000  Uiso   1.00
Cl484  Cl    0.09425   0.18131   0.85810   0.00000  Uiso   1.00
Cu485  Cu    0.16667   0.25000   0.79822   0.00000  Uiso   1.00
Cu486  Cu    0.16667   0.25001   0.70179   0.00000  Uiso   1.00
H487   H     0.32572   0.24653   0.69412   0.00000  Uiso   1.00
H488   H     0.11302   0.46684   0.85764   0.00000  Uiso   1.00
H489   H     0.09756   0.17407   0.64264   0.00000  Uiso   1.00
H490   H     0.23920   0.31809   0.84658   0.00000  Uiso   1.00
H491   H     0.05624   0.24426   0.98785   0.00000  Uiso   1.00
H492   H     0.18297   0.33844   0.50646   0.00000  Uiso   1.00
H493   H     0.00769   0.25194   0.80611   0.00000  Uiso   1.00
H494   H     0.18825   0.03072   0.82939   0.00000  Uiso   1.00
H495   H     0.15969   0.46994   0.67130   0.00000  Uiso   1.00
H496   H     0.23935   0.28212   0.54378   0.00000  Uiso   1.00
H497   H     0.12268   0.18905   0.95813   0.00000  Uiso   1.00
H498   H     0.22556   0.14619   0.66528   0.00000  Uiso   1.00
H499   H     0.09828   0.35486   0.82367   0.00000  Uiso   1.00
H500   H     0.24883   0.49485   0.69465   0.00000  Uiso   1.00
N501   N     0.16667   0.25001   0.62935   0.00000  Uiso   1.00
N502   N     0.16667   0.24999   0.87065   0.00000  Uiso   1.00
O503   O     0.16667   0.18573   0.79071   0.00000  Uiso   1.00
O504   O     0.14379   0.39250   0.87179   0.00000  Uiso   1.00
O505   O     0.24265   0.04088   0.64422   0.00000  Uiso   1.00
O506   O     0.08550   0.00707   0.80529   0.00000  Uiso   1.00
O507   O     0.04093   0.21182   0.61418   0.00000  Uiso   1.00
O508   O     0.28110   0.31073   0.90990   0.00000  Uiso   1.00
O509   O     0.04676   0.18750   0.52189   0.00000  Uiso   1.00
O510   O     0.21860   0.36284   0.95410   0.00000  Uiso   1.00
O511   O     0.16666   0.31428   0.70929   0.00000  Uiso   1.00
O512   O     0.16667   0.18573   0.70928   0.00000  Uiso   1.00
O513   O     0.16666   0.31427   0.79072   0.00000  Uiso   1.00
O514   O     0.09161   0.25000   0.78132   0.00000  Uiso   1.00
O515   O     0.24172   0.25001   0.71868   0.00000  Uiso   1.00
O516   O     0.09161   0.25000   0.69989   0.00000  Uiso   1.00
O517   O     0.24172   0.25000   0.80012   0.00000  Uiso   1.00
O518   O     0.17385   0.10607   0.62569   0.00000  Uiso   1.00
C519   C     0.50496   0.16519   0.75063   0.00000  Uiso   1.00
C520   C     0.52050   0.28779   0.94853   0.00000  Uiso   1.00
C521   C     0.49579   0.25212   0.52664   0.00000  Uiso   1.00
C522   C     0.49632   0.25285   0.97202   0.00000  Uiso   1.00
C523   C     0.40128   0.24957   0.73756   0.00000  Uiso   1.00
C524   C     0.59873   0.25003   0.76247   0.00000  Uiso   1.00
C525   C     0.34589   0.24866   0.73087   0.00000  Uiso   1.00
C526   C     0.65414   0.25021   0.76929   0.00000  Uiso   1.00
C527   C     0.51893   0.04788   0.79526   0.00000  Uiso   1.00
C528   C     0.49293   0.45305   0.70532   0.00000  Uiso   1.00
C529   C     0.52055   0.09370   0.79603   0.00000  Uiso   1.00
C530   C     0.49635   0.33502   0.74937   0.00000  Uiso   1.00
C531   C     0.49085   0.40735   0.70434   0.00000  Uiso   1.00
C532   C     0.51585   0.11726   0.75186   0.00000  Uiso   1.00
C533   C     0.48880   0.38347   0.74775   0.00000  Uiso   1.00
C534   C     0.52486   0.09406   0.70952   0.00000  Uiso   1.00
C535   C     0.47689   0.40686   0.78876   0.00000  Uiso   1.00
C536   C     0.53018   0.04769   0.71181   0.00000  Uiso   1.00
C537   C     0.47652   0.45367   0.78763   0.00000  Uiso   1.00
C538   C     0.51369   0.02457   0.75147   0.00000  Uiso   1.00
C539   C     0.49550   0.47651   0.74880   0.00000  Uiso   1.00
C540   C     0.53200   0.11780   0.66429   0.00000  Uiso   1.00
C541   C     0.53903   0.26870   0.55817   0.00000  Uiso   1.00
C542   C     0.45944   0.38257   0.83020   0.00000  Uiso   1.00
C543   C     0.56500   0.02551   0.68203   0.00000  Uiso   1.00
C544   C     0.44615   0.47692   0.82042   0.00000  Uiso   1.00
C545   C     0.41967   0.20245   0.62073   0.00000  Uiso   1.00
C546   C     0.57371   0.30556   0.88268   0.00000  Uiso   1.00
C547   C     0.40391   0.22239   0.51707   0.00000  Uiso   1.00
C548   C     0.53044   0.33207   0.97260   0.00000  Uiso   1.00
C549   C     0.47364   0.21751   0.94258   0.00000  Uiso   1.00
C550   C     0.53857   0.27105   0.60827   0.00000  Uiso   1.00
C551   C     0.47077   0.21926   0.89208   0.00000  Uiso   1.00
C552   C     0.45889   0.22964   0.59957   0.00000  Uiso   1.00
C553   C     0.52904   0.28158   0.89962   0.00000  Uiso   1.00
C554   C     0.45372   0.23407   0.54813   0.00000  Uiso   1.00
Cl555  Cl    0.53049   0.11858   0.85390   0.00000  Uiso   1.00
Cl556  Cl    0.49067   0.38329   0.64667   0.00000  Uiso   1.00
Cl557  Cl    0.58729   0.30484   0.64135   0.00000  Uiso   1.00
Cl558  Cl    0.42759   0.18131   0.85810   0.00000  Uiso   1.00
Cu559  Cu    0.50000   0.25000   0.79822   0.00000  Uiso   1.00
Cu560  Cu    0.50000   0.25001   0.70179   0.00000  Uiso   1.00
H561   H     0.65906   0.24653   0.69412   0.00000  Uiso   1.00
H562   H     0.44636   0.46684   0.85764   0.00000  Uiso   1.00
H563   H     0.43089   0.17407   0.64264   0.00000  Uiso   1.00
H564   H     0.57253   0.31809   0.84658   0.00000  Uiso   1.00
H565   H     0.38958   0.24426   0.98785   0.00000  Uiso   1.00
H566   H     0.51630   0.33844   0.50646   0.00000  Uiso   1.00
H567   H     0.34103   0.25194   0.80611   0.00000  Uiso   1.00
H568   H     0.52158   0.03072   0.82939   0.00000  Uiso   1.00
H569   H     0.49303   0.46994   0.67130   0.00000  Uiso   1.00
H570   H     0.57268   0.28212   0.54378   0.00000  Uiso   1.00
H571   H     0.45602   0.18905   0.95813   0.00000  Uiso   1.00
H572   H     0.55889   0.14619   0.66528   0.00000  Uiso   1.00
H573   H     0.43161   0.35486   0.82367   0.00000  Uiso   1.00
H574   H     0.58216   0.49485   0.69465   0.00000  Uiso   1.00
N575   N     0.50000   0.25001   0.62935   0.00000  Uiso   1.00
N576   N     0.50000   0.24999   0.87065   0.00000  Uiso   1.00
O577   O     0.50000   0.18573   0.79071   0.00000  Uiso   1.00
O578   O     0.47712   0.39250   0.87179   0.00000  Uiso   1.00
O579   O     0.57598   0.04088   0.64422   0.00000  Uiso   1.00
O580   O     0.41884   0.00707   0.80529   0.00000  Uiso   1.00
O581   O     0.37426   0.21182   0.61418   0.00000  Uiso   1.00
O582   O     0.61443   0.31073   0.90990   0.00000  Uiso   1.00
O583   O     0.38009   0.18750   0.52189   0.00000  Uiso   1.00
O584   O     0.55194   0.36284   0.95410   0.00000  Uiso   1.00
O585   O     0.50000   0.31428   0.70929   0.00000  Uiso   1.00
O586   O     0.50000   0.18573   0.70928   0.00000  Uiso   1.00
O587   O     0.50000   0.31427   0.79072   0.00000  Uiso   1.00
O588   O     0.42495   0.25000   0.78132   0.00000  Uiso   1.00
O589   O     0.57505   0.25001   0.71868   0.00000  Uiso   1.00
O590   O     0.42495   0.25000   0.69989   0.00000  Uiso   1.00
O591   O     0.57505   0.25000   0.80012   0.00000  Uiso   1.00
O592   O     0.50719   0.10607   0.62569   0.00000  Uiso   1.00
C593   C     0.83829   0.16519   0.75063   0.00000  Uiso   1.00
C594   C     0.85383   0.28779   0.94853   0.00000  Uiso   1.00
C595   C     0.82913   0.25212   0.52664   0.00000  Uiso   1.00
C596   C     0.82965   0.25285   0.97202   0.00000  Uiso   1.00
C597   C     0.73461   0.24957   0.73756   0.00000  Uiso   1.00
C598   C     0.93207   0.25003   0.76247   0.00000  Uiso   1.00
C599   C     0.67922   0.24866   0.73087   0.00000  Uiso   1.00
C600   C     0.98747   0.25021   0.76929   0.00000  Uiso   1.00
C601   C     0.85227   0.04788   0.79526   0.00000  Uiso   1.00
C602   C     0.82626   0.45305   0.70532   0.00000  Uiso   1.00
C603   C     0.85388   0.09370   0.79603   0.00000  Uiso   1.00
C604   C     0.82969   0.33502   0.74937   0.00000  Uiso   1.00
C605   C     0.82418   0.40735   0.70434   0.00000  Uiso   1.00
C606   C     0.84918   0.11726   0.75186   0.00000  Uiso   1.00
C607   C     0.82213   0.38347   0.74775   0.00000  Uiso   1.00
C608   C     0.85819   0.09406   0.70952   0.00000  Uiso   1.00
C609   C     0.81022   0.40686   0.78876   0.00000  Uiso   1.00
C610   C     0.86352   0.04769   0.71181   0.00000  Uiso   1.00
C611   C     0.80986   0.45367   0.78763   0.00000  Uiso   1.00
C612   C     0.84703   0.02457   0.75147   0.00000  Uiso   1.00
C613   C     0.82883   0.47651   0.74880   0.00000  Uiso   1.00
C614   C     0.86534   0.11780   0.66429   0.00000  Uiso   1.00
C615   C     0.87236   0.26870   0.55817   0.00000  Uiso   1.00
C616   C     0.79278   0.38257   0.83020   0.00000  Uiso   1.00
C617   C     0.89834   0.02551   0.68203   0.00000  Uiso   1.00
C618   C     0.77948   0.47692   0.82042   0.00000  Uiso   1.00
C619   C     0.75301   0.20245   0.62073   0.00000  Uiso   1.00
C620   C     0.90705   0.30556   0.88268   0.00000  Uiso   1.00
C621   C     0.73724   0.22239   0.51707   0.00000  Uiso   1.00
C622   C     0.86377   0.33207   0.97260   0.00000  Uiso   1.00
C623   C     0.80698   0.21751   0.94258   0.00000  Uiso   1.00
C624   C     0.87191   0.27105   0.60827   0.00000  Uiso   1.00
C625   C     0.80411   0.21926   0.89208   0.00000  Uiso   1.00
C626   C     0.79222   0.22964   0.59957   0.00000  Uiso   1.00
C627   C     0.86237   0.28158   0.89962   0.00000  Uiso   1.00
C628   C     0.78706   0.23407   0.54813   0.00000  Uiso   1.00
Cl629  Cl    0.86383   0.11858   0.85390   0.00000  Uiso   1.00
Cl630  Cl    0.82401   0.38329   0.64667   0.00000  Uiso   1.00
Cl631  Cl    0.92062   0.30484   0.64135   0.00000  Uiso   1.00
Cl632  Cl    0.76092   0.18131   0.85810   0.00000  Uiso   1.00
Cu633  Cu    0.83333   0.25000   0.79822   0.00000  Uiso   1.00
Cu634  Cu    0.83333   0.25001   0.70179   0.00000  Uiso   1.00
H635   H     0.99239   0.24653   0.69412   0.00000  Uiso   1.00
H636   H     0.77969   0.46684   0.85764   0.00000  Uiso   1.00
H637   H     0.76422   0.17407   0.64264   0.00000  Uiso   1.00
H638   H     0.90587   0.31809   0.84658   0.00000  Uiso   1.00
H639   H     0.72291   0.24426   0.98785   0.00000  Uiso   1.00
H640   H     0.84964   0.33844   0.50646   0.00000  Uiso   1.00
H641   H     0.67436   0.25194   0.80611   0.00000  Uiso   1.00
H642   H     0.85492   0.03072   0.82939   0.00000  Uiso   1.00
H643   H     0.82636   0.46994   0.67130   0.00000  Uiso   1.00
H644   H     0.90601   0.28212   0.54378   0.00000  Uiso   1.00
H645   H     0.78935   0.18905   0.95813   0.00000  Uiso   1.00
H646   H     0.89222   0.14619   0.66528   0.00000  Uiso   1.00
H647   H     0.76494   0.35486   0.82367   0.00000  Uiso   1.00
H648   H     0.91550   0.49485   0.69465   0.00000  Uiso   1.00
N649   N     0.83333   0.25001   0.62935   0.00000  Uiso   1.00
N650   N     0.83333   0.24999   0.87065   0.00000  Uiso   1.00
O651   O     0.83334   0.18573   0.79071   0.00000  Uiso   1.00
O652   O     0.81046   0.39250   0.87179   0.00000  Uiso   1.00
O653   O     0.90932   0.04088   0.64422   0.00000  Uiso   1.00
O654   O     0.75217   0.00707   0.80529   0.00000  Uiso   1.00
O655   O     0.70759   0.21182   0.61418   0.00000  Uiso   1.00
O656   O     0.94777   0.31073   0.90990   0.00000  Uiso   1.00
O657   O     0.71343   0.18750   0.52189   0.00000  Uiso   1.00
O658   O     0.88527   0.36284   0.95410   0.00000  Uiso   1.00
O659   O     0.83333   0.31428   0.70929   0.00000  Uiso   1.00
O660   O     0.83334   0.18573   0.70928   0.00000  Uiso   1.00
O661   O     0.83333   0.31427   0.79072   0.00000  Uiso   1.00
O662   O     0.75828   0.25000   0.78132   0.00000  Uiso   1.00
O663   O     0.90839   0.25001   0.71868   0.00000  Uiso   1.00
O664   O     0.75828   0.25000   0.69989   0.00000  Uiso   1.00
O665   O     0.90839   0.25000   0.80012   0.00000  Uiso   1.00
O666   O     0.84052   0.10607   0.62569   0.00000  Uiso   1.00
C667   C     0.17163   0.66519   0.75063   0.00000  Uiso   1.00
C668   C     0.18717   0.78779   0.94853   0.00000  Uiso   1.00
C669   C     0.16246   0.75212   0.52664   0.00000  Uiso   1.00
C670   C     0.16299   0.75285   0.97202   0.00000  Uiso   1.00
C671   C     0.06794   0.74957   0.73756   0.00000  Uiso   1.00
C672   C     0.26540   0.75003   0.76247   0.00000  Uiso   1.00
C673   C     0.01256   0.74866   0.73087   0.00000  Uiso   1.00
C674   C     0.32081   0.75021   0.76929   0.00000  Uiso   1.00
C675   C     0.18560   0.54788   0.79526   0.00000  Uiso   1.00
C676   C     0.15959   0.95305   0.70532   0.00000  Uiso   1.00
C677   C     0.18721   0.59370   0.79603   0.00000  Uiso   1.00
C678   C     0.16302   0.83502   0.74937   0.00000  Uiso   1.00
C679   C     0.15751   0.90735   0.70434   0.00000  Uiso   1.00
C680   C     0.18252   0.61726   0.75186   0.00000  Uiso   1.00
C681   C     0.15547   0.88347   0.74775   0.00000  Uiso   1.00
C682   C     0.19152   0.59406   0.70952   0.00000  Uiso   1.00
C683   C     0.14355   0.90686   0.78876   0.00000  Uiso   1.00
C684   C     0.19685   0.54769   0.71181   0.00000  Uiso   1.00
C685   C     0.14319   0.95367   0.78763   0.00000  Uiso   1.00
C686   C     0.18036   0.52457   0.75147   0.00000  Uiso   1.00
C687   C     0.16217   0.97651   0.74880   0.00000  Uiso   1.00
C688   C     0.19867   0.61780   0.66429   0.00000  Uiso   1.00
C689   C     0.20570   0.76870   0.55817   0.00000  Uiso   1.00
C690   C     0.12611   0.88257   0.83020   0.00000  Uiso   1.00
C691   C     0.23167   0.52551   0.68203   0.00000  Uiso   1.00
C692   C     0.11281   0.97692   0.82042   0.00000  Uiso   1.00
C693   C     0.08634   0.70245   0.62073   0.00000  Uiso   1.00
C694   C     0.24038   0.80556   0.88268   0.00000  Uiso   1.00
C695   C     0.07057   0.72239   0.51707   0.00000  Uiso   1.00
C696   C     0.19711   0.83207   0.97260   0.00000  Uiso   1.00
C697   C     0.14031   0.71751   0.94258   0.00000  Uiso   1.00
C698   C     0.20524   0.77105   0.60827   0.00000  Uiso   1.00
C699   C     0.13744   0.71926   0.89208   0.00000  Uiso   1.00
C700   C     0.12555   0.72964   0.59957   0.00000  Uiso   1.00
C701   C     0.19570   0.78158   0.89962   0.00000  Uiso   1.00
C702   C     0.12039   0.73407   0.54813   0.00000  Uiso   1.00
Cl703  Cl    0.19716   0.61858   0.85390   0.00000  Uiso   1.00
Cl704  Cl    0.15734   0.88329   0.64667   0.00000  Uiso   1.00
Cl705  Cl    0.25395   0.80484   0.64135   0.00000  Uiso   1.00
Cl706  Cl    0.09425   0.68131   0.85810   0.00000  Uiso   1.00
Cu707  Cu    0.16667   0.75000   0.79822   0.00000  Uiso   1.00
Cu708  Cu    0.16667   0.75001   0.70179   0.00000  Uiso   1.00
H709   H     0.32572   0.74653   0.69412   0.00000  Uiso   1.00
H710   H     0.11302   0.96684   0.85764   0.00000  Uiso   1.00
H711   H     0.09756   0.67407   0.64264   0.00000  Uiso   1.00
H712   H     0.23920   0.81809   0.84658   0.00000  Uiso   1.00
H713   H     0.05624   0.74426   0.98785   0.00000  Uiso   1.00
H714   H     0.18297   0.83844   0.50646   0.00000  Uiso   1.00
H715   H     0.00769   0.75194   0.80611   0.00000  Uiso   1.00
H716   H     0.18825   0.53072   0.82939   0.00000  Uiso   1.00
H717   H     0.15969   0.96994   0.67130   0.00000  Uiso   1.00
H718   H     0.23935   0.78212   0.54378   0.00000  Uiso   1.00
H719   H     0.12268   0.68905   0.95813   0.00000  Uiso   1.00
H720   H     0.22556   0.64619   0.66528   0.00000  Uiso   1.00
H721   H     0.09828   0.85486   0.82367   0.00000  Uiso   1.00
H722   H     0.24883   0.99485   0.69465   0.00000  Uiso   1.00
N723   N     0.16667   0.75001   0.62935   0.00000  Uiso   1.00
N724   N     0.16667   0.74999   0.87065   0.00000  Uiso   1.00
O725   O     0.16667   0.68573   0.79071   0.00000  Uiso   1.00
O726   O     0.14379   0.89250   0.87179   0.00000  Uiso   1.00
O727   O     0.24265   0.54088   0.64422   0.00000  Uiso   1.00
O728   O     0.08550   0.50707   0.80529   0.00000  Uiso   1.00
O729   O     0.04093   0.71182   0.61418   0.00000  Uiso   1.00
O730   O     0.28110   0.81073   0.90990   0.00000  Uiso   1.00
O731   O     0.04676   0.68750   0.52189   0.00000  Uiso   1.00
O732   O     0.21860   0.86284   0.95410   0.00000  Uiso   1.00
O733   O     0.16666   0.81428   0.70929   0.00000  Uiso   1.00
O734   O     0.16667   0.68573   0.70928   0.00000  Uiso   1.00
O735   O     0.16666   0.81427   0.79072   0.00000  Uiso   1.00
O736   O     0.09161   0.75000   0.78132   0.00000  Uiso   1.00
O737   O     0.24172   0.75001   0.71868   0.00000  Uiso   1.00
O738   O     0.09161   0.75000   0.69989   0.00000  Uiso   1.00
O739   O     0.24172   0.75000   0.80012   0.00000  Uiso   1.00
O740   O     0.17385   0.60607   0.62569   0.00000  Uiso   1.00
C741   C     0.50496   0.66519   0.75063   0.00000  Uiso   1.00
C742   C     0.52050   0.78779   0.94853   0.00000  Uiso   1.00
C743   C     0.49579   0.75212   0.52664   0.00000  Uiso   1.00
C744   C     0.49632   0.75285   0.97202   0.00000  Uiso   1.00
C745   C     0.40128   0.74957   0.73756   0.00000  Uiso   1.00
C746   C     0.59873   0.75003   0.76247   0.00000  Uiso   1.00
C747   C     0.34589   0.74866   0.73087   0.00000  Uiso   1.00
C748   C     0.65414   0.75021   0.76929   0.00000  Uiso   1.00
C749   C     0.51893   0.54788   0.79526   0.00000  Uiso   1.00
C750   C     0.49293   0.95305   0.70532   0.00000  Uiso   1.00
C751   C     0.52055   0.59370   0.79603   0.00000  Uiso   1.00
C752   C     0.49635   0.83502   0.74937   0.00000  Uiso   1.00
C753   C     0.49085   0.90735   0.70434   0.00000  Uiso   1.00
C754   C     0.51585   0.61726   0.75186   0.00000  Uiso   1.00
C755   C     0.48880   0.88347   0.74775   0.00000  Uiso   1.00
C756   C     0.52486   0.59406   0.70952   0.00000  Uiso   1.00
C757   C     0.47689   0.90686   0.78876   0.00000  Uiso   1.00
C758   C     0.53018   0.54769   0.71181   0.00000  Uiso   1.00
C759   C     0.47652   0.95367   0.78763   0.00000  Uiso   1.00
C760   C     0.51369   0.52457   0.75147   0.00000  Uiso   1.00
C761   C     0.49550   0.97651   0.74880   0.00000  Uiso   1.00
C762   C     0.53200   0.61780   0.66429   0.00000  Uiso   1.00
C763   C     0.53903   0.76870   0.55817   0.00000  Uiso   1.00
C764   C     0.45944   0.88257   0.83020   0.00000  Uiso   1.00
C765   C     0.56500   0.52551   0.68203   0.00000  Uiso   1.00
C766   C     0.44615   0.97692   0.82042   0.00000  Uiso   1.00
C767   C     0.41967   0.70245   0.62073   0.00000  Uiso   1.00
C768   C     0.57371   0.80556   0.88268   0.00000  Uiso   1.00
C769   C     0.40391   0.72239   0.51707   0.00000  Uiso   1.00
C770   C     0.53044   0.83207   0.97260   0.00000  Uiso   1.00
C771   C     0.47364   0.71751   0.94258   0.00000  Uiso   1.00
C772   C     0.53857   0.77105   0.60827   0.00000  Uiso   1.00
C773   C     0.47077   0.71926   0.89208   0.00000  Uiso   1.00
C774   C     0.45889   0.72964   0.59957   0.00000  Uiso   1.00
C775   C     0.52904   0.78158   0.89962   0.00000  Uiso   1.00
C776   C     0.45372   0.73407   0.54813   0.00000  Uiso   1.00
Cl777  Cl    0.53049   0.61858   0.85390   0.00000  Uiso   1.00
Cl778  Cl    0.49067   0.88329   0.64667   0.00000  Uiso   1.00
Cl779  Cl    0.58729   0.80484   0.64135   0.00000  Uiso   1.00
Cl780  Cl    0.42759   0.68131   0.85810   0.00000  Uiso   1.00
Cu781  Cu    0.50000   0.75000   0.79822   0.00000  Uiso   1.00
Cu782  Cu    0.50000   0.75001   0.70179   0.00000  Uiso   1.00
H783   H     0.65906   0.74653   0.69412   0.00000  Uiso   1.00
H784   H     0.44636   0.96684   0.85764   0.00000  Uiso   1.00
H785   H     0.43089   0.67407   0.64264   0.00000  Uiso   1.00
H786   H     0.57253   0.81809   0.84658   0.00000  Uiso   1.00
H787   H     0.38958   0.74426   0.98785   0.00000  Uiso   1.00
H788   H     0.51630   0.83844   0.50646   0.00000  Uiso   1.00
H789   H     0.34103   0.75194   0.80611   0.00000  Uiso   1.00
H790   H     0.52158   0.53072   0.82939   0.00000  Uiso   1.00
H791   H     0.49303   0.96994   0.67130   0.00000  Uiso   1.00
H792   H     0.57268   0.78212   0.54378   0.00000  Uiso   1.00
H793   H     0.45602   0.68905   0.95813   0.00000  Uiso   1.00
H794   H     0.55889   0.64619   0.66528   0.00000  Uiso   1.00
H795   H     0.43161   0.85486   0.82367   0.00000  Uiso   1.00
H796   H     0.58216   0.99485   0.69465   0.00000  Uiso   1.00
N797   N     0.50000   0.75001   0.62935   0.00000  Uiso   1.00
N798   N     0.50000   0.74999   0.87065   0.00000  Uiso   1.00
O799   O     0.50000   0.68573   0.79071   0.00000  Uiso   1.00
O800   O     0.47712   0.89250   0.87179   0.00000  Uiso   1.00
O801   O     0.57598   0.54088   0.64422   0.00000  Uiso   1.00
O802   O     0.41884   0.50707   0.80529   0.00000  Uiso   1.00
O803   O     0.37426   0.71182   0.61418   0.00000  Uiso   1.00
O804   O     0.61443   0.81073   0.90990   0.00000  Uiso   1.00
O805   O     0.38009   0.68750   0.52189   0.00000  Uiso   1.00
O806   O     0.55194   0.86284   0.95410   0.00000  Uiso   1.00
O807   O     0.50000   0.81428   0.70929   0.00000  Uiso   1.00
O808   O     0.50000   0.68573   0.70928   0.00000  Uiso   1.00
O809   O     0.50000   0.81427   0.79072   0.00000  Uiso   1.00
O810   O     0.42495   0.75000   0.78132   0.00000  Uiso   1.00
O811   O     0.57505   0.75001   0.71868   0.00000  Uiso   1.00
O812   O     0.42495   0.75000   0.69989   0.00000  Uiso   1.00
O813   O     0.57505   0.75000   0.80012   0.00000  Uiso   1.00
O814   O     0.50719   0.60607   0.62569   0.00000  Uiso   1.00
C815   C     0.83829   0.66519   0.75063   0.00000  Uiso   1.00
C816   C     0.85383   0.78779   0.94853   0.00000  Uiso   1.00
C817   C     0.82913   0.75212   0.52664   0.00000  Uiso   1.00
C818   C     0.82965   0.75285   0.97202   0.00000  Uiso   1.00
C819   C     0.73461   0.74957   0.73756   0.00000  Uiso   1.00
C820   C     0.93207   0.75003   0.76247   0.00000  Uiso   1.00
C821   C     0.67922   0.74866   0.73087   0.00000  Uiso   1.00
C822   C     0.98747   0.75021   0.76929   0.00000  Uiso   1.00
C823   C     0.85227   0.54788   0.79526   0.00000  Uiso   1.00
C824   C     0.82626   0.95305   0.70532   0.00000  Uiso   1.00
C825   C     0.85388   0.59370   0.79603   0.00000  Uiso   1.00
C826   C     0.82969   0.83502   0.74937   0.00000  Uiso   1.00
C827   C     0.82418   0.90735   0.70434   0.00000  Uiso   1.00
C828   C     0.84918   0.61726   0.75186   0.00000  Uiso   1.00
C829   C     0.82213   0.88347   0.74775   0.00000  Uiso   1.00
C830   C     0.85819   0.59406   0.70952   0.00000  Uiso   1.00
C831   C     0.81022   0.90686   0.78876   0.00000  Uiso   1.00
C832   C     0.86352   0.54769   0.71181   0.00000  Uiso   1.00
C833   C     0.80986   0.95367   0.78763   0.00000  Uiso   1.00
C834   C     0.84703   0.52457   0.75147   0.00000  Uiso   1.00
C835   C     0.82883   0.97651   0.74880   0.00000  Uiso   1.00
C836   C     0.86534   0.61780   0.66429   0.00000  Uiso   1.00
C837   C     0.87236   0.76870   0.55817   0.00000  Uiso   1.00
C838   C     0.79278   0.88257   0.83020   0.00000  Uiso   1.00
C839   C     0.89834   0.52551   0.68203   0.00000  Uiso   1.00
C840   C     0.77948   0.97692   0.82042   0.00000  Uiso   1.00
C841   C     0.75301   0.70245   0.62073   0.00000  Uiso   1.00
C842   C     0.90705   0.80556   0.88268   0.00000  Uiso   1.00
C843   C     0.73724   0.72239   0.51707   0.00000  Uiso   1.00
C844   C     0.86377   0.83207   0.97260   0.00000  Uiso   1.00
C845   C     0.80698   0.71751   0.94258   0.00000  Uiso   1.00
C846   C     0.87191   0.77105   0.60827   0.00000  Uiso   1.00
C847   C     0.80411   0.71926   0.89208   0.00000  Uiso   1.00
C848   C     0.79222   0.72964   0.59957   0.00000  Uiso   1.00
C849   C     0.86237   0.78158   0.89962   0.00000  Uiso   1.00
C850   C     0.78706   0.73407   0.54813   0.00000  Uiso   1.00
Cl851  Cl    0.86383   0.61858   0.85390   0.00000  Uiso   1.00
Cl852  Cl    0.82401   0.88329   0.64667   0.00000  Uiso   1.00
Cl853  Cl    0.92062   0.80484   0.64135   0.00000  Uiso   1.00
Cl854  Cl    0.76092   0.68131   0.85810   0.00000  Uiso   1.00
Cu855  Cu    0.83333   0.75000   0.79822   0.00000  Uiso   1.00
Cu856  Cu    0.83333   0.75001   0.70179   0.00000  Uiso   1.00
H857   H     0.99239   0.74653   0.69412   0.00000  Uiso   1.00
H858   H     0.77969   0.96684   0.85764   0.00000  Uiso   1.00
H859   H     0.76422   0.67407   0.64264   0.00000  Uiso   1.00
H860   H     0.90587   0.81809   0.84658   0.00000  Uiso   1.00
H861   H     0.72291   0.74426   0.98785   0.00000  Uiso   1.00
H862   H     0.84964   0.83844   0.50646   0.00000  Uiso   1.00
H863   H     0.67436   0.75194   0.80611   0.00000  Uiso   1.00
H864   H     0.85492   0.53072   0.82939   0.00000  Uiso   1.00
H865   H     0.82636   0.96994   0.67130   0.00000  Uiso   1.00
H866   H     0.90601   0.78212   0.54378   0.00000  Uiso   1.00
H867   H     0.78935   0.68905   0.95813   0.00000  Uiso   1.00
H868   H     0.89222   0.64619   0.66528   0.00000  Uiso   1.00
H869   H     0.76494   0.85486   0.82367   0.00000  Uiso   1.00
H870   H     0.91550   0.99485   0.69465   0.00000  Uiso   1.00
N871   N     0.83333   0.75001   0.62935   0.00000  Uiso   1.00
N872   N     0.83333   0.74999   0.87065   0.00000  Uiso   1.00
O873   O     0.83334   0.68573   0.79071   0.00000  Uiso   1.00
O874   O     0.81046   0.89250   0.87179   0.00000  Uiso   1.00
O875   O     0.90932   0.54088   0.64422   0.00000  Uiso   1.00
O876   O     0.75217   0.50707   0.80529   0.00000  Uiso   1.00
O877   O     0.70759   0.71182   0.61418   0.00000  Uiso   1.00
O878   O     0.94777   0.81073   0.90990   0.00000  Uiso   1.00
O879   O     0.71343   0.68750   0.52189   0.00000  Uiso   1.00
O880   O     0.88527   0.86284   0.95410   0.00000  Uiso   1.00
O881   O     0.83333   0.81428   0.70929   0.00000  Uiso   1.00
O882   O     0.83334   0.68573   0.70928   0.00000  Uiso   1.00
O883   O     0.83333   0.81427   0.79072   0.00000  Uiso   1.00
O884   O     0.75828   0.75000   0.78132   0.00000  Uiso   1.00
O885   O     0.90839   0.75001   0.71868   0.00000  Uiso   1.00
O886   O     0.75828   0.75000   0.69989   0.00000  Uiso   1.00
O887   O     0.90839   0.75000   0.80012   0.00000  Uiso   1.00
O888   O     0.84052   0.60607   0.62569   0.00000  Uiso   1.00
loop_
_geom_bond_atom_site_label_1
_geom_bond_atom_site_label_2
_geom_bond_distance
_geom_bond_site_symmetry_2
_ccdc_geom_bond_type
C1     O59     1.306   .     A
C1     O68     1.304   .     A
C1     C14     1.491   .     S
C2     C35     1.429   .     A
C2     C4      1.418   .     A
C2     C30     1.497   .     S
C3     C23     1.405   .     A
C3     C36     1.417   .     A
C3     C448    1.527   1_554 S
C4     C31     1.408   .     A
C4     C447    1.527   .     S
C5     O70     1.288   .     A
C5     C7      1.433   .     S
C5     O72     1.294   .     A
C6     O71     1.290   .     A
C6     O73     1.294   .     A
C6     C8      1.435   .     S
C7     C156    1.337   1_455 S
C7     H191    1.086   1_455 S
C8     C81     1.337   .     S
C8     H123    1.087   .     S
C9     C20     1.399   .     A
C9     C11     1.387   .     A
C9     H50     1.080   .     S
C10    H51     1.079   .     S
C10    C21     1.399   .     A
C10    C13     1.383   .     A
C11    Cl37    1.764   .     S
C11    C14     1.417   .     A
C12    O69     1.308   .     A
C12    C15     1.489   .     S
C12    O67     1.301   .     A
C13    Cl38    1.768   .     S
C13    C15     1.417   .     A
C14    C16     1.429   .     A
C15    C17     1.426   .     A
C16    C18     1.418   .     A
C16    C22     1.484   .     S
C17    C19     1.419   .     A
C17    C24     1.486   .     S
C18    C25     1.498   .     S
C18    C20     1.418   .     A
C19    C26     1.491   .     S
C19    C21     1.422   .     A
C20    C243    1.511   1_545 S
C21    C242    1.511   .     S
C22    H54     1.085   .     S
C22    O74     1.221   .     D
C23    C32     1.403   .     A
C23    H52     1.082   .     S
C24    O60     1.220   .     D
C24    H55     1.086   .     S
C25    O61     1.220   .     D
C25    H278    1.085   1_545 S
C26    H44     1.082   .     S
C26    O284    1.222   .     S
C27    H45     1.081   .     S
C27    O63     1.222   .     D
C27    C34     1.476   .     S
C28    C35     1.484   .     S
C28    H46     1.074   .     S
C28    O64     1.222   .     D
C29    C36     1.488   .     S
C29    O65     1.221   .     D
C29    H491    1.086   1_554 S
C30    O66     1.220   .     D
C30    H492    1.084   .     S
C31    C33     1.402   .     A
C31    H53     1.080   .     S
C32    N57     1.373   .     A
C32    Cl39    1.755   .     S
C33    N58     1.370   .     A
C33    Cl40    1.756   .     S
C34    N57     1.385   .     A
C34    C36     1.430   .     A
C35    N58     1.383   .     A
Cu41   Cu42    2.693   .     S
Cu41   N58     2.023   .     S
Cu41   O73     1.957   .     S
Cu41   O59     1.959   .     S
Cu41   O69     1.958   .     S
Cu41   O70     1.953   .     S
Cu42   O72     1.957   .     S
Cu42   O68     1.958   .     S
Cu42   N57     2.023   .     S
Cu42   O71     1.953   .     S
Cu42   O67     1.959   .     S
H43    C81     1.086   .     S
H47    C473    1.086   .     S
H48    C474    1.084   1_554 S
H49    C156    1.087   1_455 S
H56    C247    1.085   .     S
O62    C248    1.222   1_545 S
C75    O133    1.306   .     A
C75    O142    1.304   .     A
C75    C88     1.491   .     S
C76    C109    1.429   .     A
C76    C78     1.418   .     A
C76    C104    1.497   .     S
C77    C97     1.405   .     A
C77    C110    1.417   .     A
C77    C522    1.527   1_554 S
C78    C105    1.408   .     A
C78    C521    1.527   .     S
C79    O144    1.288   .     A
C79    C81     1.433   .     S
C79    O146    1.294   .     A
C80    O145    1.290   .     A
C80    O147    1.294   .     A
C80    C82     1.435   .     S
C82    C155    1.337   .     S
C82    H197    1.087   .     S
C83    C94     1.399   .     A
C83    C85     1.387   .     A
C83    H124    1.080   .     S
C84    H125    1.079   .     S
C84    C95     1.399   .     A
C84    C87     1.383   .     A
C85    Cl111   1.764   .     S
C85    C88     1.417   .     A
C86    O143    1.308   .     A
C86    C89     1.489   .     S
C86    O141    1.301   .     A
C87    Cl112   1.768   .     S
C87    C89     1.417   .     A
C88    C90     1.429   .     A
C89    C91     1.426   .     A
C90    C92     1.418   .     A
C90    C96     1.484   .     S
C91    C93     1.419   .     A
C91    C98     1.486   .     S
C92    C99     1.498   .     S
C92    C94     1.418   .     A
C93    C100    1.491   .     S
C93    C95     1.422   .     A
C94    C317    1.511   1_545 S
C95    C316    1.511   .     S
C96    H128    1.085   .     S
C96    O148    1.221   .     D
C97    C106    1.403   .     A
C97    H126    1.082   .     S
C98    O134    1.220   .     D
C98    H129    1.086   .     S
C99    O135    1.220   .     D
C99    H352    1.085   1_545 S
C100   H118    1.082   .     S
C100   O358    1.222   .     S
C101   H119    1.081   .     S
C101   O137    1.222   .     D
C101   C108    1.476   .     S
C102   C109    1.484   .     S
C102   H120    1.074   .     S
C102   O138    1.222   .     D
C103   C110    1.488   .     S
C103   O139    1.221   .     D
C103   H565    1.086   1_554 S
C104   O140    1.220   .     D
C104   H566    1.084   .     S
C105   C107    1.402   .     A
C105   H127    1.080   .     S
C106   N131    1.373   .     A
C106   Cl113   1.755   .     S
C107   N132    1.370   .     A
C107   Cl114   1.756   .     S
C108   N131    1.385   .     A
C108   C110    1.430   .     A
C109   N132    1.383   .     A
Cu115  Cu116   2.693   .     S
Cu115  N132    2.023   .     S
Cu115  O147    1.957   .     S
Cu115  O133    1.959   .     S
Cu115  O143    1.958   .     S
Cu115  O144    1.953   .     S
Cu116  O146    1.957   .     S
Cu116  O142    1.958   .     S
Cu116  N131    2.023   .     S
Cu116  O145    1.953   .     S
Cu116  O141    1.959   .     S
H117   C155    1.086   .     S
H121   C547    1.086   .     S
H122   C548    1.084   1_554 S
H130   C321    1.085   .     S
O136   C322    1.222   1_545 S
C149   O207    1.306   .     A
C149   O216    1.304   .     A
C149   C162    1.491   .     S
C150   C183    1.429   .     A
C150   C152    1.418   .     A
C150   C178    1.497   .     S
C151   C171    1.405   .     A
C151   C184    1.417   .     A
C151   C596    1.527   1_554 S
C152   C179    1.408   .     A
C152   C595    1.527   .     S
C153   O218    1.288   .     A
C153   C155    1.433   .     S
C153   O220    1.294   .     A
C154   O219    1.290   .     A
C154   O221    1.294   .     A
C154   C156    1.435   .     S
C156   C7      1.337   1_655 S
C156   H49     1.087   1_655 S
C157   C168    1.399   .     A
C157   C159    1.387   .     A
C157   H198    1.080   .     S
C158   H199    1.079   .     S
C158   C169    1.399   .     A
C158   C161    1.383   .     A
C159   Cl185   1.764   .     S
C159   C162    1.417   .     A
C160   O217    1.308   .     A
C160   C163    1.489   .     S
C160   O215    1.301   .     A
C161   Cl186   1.768   .     S
C161   C163    1.417   .     A
C162   C164    1.429   .     A
C163   C165    1.426   .     A
C164   C166    1.418   .     A
C164   C170    1.484   .     S
C165   C167    1.419   .     A
C165   C172    1.486   .     S
C166   C173    1.498   .     S
C166   C168    1.418   .     A
C167   C174    1.491   .     S
C167   C169    1.422   .     A
C168   C391    1.511   1_545 S
C169   C390    1.511   .     S
C170   H202    1.085   .     S
C170   O222    1.221   .     D
C171   C180    1.403   .     A
C171   H200    1.082   .     S
C172   O208    1.220   .     D
C172   H203    1.086   .     S
C173   O209    1.220   .     D
C173   H426    1.085   1_545 S
C174   H192    1.082   .     S
C174   O432    1.222   .     S
C175   H193    1.081   .     S
C175   O211    1.222   .     D
C175   C182    1.476   .     S
C176   C183    1.484   .     S
C176   H194    1.074   .     S
C176   O212    1.222   .     D
C177   C184    1.488   .     S
C177   O213    1.221   .     D
C177   H639    1.086   1_554 S
C178   O214    1.220   .     D
C178   H640    1.084   .     S
C179   C181    1.402   .     A
C179   H201    1.080   .     S
C180   N205    1.373   .     A
C180   Cl187   1.755   .     S
C181   N206    1.370   .     A
C181   Cl188   1.756   .     S
C182   N205    1.385   .     A
C182   C184    1.430   .     A
C183   N206    1.383   .     A
Cu189  Cu190   2.693   .     S
Cu189  N206    2.023   .     S
Cu189  O221    1.957   .     S
Cu189  O207    1.959   .     S
Cu189  O217    1.958   .     S
Cu189  O218    1.953   .     S
Cu190  O220    1.957   .     S
Cu190  O216    1.958   .     S
Cu190  N205    2.023   .     S
Cu190  O219    1.953   .     S
Cu190  O215    1.959   .     S
H191   C7      1.086   1_655 S
H195   C621    1.086   .     S
H196   C622    1.084   1_554 S
H204   C395    1.085   .     S
O210   C396    1.222   1_545 S
C223   O281    1.306   .     A
C223   O290    1.304   .     A
C223   C236    1.491   .     S
C224   C257    1.429   .     A
C224   C226    1.418   .     A
C224   C252    1.497   .     S
C225   C245    1.405   .     A
C225   C258    1.417   .     A
C225   C670    1.527   1_554 S
C226   C253    1.408   .     A
C226   C669    1.527   .     S
C227   O292    1.288   .     A
C227   C229    1.433   .     S
C227   O294    1.294   .     A
C228   O293    1.290   .     A
C228   O295    1.294   .     A
C228   C230    1.435   .     S
C229   C378    1.337   1_455 S
C229   H413    1.086   1_455 S
C230   C303    1.337   .     S
C230   H345    1.087   .     S
C231   C242    1.399   .     A
C231   C233    1.387   .     A
C231   H272    1.080   .     S
C232   H273    1.079   .     S
C232   C243    1.399   .     A
C232   C235    1.383   .     A
C233   Cl259   1.764   .     S
C233   C236    1.417   .     A
C234   O291    1.308   .     A
C234   C237    1.489   .     S
C234   O289    1.301   .     A
C235   Cl260   1.768   .     S
C235   C237    1.417   .     A
C236   C238    1.429   .     A
C237   C239    1.426   .     A
C238   C240    1.418   .     A
C238   C244    1.484   .     S
C239   C241    1.419   .     A
C239   C246    1.486   .     S
C240   C247    1.498   .     S
C240   C242    1.418   .     A
C241   C248    1.491   .     S
C241   C243    1.422   .     A
C243   C20     1.511   1_565 S
C244   H276    1.085   .     S
C244   O296    1.221   .     D
C245   C254    1.403   .     A
C245   H274    1.082   .     S
C246   O282    1.220   .     D
C246   H277    1.086   .     S
C247   O283    1.220   .     D
C248   H266    1.082   .     S
C248   O62     1.222   1_565 S
C249   H267    1.081   .     S
C249   O285    1.222   .     D
C249   C256    1.476   .     S
C250   C257    1.484   .     S
C250   H268    1.074   .     S
C250   O286    1.222   .     D
C251   C258    1.488   .     S
C251   O287    1.221   .     D
C251   H713    1.086   1_554 S
C252   O288    1.220   .     D
C252   H714    1.084   .     S
C253   C255    1.402   .     A
C253   H275    1.080   .     S
C254   N279    1.373   .     A
C254   Cl261   1.755   .     S
C255   N280    1.370   .     A
C255   Cl262   1.756   .     S
C256   N279    1.385   .     A
C256   C258    1.430   .     A
C257   N280    1.383   .     A
Cu263  Cu264   2.693   .     S
Cu263  N280    2.023   .     S
Cu263  O295    1.957   .     S
Cu263  O281    1.959   .     S
Cu263  O291    1.958   .     S
Cu263  O292    1.953   .     S
Cu264  O294    1.957   .     S
Cu264  O290    1.958   .     S
Cu264  N279    2.023   .     S
Cu264  O293    1.953   .     S
Cu264  O289    1.959   .     S
H265   C303    1.086   .     S
H269   C695    1.086   .     S
H270   C696    1.084   1_554 S
H271   C378    1.087   1_455 S
H278   C25     1.085   1_565 S
C297   O355    1.306   .     A
C297   O364    1.304   .     A
C297   C310    1.491   .     S
C298   C331    1.429   .     A
C298   C300    1.418   .     A
C298   C326    1.497   .     S
C299   C319    1.405   .     A
C299   C332    1.417   .     A
C299   C744    1.527   1_554 S
C300   C327    1.408   .     A
C300   C743    1.527   .     S
C301   O366    1.288   .     A
C301   C303    1.433   .     S
C301   O368    1.294   .     A
C302   O367    1.290   .     A
C302   O369    1.294   .     A
C302   C304    1.435   .     S
C304   C377    1.337   .     S
C304   H419    1.087   .     S
C305   C316    1.399   .     A
C305   C307    1.387   .     A
C305   H346    1.080   .     S
C306   H347    1.079   .     S
C306   C317    1.399   .     A
C306   C309    1.383   .     A
C307   Cl333   1.764   .     S
C307   C310    1.417   .     A
C308   O365    1.308   .     A
C308   C311    1.489   .     S
C308   O363    1.301   .     A
C309   Cl334   1.768   .     S
C309   C311    1.417   .     A
C310   C312    1.429   .     A
C311   C313    1.426   .     A
C312   C314    1.418   .     A
C312   C318    1.484   .     S
C313   C315    1.419   .     A
C313   C320    1.486   .     S
C314   C321    1.498   .     S
C314   C316    1.418   .     A
C315   C322    1.491   .     S
C315   C317    1.422   .     A
C317   C94     1.511   1_565 S
C318   H350    1.085   .     S
C318   O370    1.221   .     D
C319   C328    1.403   .     A
C319   H348    1.082   .     S
C320   O356    1.220   .     D
C320   H351    1.086   .     S
C321   O357    1.220   .     D
C322   H340    1.082   .     S
C322   O136    1.222   1_565 S
C323   H341    1.081   .     S
C323   O359    1.222   .     D
C323   C330    1.476   .     S
C324   C331    1.484   .     S
C324   H342    1.074   .     S
C324   O360    1.222   .     D
C325   C332    1.488   .     S
C325   O361    1.221   .     D
C325   H787    1.086   1_554 S
C326   O362    1.220   .     D
C326   H788    1.084   .     S
C327   C329    1.402   .     A
C327   H349    1.080   .     S
C328   N353    1.373   .     A
C328   Cl335   1.755   .     S
C329   N354    1.370   .     A
C329   Cl336   1.756   .     S
C330   N353    1.385   .     A
C330   C332    1.430   .     A
C331   N354    1.383   .     A
Cu337  Cu338   2.693   .     S
Cu337  N354    2.023   .     S
Cu337  O369    1.957   .     S
Cu337  O355    1.959   .     S
Cu337  O365    1.958   .     S
Cu337  O366    1.953   .     S
Cu338  O368    1.957   .     S
Cu338  O364    1.958   .     S
Cu338  N353    2.023   .     S
Cu338  O367    1.953   .     S
Cu338  O363    1.959   .     S
H339   C377    1.086   .     S
H343   C769    1.086   .     S
H344   C770    1.084   1_554 S
H352   C99     1.085   1_565 S
C371   O429    1.306   .     A
C371   O438    1.304   .     A
C371   C384    1.491   .     S
C372   C405    1.429   .     A
C372   C374    1.418   .     A
C372   C400    1.497   .     S
C373   C393    1.405   .     A
C373   C406    1.417   .     A
C373   C818    1.527   1_554 S
C374   C401    1.408   .     A
C374   C817    1.527   .     S
C375   O440    1.288   .     A
C375   C377    1.433   .     S
C375   O442    1.294   .     A
C376   O441    1.290   .     A
C376   O443    1.294   .     A
C376   C378    1.435   .     S
C378   C229    1.337   1_655 S
C378   H271    1.087   1_655 S
C379   C390    1.399   .     A
C379   C381    1.387   .     A
C379   H420    1.080   .     S
C380   H421    1.079   .     S
C380   C391    1.399   .     A
C380   C383    1.383   .     A
C381   Cl407   1.764   .     S
C381   C384    1.417   .     A
C382   O439    1.308   .     A
C382   C385    1.489   .     S
C382   O437    1.301   .     A
C383   Cl408   1.768   .     S
C383   C385    1.417   .     A
C384   C386    1.429   .     A
C385   C387    1.426   .     A
C386   C388    1.418   .     A
C386   C392    1.484   .     S
C387   C389    1.419   .     A
C387   C394    1.486   .     S
C388   C395    1.498   .     S
C388   C390    1.418   .     A
C389   C396    1.491   .     S
C389   C391    1.422   .     A
C391   C168    1.511   1_565 S
C392   H424    1.085   .     S
C392   O444    1.221   .     D
C393   C402    1.403   .     A
C393   H422    1.082   .     S
C394   O430    1.220   .     D
C394   H425    1.086   .     S
C395   O431    1.220   .     D
C396   H414    1.082   .     S
C396   O210    1.222   1_565 S
C397   H415    1.081   .     S
C397   O433    1.222   .     D
C397   C404    1.476   .     S
C398   C405    1.484   .     S
C398   H416    1.074   .     S
C398   O434    1.222   .     D
C399   C406    1.488   .     S
C399   O435    1.221   .     D
C399   H861    1.086   1_554 S
C400   O436    1.220   .     D
C400   H862    1.084   .     S
C401   C403    1.402   .     A
C401   H423    1.080   .     S
C402   N427    1.373   .     A
C402   Cl409   1.755   .     S
C403   N428    1.370   .     A
C403   Cl410   1.756   .     S
C404   N427    1.385   .     A
C404   C406    1.430   .     A
C405   N428    1.383   .     A
Cu411  Cu412   2.693   .     S
Cu411  N428    2.023   .     S
Cu411  O443    1.957   .     S
Cu411  O429    1.959   .     S
Cu411  O439    1.958   .     S
Cu411  O440    1.953   .     S
Cu412  O442    1.957   .     S
Cu412  O438    1.958   .     S
Cu412  N427    2.023   .     S
Cu412  O441    1.953   .     S
Cu412  O437    1.959   .     S
H413   C229    1.086   1_655 S
H417   C843    1.086   .     S
H418   C844    1.084   1_554 S
H426   C173    1.085   1_565 S
C445   O503    1.306   .     A
C445   O512    1.304   .     A
C445   C458    1.491   .     S
C446   C479    1.429   .     A
C446   C448    1.418   .     A
C446   C474    1.497   .     S
C447   C467    1.405   .     A
C447   C480    1.417   .     A
C448   C475    1.408   .     A
C448   C3      1.527   1_556 S
C449   O514    1.288   .     A
C449   C451    1.433   .     S
C449   O516    1.294   .     A
C450   O515    1.290   .     A
C450   O517    1.294   .     A
C450   C452    1.435   .     S
C451   C600    1.337   1_455 S
C451   H635    1.086   1_455 S
C452   C525    1.337   .     S
C452   H567    1.087   .     S
C453   C464    1.399   .     A
C453   C455    1.387   .     A
C453   H494    1.080   .     S
C454   H495    1.079   .     S
C454   C465    1.399   .     A
C454   C457    1.383   .     A
C455   Cl481   1.764   .     S
C455   C458    1.417   .     A
C456   O513    1.308   .     A
C456   C459    1.489   .     S
C456   O511    1.301   .     A
C457   Cl482   1.768   .     S
C457   C459    1.417   .     A
C458   C460    1.429   .     A
C459   C461    1.426   .     A
C460   C462    1.418   .     A
C460   C466    1.484   .     S
C461   C463    1.419   .     A
C461   C468    1.486   .     S
C462   C469    1.498   .     S
C462   C464    1.418   .     A
C463   C470    1.491   .     S
C463   C465    1.422   .     A
C464   C687    1.511   1_545 S
C465   C686    1.511   .     S
C466   H498    1.085   .     S
C466   O518    1.221   .     D
C467   C476    1.403   .     A
C467   H496    1.082   .     S
C468   O504    1.220   .     D
C468   H499    1.086   .     S
C469   O505    1.220   .     D
C469   H722    1.085   1_545 S
C470   H488    1.082   .     S
C470   O728    1.222   .     S
C471   H489    1.081   .     S
C471   O507    1.222   .     D
C471   C478    1.476   .     S
C472   C479    1.484   .     S
C472   H490    1.074   .     S
C472   O508    1.222   .     D
C473   C480    1.488   .     S
C473   O509    1.221   .     D
C474   O510    1.220   .     D
C474   H48     1.084   1_556 S
C475   C477    1.402   .     A
C475   H497    1.080   .     S
C476   N501    1.373   .     A
C476   Cl483   1.755   .     S
C477   N502    1.370   .     A
C477   Cl484   1.756   .     S
C478   N501    1.385   .     A
C478   C480    1.430   .     A
C479   N502    1.383   .     A
Cu485  Cu486   2.693   .     S
Cu485  N502    2.023   .     S
Cu485  O517    1.957   .     S
Cu485  O503    1.959   .     S
Cu485  O513    1.958   .     S
Cu485  O514    1.953   .     S
Cu486  O516    1.957   .     S
Cu486  O512    1.958   .     S
Cu486  N501    2.023   .     S
Cu486  O515    1.953   .     S
Cu486  O511    1.959   .     S
H487   C525    1.086   .     S
H491   C29     1.086   1_556 S
H493   C600    1.087   1_455 S
H500   C691    1.085   .     S
O506   C692    1.222   1_545 S
C519   O577    1.306   .     A
C519   O586    1.304   .     A
C519   C532    1.491   .     S
C520   C553    1.429   .     A
C520   C522    1.418   .     A
C520   C548    1.497   .     S
C521   C541    1.405   .     A
C521   C554    1.417   .     A
C522   C549    1.408   .     A
C522   C77     1.527   1_556 S
C523   O588    1.288   .     A
C523   C525    1.433   .     S
C523   O590    1.294   .     A
C524   O589    1.290   .     A
C524   O591    1.294   .     A
C524   C526    1.435   .     S
C526   C599    1.337   .     S
C526   H641    1.087   .     S
C527   C538    1.399   .     A
C527   C529    1.387   .     A
C527   H568    1.080   .     S
C528   H569    1.079   .     S
C528   C539    1.399   .     A
C528   C531    1.383   .     A
C529   Cl555   1.764   .     S
C529   C532    1.417   .     A
C530   O587    1.308   .     A
C530   C533    1.489   .     S
C530   O585    1.301   .     A
C531   Cl556   1.768   .     S
C531   C533    1.417   .     A
C532   C534    1.429   .     A
C533   C535    1.426   .     A
C534   C536    1.418   .     A
C534   C540    1.484   .     S
C535   C537    1.419   .     A
C535   C542    1.486   .     S
C536   C543    1.498   .     S
C536   C538    1.418   .     A
C537   C544    1.491   .     S
C537   C539    1.422   .     A
C538   C761    1.511   1_545 S
C539   C760    1.511   .     S
C540   H572    1.085   .     S
C540   O592    1.221   .     D
C541   C550    1.403   .     A
C541   H570    1.082   .     S
C542   O578    1.220   .     D
C542   H573    1.086   .     S
C543   O579    1.220   .     D
C543   H796    1.085   1_545 S
C544   H562    1.082   .     S
C544   O802    1.222   .     S
C545   H563    1.081   .     S
C545   O581    1.222   .     D
C545   C552    1.476   .     S
C546   C553    1.484   .     S
C546   H564    1.074   .     S
C546   O582    1.222   .     D
C547   C554    1.488   .     S
C547   O583    1.221   .     D
C548   O584    1.220   .     D
C548   H122    1.084   1_556 S
C549   C551    1.402   .     A
C549   H571    1.080   .     S
C550   N575    1.373   .     A
C550   Cl557   1.755   .     S
C551   N576    1.370   .     A
C551   Cl558   1.756   .     S
C552   N575    1.385   .     A
C552   C554    1.430   .     A
C553   N576    1.383   .     A
Cu559  Cu560   2.693   .     S
Cu559  N576    2.023   .     S
Cu559  O591    1.957   .     S
Cu559  O577    1.959   .     S
Cu559  O587    1.958   .     S
Cu559  O588    1.953   .     S
Cu560  O590    1.957   .     S
Cu560  O586    1.958   .     S
Cu560  N575    2.023   .     S
Cu560  O589    1.953   .     S
Cu560  O585    1.959   .     S
H561   C599    1.086   .     S
H565   C103    1.086   1_556 S
H574   C765    1.085   .     S
O580   C766    1.222   1_545 S
C593   O651    1.306   .     A
C593   O660    1.304   .     A
C593   C606    1.491   .     S
C594   C627    1.429   .     A
C594   C596    1.418   .     A
C594   C622    1.497   .     S
C595   C615    1.405   .     A
C595   C628    1.417   .     A
C596   C623    1.408   .     A
C596   C151    1.527   1_556 S
C597   O662    1.288   .     A
C597   C599    1.433   .     S
C597   O664    1.294   .     A
C598   O663    1.290   .     A
C598   O665    1.294   .     A
C598   C600    1.435   .     S
C600   C451    1.337   1_655 S
C600   H493    1.087   1_655 S
C601   C612    1.399   .     A
C601   C603    1.387   .     A
C601   H642    1.080   .     S
C602   H643    1.079   .     S
C602   C613    1.399   .     A
C602   C605    1.383   .     A
C603   Cl629   1.764   .     S
C603   C606    1.417   .     A
C604   O661    1.308   .     A
C604   C607    1.489   .     S
C604   O659    1.301   .     A
C605   Cl630   1.768   .     S
C605   C607    1.417   .     A
C606   C608    1.429   .     A
C607   C609    1.426   .     A
C608   C610    1.418   .     A
C608   C614    1.484   .     S
C609   C611    1.419   .     A
C609   C616    1.486   .     S
C610   C617    1.498   .     S
C610   C612    1.418   .     A
C611   C618    1.491   .     S
C611   C613    1.422   .     A
C612   C835    1.511   1_545 S
C613   C834    1.511   .     S
C614   H646    1.085   .     S
C614   O666    1.221   .     D
C615   C624    1.403   .     A
C615   H644    1.082   .     S
C616   O652    1.220   .     D
C616   H647    1.086   .     S
C617   O653    1.220   .     D
C617   H870    1.085   1_545 S
C618   H636    1.082   .     S
C618   O876    1.222   .     S
C619   H637    1.081   .     S
C619   O655    1.222   .     D
C619   C626    1.476   .     S
C620   C627    1.484   .     S
C620   H638    1.074   .     S
C620   O656    1.222   .     D
C621   C628    1.488   .     S
C621   O657    1.221   .     D
C622   O658    1.220   .     D
C622   H196    1.084   1_556 S
C623   C625    1.402   .     A
C623   H645    1.080   .     S
C624   N649    1.373   .     A
C624   Cl631   1.755   .     S
C625   N650    1.370   .     A
C625   Cl632   1.756   .     S
C626   N649    1.385   .     A
C626   C628    1.430   .     A
C627   N650    1.383   .     A
Cu633  Cu634   2.693   .     S
Cu633  N650    2.023   .     S
Cu633  O665    1.957   .     S
Cu633  O651    1.959   .     S
Cu633  O661    1.958   .     S
Cu633  O662    1.953   .     S
Cu634  O664    1.957   .     S
Cu634  O660    1.958   .     S
Cu634  N649    2.023   .     S
Cu634  O663    1.953   .     S
Cu634  O659    1.959   .     S
H635   C451    1.086   1_655 S
H639   C177    1.086   1_556 S
H648   C839    1.085   .     S
O654   C840    1.222   1_545 S
C667   O725    1.306   .     A
C667   O734    1.304   .     A
C667   C680    1.491   .     S
C668   C701    1.429   .     A
C668   C670    1.418   .     A
C668   C696    1.497   .     S
C669   C689    1.405   .     A
C669   C702    1.417   .     A
C670   C697    1.408   .     A
C670   C225    1.527   1_556 S
C671   O736    1.288   .     A
C671   C673    1.433   .     S
C671   O738    1.294   .     A
C672   O737    1.290   .     A
C672   O739    1.294   .     A
C672   C674    1.435   .     S
C673   C822    1.337   1_455 S
C673   H857    1.086   1_455 S
C674   C747    1.337   .     S
C674   H789    1.087   .     S
C675   C686    1.399   .     A
C675   C677    1.387   .     A
C675   H716    1.080   .     S
C676   H717    1.079   .     S
C676   C687    1.399   .     A
C676   C679    1.383   .     A
C677   Cl703   1.764   .     S
C677   C680    1.417   .     A
C678   O735    1.308   .     A
C678   C681    1.489   .     S
C678   O733    1.301   .     A
C679   Cl704   1.768   .     S
C679   C681    1.417   .     A
C680   C682    1.429   .     A
C681   C683    1.426   .     A
C682   C684    1.418   .     A
C682   C688    1.484   .     S
C683   C685    1.419   .     A
C683   C690    1.486   .     S
C684   C691    1.498   .     S
C684   C686    1.418   .     A
C685   C692    1.491   .     S
C685   C687    1.422   .     A
C687   C464    1.511   1_565 S
C688   H720    1.085   .     S
C688   O740    1.221   .     D
C689   C698    1.403   .     A
C689   H718    1.082   .     S
C690   O726    1.220   .     D
C690   H721    1.086   .     S
C691   O727    1.220   .     D
C692   H710    1.082   .     S
C692   O506    1.222   1_565 S
C693   H711    1.081   .     S
C693   O729    1.222   .     D
C693   C700    1.476   .     S
C694   C701    1.484   .     S
C694   H712    1.074   .     S
C694   O730    1.222   .     D
C695   C702    1.488   .     S
C695   O731    1.221   .     D
C696   O732    1.220   .     D
C696   H270    1.084   1_556 S
C697   C699    1.402   .     A
C697   H719    1.080   .     S
C698   N723    1.373   .     A
C698   Cl705   1.755   .     S
C699   N724    1.370   .     A
C699   Cl706   1.756   .     S
C700   N723    1.385   .     A
C700   C702    1.430   .     A
C701   N724    1.383   .     A
Cu707  Cu708   2.693   .     S
Cu707  N724    2.023   .     S
Cu707  O739    1.957   .     S
Cu707  O725    1.959   .     S
Cu707  O735    1.958   .     S
Cu707  O736    1.953   .     S
Cu708  O738    1.957   .     S
Cu708  O734    1.958   .     S
Cu708  N723    2.023   .     S
Cu708  O737    1.953   .     S
Cu708  O733    1.959   .     S
H709   C747    1.086   .     S
H713   C251    1.086   1_556 S
H715   C822    1.087   1_455 S
H722   C469    1.085   1_565 S
C741   O799    1.306   .     A
C741   O808    1.304   .     A
C741   C754    1.491   .     S
C742   C775    1.429   .     A
C742   C744    1.418   .     A
C742   C770    1.497   .     S
C743   C763    1.405   .     A
C743   C776    1.417   .     A
C744   C771    1.408   .     A
C744   C299    1.527   1_556 S
C745   O810    1.288   .     A
C745   C747    1.433   .     S
C745   O812    1.294   .     A
C746   O811    1.290   .     A
C746   O813    1.294   .     A
C746   C748    1.435   .     S
C748   C821    1.337   .     S
C748   H863    1.087   .     S
C749   C760    1.399   .     A
C749   C751    1.387   .     A
C749   H790    1.080   .     S
C750   H791    1.079   .     S
C750   C761    1.399   .     A
C750   C753    1.383   .     A
C751   Cl777   1.764   .     S
C751   C754    1.417   .     A
C752   O809    1.308   .     A
C752   C755    1.489   .     S
C752   O807    1.301   .     A
C753   Cl778   1.768   .     S
C753   C755    1.417   .     A
C754   C756    1.429   .     A
C755   C757    1.426   .     A
C756   C758    1.418   .     A
C756   C762    1.484   .     S
C757   C759    1.419   .     A
C757   C764    1.486   .     S
C758   C765    1.498   .     S
C758   C760    1.418   .     A
C759   C766    1.491   .     S
C759   C761    1.422   .     A
C761   C538    1.511   1_565 S
C762   H794    1.085   .     S
C762   O814    1.221   .     D
C763   C772    1.403   .     A
C763   H792    1.082   .     S
C764   O800    1.220   .     D
C764   H795    1.086   .     S
C765   O801    1.220   .     D
C766   H784    1.082   .     S
C766   O580    1.222   1_565 S
C767   H785    1.081   .     S
C767   O803    1.222   .     D
C767   C774    1.476   .     S
C768   C775    1.484   .     S
C768   H786    1.074   .     S
C768   O804    1.222   .     D
C769   C776    1.488   .     S
C769   O805    1.221   .     D
C770   O806    1.220   .     D
C770   H344    1.084   1_556 S
C771   C773    1.402   .     A
C771   H793    1.080   .     S
C772   N797    1.373   .     A
C772   Cl779   1.755   .     S
C773   N798    1.370   .     A
C773   Cl780   1.756   .     S
C774   N797    1.385   .     A
C774   C776    1.430   .     A
C775   N798    1.383   .     A
Cu781  Cu782   2.693   .     S
Cu781  N798    2.023   .     S
Cu781  O813    1.957   .     S
Cu781  O799    1.959   .     S
Cu781  O809    1.958   .     S
Cu781  O810    1.953   .     S
Cu782  O812    1.957   .     S
Cu782  O808    1.958   .     S
Cu782  N797    2.023   .     S
Cu782  O811    1.953   .     S
Cu782  O807    1.959   .     S
H783   C821    1.086   .     S
H787   C325    1.086   1_556 S
H796   C543    1.085   1_565 S
C815   O873    1.306   .     A
C815   O882    1.304   .     A
C815   C828    1.491   .     S
C816   C849    1.429   .     A
C816   C818    1.418   .     A
C816   C844    1.497   .     S
C817   C837    1.405   .     A
C817   C850    1.417   .     A
C818   C845    1.408   .     A
C818   C373    1.527   1_556 S
C819   O884    1.288   .     A
C819   C821    1.433   .     S
C819   O886    1.294   .     A
C820   O885    1.290   .     A
C820   O887    1.294   .     A
C820   C822    1.435   .     S
C822   C673    1.337   1_655 S
C822   H715    1.087   1_655 S
C823   C834    1.399   .     A
C823   C825    1.387   .     A
C823   H864    1.080   .     S
C824   H865    1.079   .     S
C824   C835    1.399   .     A
C824   C827    1.383   .     A
C825   Cl851   1.764   .     S
C825   C828    1.417   .     A
C826   O883    1.308   .     A
C826   C829    1.489   .     S
C826   O881    1.301   .     A
C827   Cl852   1.768   .     S
C827   C829    1.417   .     A
C828   C830    1.429   .     A
C829   C831    1.426   .     A
C830   C832    1.418   .     A
C830   C836    1.484   .     S
C831   C833    1.419   .     A
C831   C838    1.486   .     S
C832   C839    1.498   .     S
C832   C834    1.418   .     A
C833   C840    1.491   .     S
C833   C835    1.422   .     A
C835   C612    1.511   1_565 S
C836   H868    1.085   .     S
C836   O888    1.221   .     D
C837   C846    1.403   .     A
C837   H866    1.082   .     S
C838   O874    1.220   .     D
C838   H869    1.086   .     S
C839   O875    1.220   .     D
C840   H858    1.082   .     S
C840   O654    1.222   1_565 S
C841   H859    1.081   .     S
C841   O877    1.222   .     D
C841   C848    1.476   .     S
C842   C849    1.484   .     S
C842   H860    1.074   .     S
C842   O878    1.222   .     D
C843   C850    1.488   .     S
C843   O879    1.221   .     D
C844   O880    1.220   .     D
C844   H418    1.084   1_556 S
C845   C847    1.402   .     A
C845   H867    1.080   .     S
C846   N871    1.373   .     A
C846   Cl853   1.755   .     S
C847   N872    1.370   .     A
C847   Cl854   1.756   .     S
C848   N871    1.385   .     A
C848   C850    1.430   .     A
C849   N872    1.383   .     A
Cu855  Cu856   2.693   .     S
Cu855  N872    2.023   .     S
Cu855  O887    1.957   .     S
Cu855  O873    1.959   .     S
Cu855  O883    1.958   .     S
Cu855  O884    1.953   .     S
Cu856  O886    1.957   .     S
Cu856  O882    1.958   .     S
Cu856  N871    2.023   .     S
Cu856  O885    1.953   .     S
Cu856  O881    1.959   .     S
H857   C673    1.086   1_655 S
H861   C399    1.086   1_556 S
H870   C617    1.085   1_565 S
