data_str_m2_o1_o17_pcu_sym.27
_audit_creation_date              2020-01-03
_audit_creation_method            'Materials Studio'
_symmetry_space_group_name_H-M    'P1'
_symmetry_Int_Tables_number       1
_symmetry_cell_setting            triclinic
loop_
_symmetry_equiv_pos_as_xyz
  x,y,z
_cell_length_a                    32.6315
_cell_length_b                    28.8505
_cell_length_c                    30.0075
_cell_angle_alpha                 89.9257
_cell_angle_beta                  93.2659
_cell_angle_gamma                 90.2695
loop_
_atom_site_label
_atom_site_type_symbol
_atom_site_fract_x
_atom_site_fract_y
_atom_site_fract_z
_atom_site_U_iso_or_equiv
_atom_site_adp_type
_atom_site_occupancy
Br1    Br    0.08247   0.16110   0.37210   0.00000  Uiso   1.00
Br2    Br    0.04649   0.26553   0.28033   0.00000  Uiso   1.00
Br3    Br    0.10466   0.05556   0.17799   0.00000  Uiso   1.00
Br4    Br    0.22854   0.27777   0.32201   0.00000  Uiso   1.00
Br5    Br    0.22873   0.05591   0.32201   0.00000  Uiso   1.00
Br6    Br    0.10410   0.27684   0.17854   0.00000  Uiso   1.00
Br7    Br    0.24633   0.20786   0.13034   0.00000  Uiso   1.00
Br8    Br    0.06663   0.07719   0.43888   0.00000  Uiso   1.00
Br9    Br    0.29464   0.14283   0.06572   0.00000  Uiso   1.00
Br10   Br    0.06171   0.08241   0.04633   0.00000  Uiso   1.00
Br11   Br    0.30176   0.16479   0.46181   0.00000  Uiso   1.00
Br12   Br    0.04425   0.06559   0.27314   0.00000  Uiso   1.00
Br13   Br    0.28904   0.26877   0.22941   0.00000  Uiso   1.00
Br14   Br    0.28710   0.06770   0.22013   0.00000  Uiso   1.00
C15    C     0.08764   0.16655   0.25344   0.00000  Uiso   1.00
C16    C     0.04284   0.16638   0.25659   0.00000  Uiso   1.00
C17    C     0.14126   0.02451   0.22054   0.00000  Uiso   1.00
C18    C     0.19201   0.30879   0.27945   0.00000  Uiso   1.00
C19    C     0.19202   0.02472   0.27946   0.00000  Uiso   1.00
C20    C     0.14118   0.30852   0.22060   0.00000  Uiso   1.00
C21    C     0.16603   0.16666   0.16445   0.00000  Uiso   1.00
C22    C     0.16821   0.16654   0.33571   0.00000  Uiso   1.00
C23    C     0.20780   0.17114   0.40957   0.00000  Uiso   1.00
C24    C     0.13169   0.15277   0.09043   0.00000  Uiso   1.00
C25    C     0.17009   0.16477   0.38463   0.00000  Uiso   1.00
C26    C     0.24557   0.16683   0.24560   0.00000  Uiso   1.00
C27    C     0.16713   0.16572   0.11597   0.00000  Uiso   1.00
C28    C     0.13449   0.15152   0.40529   0.00000  Uiso   1.00
C29    C     0.20446   0.17304   0.09635   0.00000  Uiso   1.00
C30    C     0.13644   0.14111   0.45116   0.00000  Uiso   1.00
C31    C     0.20763   0.16325   0.05068   0.00000  Uiso   1.00
C32    C     0.17285   0.15178   0.47721   0.00000  Uiso   1.00
C33    C     0.17174   0.15215   0.02420   0.00000  Uiso   1.00
C34    C     0.20980   0.16364   0.45663   0.00000  Uiso   1.00
C35    C     0.13445   0.14238   0.04457   0.00000  Uiso   1.00
C36    C     0.10379   0.11894   0.47201   0.00000  Uiso   1.00
C37    C     0.10253   0.12003   0.01874   0.00000  Uiso   1.00
C38    C     0.24567   0.16201   0.03084   0.00000  Uiso   1.00
C39    C     0.26510   0.16344   0.36074   0.00000  Uiso   1.00
C40    C     0.06720   0.19557   0.09109   0.00000  Uiso   1.00
C41    C     0.24713   0.16484   0.48415   0.00000  Uiso   1.00
C42    C     0.02063   0.12424   0.25376   0.00000  Uiso   1.00
C43    C     0.31267   0.20938   0.24641   0.00000  Uiso   1.00
C44    C     0.31199   0.12480   0.24270   0.00000  Uiso   1.00
C45    C     0.02137   0.20873   0.25717   0.00000  Uiso   1.00
C46    C     0.29045   0.16716   0.24287   0.00000  Uiso   1.00
Cu47   Cu    0.16667   0.21355   0.25000   0.00000  Uiso   1.00
Cu48   Cu    0.16667   0.11978   0.25000   0.00000  Uiso   1.00
H49    H     0.25641   0.21845   0.40569   0.00000  Uiso   1.00
H50    H     0.29226   0.18302   0.35009   0.00000  Uiso   1.00
H51    H     0.24681   0.15279   0.33070   0.00000  Uiso   1.00
H52    H     0.27542   0.13171   0.37892   0.00000  Uiso   1.00
H53    H     0.07877   0.13042   0.12166   0.00000  Uiso   1.00
H54    H     0.05330   0.18512   0.05802   0.00000  Uiso   1.00
H55    H     0.08517   0.22800   0.08734   0.00000  Uiso   1.00
H56    H     0.04220   0.20254   0.11372   0.00000  Uiso   1.00
N57    N     0.16667   0.28402   0.25000   0.00000  Uiso   1.00
N58    N     0.16667   0.04931   0.25000   0.00000  Uiso   1.00
N59    N     0.24078   0.19261   0.38810   0.00000  Uiso   1.00
N60    N     0.09330   0.15926   0.10996   0.00000  Uiso   1.00
O61    O     0.10655   0.20625   0.25000   0.00000  Uiso   1.00
O62    O     0.22679   0.12709   0.25001   0.00000  Uiso   1.00
O63    O     0.22679   0.20625   0.25001   0.00000  Uiso   1.00
O64    O     0.10655   0.12709   0.25000   0.00000  Uiso   1.00
O65    O     0.16666   0.20627   0.18513   0.00000  Uiso   1.00
O66    O     0.16668   0.12707   0.31487   0.00000  Uiso   1.00
O67    O     0.16668   0.20627   0.31487   0.00000  Uiso   1.00
O68    O     0.16666   0.12707   0.18513   0.00000  Uiso   1.00
Br69   Br    0.41580   0.16110   0.37210   0.00000  Uiso   1.00
Br70   Br    0.37983   0.26553   0.28033   0.00000  Uiso   1.00
Br71   Br    0.43800   0.05556   0.17799   0.00000  Uiso   1.00
Br72   Br    0.56187   0.27777   0.32201   0.00000  Uiso   1.00
Br73   Br    0.56206   0.05591   0.32201   0.00000  Uiso   1.00
Br74   Br    0.43743   0.27684   0.17854   0.00000  Uiso   1.00
Br75   Br    0.57966   0.20786   0.13034   0.00000  Uiso   1.00
Br76   Br    0.39997   0.07719   0.43888   0.00000  Uiso   1.00
Br77   Br    0.62797   0.14283   0.06572   0.00000  Uiso   1.00
Br78   Br    0.39504   0.08241   0.04633   0.00000  Uiso   1.00
Br79   Br    0.63510   0.16479   0.46181   0.00000  Uiso   1.00
Br80   Br    0.37759   0.06559   0.27314   0.00000  Uiso   1.00
Br81   Br    0.62237   0.26877   0.22941   0.00000  Uiso   1.00
Br82   Br    0.62043   0.06770   0.22013   0.00000  Uiso   1.00
C83    C     0.42098   0.16655   0.25344   0.00000  Uiso   1.00
C84    C     0.37617   0.16638   0.25659   0.00000  Uiso   1.00
C85    C     0.47459   0.02451   0.22054   0.00000  Uiso   1.00
C86    C     0.52534   0.30879   0.27945   0.00000  Uiso   1.00
C87    C     0.52536   0.02472   0.27946   0.00000  Uiso   1.00
C88    C     0.47452   0.30852   0.22060   0.00000  Uiso   1.00
C89    C     0.49936   0.16666   0.16445   0.00000  Uiso   1.00
C90    C     0.50154   0.16654   0.33571   0.00000  Uiso   1.00
C91    C     0.54113   0.17114   0.40957   0.00000  Uiso   1.00
C92    C     0.46503   0.15277   0.09043   0.00000  Uiso   1.00
C93    C     0.50342   0.16477   0.38463   0.00000  Uiso   1.00
C94    C     0.57890   0.16683   0.24560   0.00000  Uiso   1.00
C95    C     0.50047   0.16572   0.11597   0.00000  Uiso   1.00
C96    C     0.46783   0.15152   0.40529   0.00000  Uiso   1.00
C97    C     0.53779   0.17304   0.09635   0.00000  Uiso   1.00
C98    C     0.46978   0.14111   0.45116   0.00000  Uiso   1.00
C99    C     0.54097   0.16325   0.05068   0.00000  Uiso   1.00
C100   C     0.50619   0.15178   0.47721   0.00000  Uiso   1.00
C101   C     0.50507   0.15215   0.02420   0.00000  Uiso   1.00
C102   C     0.54313   0.16364   0.45663   0.00000  Uiso   1.00
C103   C     0.46778   0.14238   0.04457   0.00000  Uiso   1.00
C104   C     0.43712   0.11894   0.47201   0.00000  Uiso   1.00
C105   C     0.43586   0.12003   0.01874   0.00000  Uiso   1.00
C106   C     0.57900   0.16201   0.03084   0.00000  Uiso   1.00
C107   C     0.59843   0.16344   0.36074   0.00000  Uiso   1.00
C108   C     0.40054   0.19557   0.09109   0.00000  Uiso   1.00
C109   C     0.58046   0.16484   0.48415   0.00000  Uiso   1.00
C110   C     0.35397   0.12424   0.25376   0.00000  Uiso   1.00
C111   C     0.64600   0.20938   0.24641   0.00000  Uiso   1.00
C112   C     0.64532   0.12480   0.24270   0.00000  Uiso   1.00
C113   C     0.35470   0.20873   0.25717   0.00000  Uiso   1.00
C114   C     0.62379   0.16716   0.24287   0.00000  Uiso   1.00
Cu115  Cu    0.50000   0.21355   0.25000   0.00000  Uiso   1.00
Cu116  Cu    0.50000   0.11978   0.25000   0.00000  Uiso   1.00
H117   H     0.58974   0.21845   0.40569   0.00000  Uiso   1.00
H118   H     0.62559   0.18302   0.35009   0.00000  Uiso   1.00
H119   H     0.58015   0.15279   0.33070   0.00000  Uiso   1.00
H120   H     0.60875   0.13171   0.37892   0.00000  Uiso   1.00
H121   H     0.41211   0.13042   0.12166   0.00000  Uiso   1.00
H122   H     0.38663   0.18512   0.05802   0.00000  Uiso   1.00
H123   H     0.41850   0.22800   0.08734   0.00000  Uiso   1.00
H124   H     0.37553   0.20254   0.11372   0.00000  Uiso   1.00
N125   N     0.50000   0.28402   0.25000   0.00000  Uiso   1.00
N126   N     0.50000   0.04931   0.25000   0.00000  Uiso   1.00
N127   N     0.57411   0.19261   0.38810   0.00000  Uiso   1.00
N128   N     0.42663   0.15926   0.10996   0.00000  Uiso   1.00
O129   O     0.43988   0.20625   0.25000   0.00000  Uiso   1.00
O130   O     0.56012   0.12709   0.25001   0.00000  Uiso   1.00
O131   O     0.56012   0.20625   0.25001   0.00000  Uiso   1.00
O132   O     0.43988   0.12709   0.25000   0.00000  Uiso   1.00
O133   O     0.49999   0.20627   0.18513   0.00000  Uiso   1.00
O134   O     0.50001   0.12707   0.31487   0.00000  Uiso   1.00
O135   O     0.50001   0.20627   0.31487   0.00000  Uiso   1.00
O136   O     0.49999   0.12707   0.18513   0.00000  Uiso   1.00
Br137  Br    0.74913   0.16110   0.37210   0.00000  Uiso   1.00
Br138  Br    0.71316   0.26553   0.28033   0.00000  Uiso   1.00
Br139  Br    0.77133   0.05556   0.17799   0.00000  Uiso   1.00
Br140  Br    0.89521   0.27777   0.32201   0.00000  Uiso   1.00
Br141  Br    0.89539   0.05591   0.32201   0.00000  Uiso   1.00
Br142  Br    0.77076   0.27684   0.17854   0.00000  Uiso   1.00
Br143  Br    0.91299   0.20786   0.13034   0.00000  Uiso   1.00
Br144  Br    0.73330   0.07719   0.43888   0.00000  Uiso   1.00
Br145  Br    0.96130   0.14283   0.06572   0.00000  Uiso   1.00
Br146  Br    0.72837   0.08241   0.04633   0.00000  Uiso   1.00
Br147  Br    0.96843   0.16479   0.46181   0.00000  Uiso   1.00
Br148  Br    0.71092   0.06559   0.27314   0.00000  Uiso   1.00
Br149  Br    0.95570   0.26877   0.22941   0.00000  Uiso   1.00
Br150  Br    0.95377   0.06770   0.22013   0.00000  Uiso   1.00
C151   C     0.75431   0.16655   0.25344   0.00000  Uiso   1.00
C152   C     0.70950   0.16638   0.25659   0.00000  Uiso   1.00
C153   C     0.80793   0.02451   0.22054   0.00000  Uiso   1.00
C154   C     0.85868   0.30879   0.27945   0.00000  Uiso   1.00
C155   C     0.85869   0.02472   0.27946   0.00000  Uiso   1.00
C156   C     0.80785   0.30852   0.22060   0.00000  Uiso   1.00
C157   C     0.83269   0.16666   0.16445   0.00000  Uiso   1.00
C158   C     0.83488   0.16654   0.33571   0.00000  Uiso   1.00
C159   C     0.87447   0.17114   0.40957   0.00000  Uiso   1.00
C160   C     0.79836   0.15277   0.09043   0.00000  Uiso   1.00
C161   C     0.83675   0.16477   0.38463   0.00000  Uiso   1.00
C162   C     0.91224   0.16683   0.24560   0.00000  Uiso   1.00
C163   C     0.83380   0.16572   0.11597   0.00000  Uiso   1.00
C164   C     0.80116   0.15152   0.40529   0.00000  Uiso   1.00
C165   C     0.87113   0.17304   0.09635   0.00000  Uiso   1.00
C166   C     0.80311   0.14111   0.45116   0.00000  Uiso   1.00
C167   C     0.87430   0.16325   0.05068   0.00000  Uiso   1.00
C168   C     0.83952   0.15178   0.47721   0.00000  Uiso   1.00
C169   C     0.83841   0.15215   0.02420   0.00000  Uiso   1.00
C170   C     0.87646   0.16364   0.45663   0.00000  Uiso   1.00
C171   C     0.80112   0.14238   0.04457   0.00000  Uiso   1.00
C172   C     0.77045   0.11894   0.47201   0.00000  Uiso   1.00
C173   C     0.76920   0.12003   0.01874   0.00000  Uiso   1.00
C174   C     0.91234   0.16201   0.03084   0.00000  Uiso   1.00
C175   C     0.93176   0.16344   0.36074   0.00000  Uiso   1.00
C176   C     0.73387   0.19557   0.09109   0.00000  Uiso   1.00
C177   C     0.91380   0.16484   0.48415   0.00000  Uiso   1.00
C178   C     0.68730   0.12424   0.25376   0.00000  Uiso   1.00
C179   C     0.97933   0.20938   0.24641   0.00000  Uiso   1.00
C180   C     0.97865   0.12480   0.24270   0.00000  Uiso   1.00
C181   C     0.68804   0.20873   0.25717   0.00000  Uiso   1.00
C182   C     0.95712   0.16716   0.24287   0.00000  Uiso   1.00
Cu183  Cu    0.83333   0.21355   0.25000   0.00000  Uiso   1.00
Cu184  Cu    0.83333   0.11978   0.25000   0.00000  Uiso   1.00
H185   H     0.92308   0.21845   0.40569   0.00000  Uiso   1.00
H186   H     0.95893   0.18302   0.35009   0.00000  Uiso   1.00
H187   H     0.91348   0.15279   0.33070   0.00000  Uiso   1.00
H188   H     0.94208   0.13171   0.37892   0.00000  Uiso   1.00
H189   H     0.74544   0.13042   0.12166   0.00000  Uiso   1.00
H190   H     0.71997   0.18512   0.05802   0.00000  Uiso   1.00
H191   H     0.75184   0.22800   0.08734   0.00000  Uiso   1.00
H192   H     0.70886   0.20254   0.11372   0.00000  Uiso   1.00
N193   N     0.83333   0.28402   0.25000   0.00000  Uiso   1.00
N194   N     0.83333   0.04931   0.25000   0.00000  Uiso   1.00
N195   N     0.90745   0.19261   0.38810   0.00000  Uiso   1.00
N196   N     0.75996   0.15926   0.10996   0.00000  Uiso   1.00
O197   O     0.77321   0.20625   0.25000   0.00000  Uiso   1.00
O198   O     0.89345   0.12709   0.25001   0.00000  Uiso   1.00
O199   O     0.89345   0.20625   0.25001   0.00000  Uiso   1.00
O200   O     0.77321   0.12709   0.25000   0.00000  Uiso   1.00
O201   O     0.83332   0.20627   0.18513   0.00000  Uiso   1.00
O202   O     0.83334   0.12707   0.31487   0.00000  Uiso   1.00
O203   O     0.83334   0.20627   0.31487   0.00000  Uiso   1.00
O204   O     0.83332   0.12707   0.18513   0.00000  Uiso   1.00
Br205  Br    0.08247   0.49443   0.37210   0.00000  Uiso   1.00
Br206  Br    0.04649   0.59887   0.28033   0.00000  Uiso   1.00
Br207  Br    0.10466   0.38890   0.17799   0.00000  Uiso   1.00
Br208  Br    0.22854   0.61110   0.32201   0.00000  Uiso   1.00
Br209  Br    0.22873   0.38924   0.32201   0.00000  Uiso   1.00
Br210  Br    0.10410   0.61017   0.17854   0.00000  Uiso   1.00
Br211  Br    0.24633   0.54120   0.13034   0.00000  Uiso   1.00
Br212  Br    0.06663   0.41052   0.43888   0.00000  Uiso   1.00
Br213  Br    0.29464   0.47616   0.06572   0.00000  Uiso   1.00
Br214  Br    0.06171   0.41574   0.04633   0.00000  Uiso   1.00
Br215  Br    0.30176   0.49812   0.46181   0.00000  Uiso   1.00
Br216  Br    0.04425   0.39892   0.27314   0.00000  Uiso   1.00
Br217  Br    0.28904   0.60210   0.22941   0.00000  Uiso   1.00
Br218  Br    0.28710   0.40104   0.22013   0.00000  Uiso   1.00
C219   C     0.08764   0.49988   0.25344   0.00000  Uiso   1.00
C220   C     0.04284   0.49972   0.25659   0.00000  Uiso   1.00
C221   C     0.14126   0.35785   0.22054   0.00000  Uiso   1.00
C222   C     0.19201   0.64213   0.27945   0.00000  Uiso   1.00
C223   C     0.19202   0.35806   0.27946   0.00000  Uiso   1.00
C224   C     0.14118   0.64185   0.22060   0.00000  Uiso   1.00
C225   C     0.16603   0.50000   0.16445   0.00000  Uiso   1.00
C226   C     0.16821   0.49987   0.33571   0.00000  Uiso   1.00
C227   C     0.20780   0.50447   0.40957   0.00000  Uiso   1.00
C228   C     0.13169   0.48610   0.09043   0.00000  Uiso   1.00
C229   C     0.17009   0.49811   0.38463   0.00000  Uiso   1.00
C230   C     0.24557   0.50017   0.24560   0.00000  Uiso   1.00
C231   C     0.16713   0.49905   0.11597   0.00000  Uiso   1.00
C232   C     0.13449   0.48485   0.40529   0.00000  Uiso   1.00
C233   C     0.20446   0.50637   0.09635   0.00000  Uiso   1.00
C234   C     0.13644   0.47444   0.45116   0.00000  Uiso   1.00
C235   C     0.20763   0.49658   0.05068   0.00000  Uiso   1.00
C236   C     0.17285   0.48511   0.47721   0.00000  Uiso   1.00
C237   C     0.17174   0.48548   0.02420   0.00000  Uiso   1.00
C238   C     0.20980   0.49698   0.45663   0.00000  Uiso   1.00
C239   C     0.13445   0.47572   0.04457   0.00000  Uiso   1.00
C240   C     0.10379   0.45227   0.47201   0.00000  Uiso   1.00
C241   C     0.10253   0.45336   0.01874   0.00000  Uiso   1.00
C242   C     0.24567   0.49534   0.03084   0.00000  Uiso   1.00
C243   C     0.26510   0.49677   0.36074   0.00000  Uiso   1.00
C244   C     0.06720   0.52890   0.09109   0.00000  Uiso   1.00
C245   C     0.24713   0.49817   0.48415   0.00000  Uiso   1.00
C246   C     0.02063   0.45758   0.25376   0.00000  Uiso   1.00
C247   C     0.31267   0.54271   0.24641   0.00000  Uiso   1.00
C248   C     0.31199   0.45814   0.24270   0.00000  Uiso   1.00
C249   C     0.02137   0.54207   0.25717   0.00000  Uiso   1.00
C250   C     0.29045   0.50050   0.24287   0.00000  Uiso   1.00
Cu251  Cu    0.16667   0.54689   0.25000   0.00000  Uiso   1.00
Cu252  Cu    0.16667   0.45311   0.25000   0.00000  Uiso   1.00
H253   H     0.25641   0.55178   0.40569   0.00000  Uiso   1.00
H254   H     0.29226   0.51635   0.35009   0.00000  Uiso   1.00
H255   H     0.24681   0.48613   0.33070   0.00000  Uiso   1.00
H256   H     0.27542   0.46505   0.37892   0.00000  Uiso   1.00
H257   H     0.07877   0.46375   0.12166   0.00000  Uiso   1.00
H258   H     0.05330   0.51845   0.05802   0.00000  Uiso   1.00
H259   H     0.08517   0.56133   0.08734   0.00000  Uiso   1.00
H260   H     0.04220   0.53587   0.11372   0.00000  Uiso   1.00
N261   N     0.16667   0.61736   0.25000   0.00000  Uiso   1.00
N262   N     0.16667   0.38264   0.25000   0.00000  Uiso   1.00
N263   N     0.24078   0.52595   0.38810   0.00000  Uiso   1.00
N264   N     0.09330   0.49259   0.10996   0.00000  Uiso   1.00
O265   O     0.10655   0.53958   0.25000   0.00000  Uiso   1.00
O266   O     0.22679   0.46042   0.25001   0.00000  Uiso   1.00
O267   O     0.22679   0.53958   0.25001   0.00000  Uiso   1.00
O268   O     0.10655   0.46042   0.25000   0.00000  Uiso   1.00
O269   O     0.16666   0.53960   0.18513   0.00000  Uiso   1.00
O270   O     0.16668   0.46040   0.31487   0.00000  Uiso   1.00
O271   O     0.16668   0.53960   0.31487   0.00000  Uiso   1.00
O272   O     0.16666   0.46040   0.18513   0.00000  Uiso   1.00
Br273  Br    0.41580   0.49443   0.37210   0.00000  Uiso   1.00
Br274  Br    0.37983   0.59887   0.28033   0.00000  Uiso   1.00
Br275  Br    0.43800   0.38890   0.17799   0.00000  Uiso   1.00
Br276  Br    0.56187   0.61110   0.32201   0.00000  Uiso   1.00
Br277  Br    0.56206   0.38924   0.32201   0.00000  Uiso   1.00
Br278  Br    0.43743   0.61017   0.17854   0.00000  Uiso   1.00
Br279  Br    0.57966   0.54120   0.13034   0.00000  Uiso   1.00
Br280  Br    0.39997   0.41052   0.43888   0.00000  Uiso   1.00
Br281  Br    0.62797   0.47616   0.06572   0.00000  Uiso   1.00
Br282  Br    0.39504   0.41574   0.04633   0.00000  Uiso   1.00
Br283  Br    0.63510   0.49812   0.46181   0.00000  Uiso   1.00
Br284  Br    0.37759   0.39892   0.27314   0.00000  Uiso   1.00
Br285  Br    0.62237   0.60210   0.22941   0.00000  Uiso   1.00
Br286  Br    0.62043   0.40104   0.22013   0.00000  Uiso   1.00
C287   C     0.42098   0.49988   0.25344   0.00000  Uiso   1.00
C288   C     0.37617   0.49972   0.25659   0.00000  Uiso   1.00
C289   C     0.47459   0.35785   0.22054   0.00000  Uiso   1.00
C290   C     0.52534   0.64213   0.27945   0.00000  Uiso   1.00
C291   C     0.52536   0.35806   0.27946   0.00000  Uiso   1.00
C292   C     0.47452   0.64185   0.22060   0.00000  Uiso   1.00
C293   C     0.49936   0.50000   0.16445   0.00000  Uiso   1.00
C294   C     0.50154   0.49987   0.33571   0.00000  Uiso   1.00
C295   C     0.54113   0.50447   0.40957   0.00000  Uiso   1.00
C296   C     0.46503   0.48610   0.09043   0.00000  Uiso   1.00
C297   C     0.50342   0.49811   0.38463   0.00000  Uiso   1.00
C298   C     0.57890   0.50017   0.24560   0.00000  Uiso   1.00
C299   C     0.50047   0.49905   0.11597   0.00000  Uiso   1.00
C300   C     0.46783   0.48485   0.40529   0.00000  Uiso   1.00
C301   C     0.53779   0.50637   0.09635   0.00000  Uiso   1.00
C302   C     0.46978   0.47444   0.45116   0.00000  Uiso   1.00
C303   C     0.54097   0.49658   0.05068   0.00000  Uiso   1.00
C304   C     0.50619   0.48511   0.47721   0.00000  Uiso   1.00
C305   C     0.50507   0.48548   0.02420   0.00000  Uiso   1.00
C306   C     0.54313   0.49698   0.45663   0.00000  Uiso   1.00
C307   C     0.46778   0.47572   0.04457   0.00000  Uiso   1.00
C308   C     0.43712   0.45227   0.47201   0.00000  Uiso   1.00
C309   C     0.43586   0.45336   0.01874   0.00000  Uiso   1.00
C310   C     0.57900   0.49534   0.03084   0.00000  Uiso   1.00
C311   C     0.59843   0.49677   0.36074   0.00000  Uiso   1.00
C312   C     0.40054   0.52890   0.09109   0.00000  Uiso   1.00
C313   C     0.58046   0.49817   0.48415   0.00000  Uiso   1.00
C314   C     0.35397   0.45758   0.25376   0.00000  Uiso   1.00
C315   C     0.64600   0.54271   0.24641   0.00000  Uiso   1.00
C316   C     0.64532   0.45814   0.24270   0.00000  Uiso   1.00
C317   C     0.35470   0.54207   0.25717   0.00000  Uiso   1.00
C318   C     0.62379   0.50050   0.24287   0.00000  Uiso   1.00
Cu319  Cu    0.50000   0.54689   0.25000   0.00000  Uiso   1.00
Cu320  Cu    0.50000   0.45311   0.25000   0.00000  Uiso   1.00
H321   H     0.58974   0.55178   0.40569   0.00000  Uiso   1.00
H322   H     0.62559   0.51635   0.35009   0.00000  Uiso   1.00
H323   H     0.58015   0.48613   0.33070   0.00000  Uiso   1.00
H324   H     0.60875   0.46505   0.37892   0.00000  Uiso   1.00
H325   H     0.41211   0.46375   0.12166   0.00000  Uiso   1.00
H326   H     0.38663   0.51845   0.05802   0.00000  Uiso   1.00
H327   H     0.41850   0.56133   0.08734   0.00000  Uiso   1.00
H328   H     0.37553   0.53587   0.11372   0.00000  Uiso   1.00
N329   N     0.50000   0.61736   0.25000   0.00000  Uiso   1.00
N330   N     0.50000   0.38264   0.25000   0.00000  Uiso   1.00
N331   N     0.57411   0.52595   0.38810   0.00000  Uiso   1.00
N332   N     0.42663   0.49259   0.10996   0.00000  Uiso   1.00
O333   O     0.43988   0.53958   0.25000   0.00000  Uiso   1.00
O334   O     0.56012   0.46042   0.25001   0.00000  Uiso   1.00
O335   O     0.56012   0.53958   0.25001   0.00000  Uiso   1.00
O336   O     0.43988   0.46042   0.25000   0.00000  Uiso   1.00
O337   O     0.49999   0.53960   0.18513   0.00000  Uiso   1.00
O338   O     0.50001   0.46040   0.31487   0.00000  Uiso   1.00
O339   O     0.50001   0.53960   0.31487   0.00000  Uiso   1.00
O340   O     0.49999   0.46040   0.18513   0.00000  Uiso   1.00
Br341  Br    0.74913   0.49443   0.37210   0.00000  Uiso   1.00
Br342  Br    0.71316   0.59887   0.28033   0.00000  Uiso   1.00
Br343  Br    0.77133   0.38890   0.17799   0.00000  Uiso   1.00
Br344  Br    0.89521   0.61110   0.32201   0.00000  Uiso   1.00
Br345  Br    0.89539   0.38924   0.32201   0.00000  Uiso   1.00
Br346  Br    0.77076   0.61017   0.17854   0.00000  Uiso   1.00
Br347  Br    0.91299   0.54120   0.13034   0.00000  Uiso   1.00
Br348  Br    0.73330   0.41052   0.43888   0.00000  Uiso   1.00
Br349  Br    0.96130   0.47616   0.06572   0.00000  Uiso   1.00
Br350  Br    0.72837   0.41574   0.04633   0.00000  Uiso   1.00
Br351  Br    0.96843   0.49812   0.46181   0.00000  Uiso   1.00
Br352  Br    0.71092   0.39892   0.27314   0.00000  Uiso   1.00
Br353  Br    0.95570   0.60210   0.22941   0.00000  Uiso   1.00
Br354  Br    0.95377   0.40104   0.22013   0.00000  Uiso   1.00
C355   C     0.75431   0.49988   0.25344   0.00000  Uiso   1.00
C356   C     0.70950   0.49972   0.25659   0.00000  Uiso   1.00
C357   C     0.80793   0.35785   0.22054   0.00000  Uiso   1.00
C358   C     0.85868   0.64213   0.27945   0.00000  Uiso   1.00
C359   C     0.85869   0.35806   0.27946   0.00000  Uiso   1.00
C360   C     0.80785   0.64185   0.22060   0.00000  Uiso   1.00
C361   C     0.83269   0.50000   0.16445   0.00000  Uiso   1.00
C362   C     0.83488   0.49987   0.33571   0.00000  Uiso   1.00
C363   C     0.87447   0.50447   0.40957   0.00000  Uiso   1.00
C364   C     0.79836   0.48610   0.09043   0.00000  Uiso   1.00
C365   C     0.83675   0.49811   0.38463   0.00000  Uiso   1.00
C366   C     0.91224   0.50017   0.24560   0.00000  Uiso   1.00
C367   C     0.83380   0.49905   0.11597   0.00000  Uiso   1.00
C368   C     0.80116   0.48485   0.40529   0.00000  Uiso   1.00
C369   C     0.87113   0.50637   0.09635   0.00000  Uiso   1.00
C370   C     0.80311   0.47444   0.45116   0.00000  Uiso   1.00
C371   C     0.87430   0.49658   0.05068   0.00000  Uiso   1.00
C372   C     0.83952   0.48511   0.47721   0.00000  Uiso   1.00
C373   C     0.83841   0.48548   0.02420   0.00000  Uiso   1.00
C374   C     0.87646   0.49698   0.45663   0.00000  Uiso   1.00
C375   C     0.80112   0.47572   0.04457   0.00000  Uiso   1.00
C376   C     0.77045   0.45227   0.47201   0.00000  Uiso   1.00
C377   C     0.76920   0.45336   0.01874   0.00000  Uiso   1.00
C378   C     0.91234   0.49534   0.03084   0.00000  Uiso   1.00
C379   C     0.93176   0.49677   0.36074   0.00000  Uiso   1.00
C380   C     0.73387   0.52890   0.09109   0.00000  Uiso   1.00
C381   C     0.91380   0.49817   0.48415   0.00000  Uiso   1.00
C382   C     0.68730   0.45758   0.25376   0.00000  Uiso   1.00
C383   C     0.97933   0.54271   0.24641   0.00000  Uiso   1.00
C384   C     0.97865   0.45814   0.24270   0.00000  Uiso   1.00
C385   C     0.68804   0.54207   0.25717   0.00000  Uiso   1.00
C386   C     0.95712   0.50050   0.24287   0.00000  Uiso   1.00
Cu387  Cu    0.83333   0.54689   0.25000   0.00000  Uiso   1.00
Cu388  Cu    0.83333   0.45311   0.25000   0.00000  Uiso   1.00
H389   H     0.92308   0.55178   0.40569   0.00000  Uiso   1.00
H390   H     0.95893   0.51635   0.35009   0.00000  Uiso   1.00
H391   H     0.91348   0.48613   0.33070   0.00000  Uiso   1.00
H392   H     0.94208   0.46505   0.37892   0.00000  Uiso   1.00
H393   H     0.74544   0.46375   0.12166   0.00000  Uiso   1.00
H394   H     0.71997   0.51845   0.05802   0.00000  Uiso   1.00
H395   H     0.75184   0.56133   0.08734   0.00000  Uiso   1.00
H396   H     0.70886   0.53587   0.11372   0.00000  Uiso   1.00
N397   N     0.83333   0.61736   0.25000   0.00000  Uiso   1.00
N398   N     0.83333   0.38264   0.25000   0.00000  Uiso   1.00
N399   N     0.90745   0.52595   0.38810   0.00000  Uiso   1.00
N400   N     0.75996   0.49259   0.10996   0.00000  Uiso   1.00
O401   O     0.77321   0.53958   0.25000   0.00000  Uiso   1.00
O402   O     0.89345   0.46042   0.25001   0.00000  Uiso   1.00
O403   O     0.89345   0.53958   0.25001   0.00000  Uiso   1.00
O404   O     0.77321   0.46042   0.25000   0.00000  Uiso   1.00
O405   O     0.83332   0.53960   0.18513   0.00000  Uiso   1.00
O406   O     0.83334   0.46040   0.31487   0.00000  Uiso   1.00
O407   O     0.83334   0.53960   0.31487   0.00000  Uiso   1.00
O408   O     0.83332   0.46040   0.18513   0.00000  Uiso   1.00
Br409  Br    0.08247   0.82777   0.37210   0.00000  Uiso   1.00
Br410  Br    0.04649   0.93220   0.28033   0.00000  Uiso   1.00
Br411  Br    0.10466   0.72223   0.17799   0.00000  Uiso   1.00
Br412  Br    0.22854   0.94444   0.32201   0.00000  Uiso   1.00
Br413  Br    0.22873   0.72257   0.32201   0.00000  Uiso   1.00
Br414  Br    0.10410   0.94350   0.17854   0.00000  Uiso   1.00
Br415  Br    0.24633   0.87453   0.13034   0.00000  Uiso   1.00
Br416  Br    0.06663   0.74386   0.43888   0.00000  Uiso   1.00
Br417  Br    0.29464   0.80950   0.06572   0.00000  Uiso   1.00
Br418  Br    0.06171   0.74908   0.04633   0.00000  Uiso   1.00
Br419  Br    0.30176   0.83146   0.46181   0.00000  Uiso   1.00
Br420  Br    0.04425   0.73225   0.27314   0.00000  Uiso   1.00
Br421  Br    0.28904   0.93543   0.22941   0.00000  Uiso   1.00
Br422  Br    0.28710   0.73437   0.22013   0.00000  Uiso   1.00
C423   C     0.08764   0.83322   0.25344   0.00000  Uiso   1.00
C424   C     0.04284   0.83305   0.25659   0.00000  Uiso   1.00
C425   C     0.14126   0.69118   0.22054   0.00000  Uiso   1.00
C426   C     0.19201   0.97546   0.27945   0.00000  Uiso   1.00
C427   C     0.19202   0.69139   0.27946   0.00000  Uiso   1.00
C428   C     0.14118   0.97518   0.22060   0.00000  Uiso   1.00
C429   C     0.16603   0.83333   0.16445   0.00000  Uiso   1.00
C430   C     0.16821   0.83320   0.33571   0.00000  Uiso   1.00
C431   C     0.20780   0.83780   0.40957   0.00000  Uiso   1.00
C432   C     0.13169   0.81943   0.09043   0.00000  Uiso   1.00
C433   C     0.17009   0.83144   0.38463   0.00000  Uiso   1.00
C434   C     0.24557   0.83350   0.24560   0.00000  Uiso   1.00
C435   C     0.16713   0.83238   0.11597   0.00000  Uiso   1.00
C436   C     0.13449   0.81819   0.40529   0.00000  Uiso   1.00
C437   C     0.20446   0.83970   0.09635   0.00000  Uiso   1.00
C438   C     0.13644   0.80777   0.45116   0.00000  Uiso   1.00
C439   C     0.20763   0.82992   0.05068   0.00000  Uiso   1.00
C440   C     0.17285   0.81844   0.47721   0.00000  Uiso   1.00
C441   C     0.17174   0.81881   0.02420   0.00000  Uiso   1.00
C442   C     0.20980   0.83031   0.45663   0.00000  Uiso   1.00
C443   C     0.13445   0.80905   0.04457   0.00000  Uiso   1.00
C444   C     0.10379   0.78561   0.47201   0.00000  Uiso   1.00
C445   C     0.10253   0.78670   0.01874   0.00000  Uiso   1.00
C446   C     0.24567   0.82868   0.03084   0.00000  Uiso   1.00
C447   C     0.26510   0.83011   0.36074   0.00000  Uiso   1.00
C448   C     0.06720   0.86223   0.09109   0.00000  Uiso   1.00
C449   C     0.24713   0.83151   0.48415   0.00000  Uiso   1.00
C450   C     0.02063   0.79091   0.25376   0.00000  Uiso   1.00
C451   C     0.31267   0.87605   0.24641   0.00000  Uiso   1.00
C452   C     0.31199   0.79147   0.24270   0.00000  Uiso   1.00
C453   C     0.02137   0.87540   0.25717   0.00000  Uiso   1.00
C454   C     0.29045   0.83383   0.24287   0.00000  Uiso   1.00
Cu455  Cu    0.16667   0.88022   0.25000   0.00000  Uiso   1.00
Cu456  Cu    0.16667   0.78645   0.25000   0.00000  Uiso   1.00
H457   H     0.25641   0.88511   0.40569   0.00000  Uiso   1.00
H458   H     0.29226   0.84968   0.35009   0.00000  Uiso   1.00
H459   H     0.24681   0.81946   0.33070   0.00000  Uiso   1.00
H460   H     0.27542   0.79838   0.37892   0.00000  Uiso   1.00
H461   H     0.07877   0.79709   0.12166   0.00000  Uiso   1.00
H462   H     0.05330   0.85179   0.05802   0.00000  Uiso   1.00
H463   H     0.08517   0.89466   0.08734   0.00000  Uiso   1.00
H464   H     0.04220   0.86920   0.11372   0.00000  Uiso   1.00
N465   N     0.16667   0.95069   0.25000   0.00000  Uiso   1.00
N466   N     0.16667   0.71598   0.25000   0.00000  Uiso   1.00
N467   N     0.24078   0.85928   0.38810   0.00000  Uiso   1.00
N468   N     0.09330   0.82592   0.10996   0.00000  Uiso   1.00
O469   O     0.10655   0.87291   0.25000   0.00000  Uiso   1.00
O470   O     0.22679   0.79375   0.25001   0.00000  Uiso   1.00
O471   O     0.22679   0.87291   0.25001   0.00000  Uiso   1.00
O472   O     0.10655   0.79375   0.25000   0.00000  Uiso   1.00
O473   O     0.16666   0.87293   0.18513   0.00000  Uiso   1.00
O474   O     0.16668   0.79373   0.31487   0.00000  Uiso   1.00
O475   O     0.16668   0.87293   0.31487   0.00000  Uiso   1.00
O476   O     0.16666   0.79373   0.18513   0.00000  Uiso   1.00
Br477  Br    0.41580   0.82777   0.37210   0.00000  Uiso   1.00
Br478  Br    0.37983   0.93220   0.28033   0.00000  Uiso   1.00
Br479  Br    0.43800   0.72223   0.17799   0.00000  Uiso   1.00
Br480  Br    0.56187   0.94444   0.32201   0.00000  Uiso   1.00
Br481  Br    0.56206   0.72257   0.32201   0.00000  Uiso   1.00
Br482  Br    0.43743   0.94350   0.17854   0.00000  Uiso   1.00
Br483  Br    0.57966   0.87453   0.13034   0.00000  Uiso   1.00
Br484  Br    0.39997   0.74386   0.43888   0.00000  Uiso   1.00
Br485  Br    0.62797   0.80950   0.06572   0.00000  Uiso   1.00
Br486  Br    0.39504   0.74908   0.04633   0.00000  Uiso   1.00
Br487  Br    0.63510   0.83146   0.46181   0.00000  Uiso   1.00
Br488  Br    0.37759   0.73225   0.27314   0.00000  Uiso   1.00
Br489  Br    0.62237   0.93543   0.22941   0.00000  Uiso   1.00
Br490  Br    0.62043   0.73437   0.22013   0.00000  Uiso   1.00
C491   C     0.42098   0.83322   0.25344   0.00000  Uiso   1.00
C492   C     0.37617   0.83305   0.25659   0.00000  Uiso   1.00
C493   C     0.47459   0.69118   0.22054   0.00000  Uiso   1.00
C494   C     0.52534   0.97546   0.27945   0.00000  Uiso   1.00
C495   C     0.52536   0.69139   0.27946   0.00000  Uiso   1.00
C496   C     0.47452   0.97518   0.22060   0.00000  Uiso   1.00
C497   C     0.49936   0.83333   0.16445   0.00000  Uiso   1.00
C498   C     0.50154   0.83320   0.33571   0.00000  Uiso   1.00
C499   C     0.54113   0.83780   0.40957   0.00000  Uiso   1.00
C500   C     0.46503   0.81943   0.09043   0.00000  Uiso   1.00
C501   C     0.50342   0.83144   0.38463   0.00000  Uiso   1.00
C502   C     0.57890   0.83350   0.24560   0.00000  Uiso   1.00
C503   C     0.50047   0.83238   0.11597   0.00000  Uiso   1.00
C504   C     0.46783   0.81819   0.40529   0.00000  Uiso   1.00
C505   C     0.53779   0.83970   0.09635   0.00000  Uiso   1.00
C506   C     0.46978   0.80777   0.45116   0.00000  Uiso   1.00
C507   C     0.54097   0.82992   0.05068   0.00000  Uiso   1.00
C508   C     0.50619   0.81844   0.47721   0.00000  Uiso   1.00
C509   C     0.50507   0.81881   0.02420   0.00000  Uiso   1.00
C510   C     0.54313   0.83031   0.45663   0.00000  Uiso   1.00
C511   C     0.46778   0.80905   0.04457   0.00000  Uiso   1.00
C512   C     0.43712   0.78561   0.47201   0.00000  Uiso   1.00
C513   C     0.43586   0.78670   0.01874   0.00000  Uiso   1.00
C514   C     0.57900   0.82868   0.03084   0.00000  Uiso   1.00
C515   C     0.59843   0.83011   0.36074   0.00000  Uiso   1.00
C516   C     0.40054   0.86223   0.09109   0.00000  Uiso   1.00
C517   C     0.58046   0.83151   0.48415   0.00000  Uiso   1.00
C518   C     0.35397   0.79091   0.25376   0.00000  Uiso   1.00
C519   C     0.64600   0.87605   0.24641   0.00000  Uiso   1.00
C520   C     0.64532   0.79147   0.24270   0.00000  Uiso   1.00
C521   C     0.35470   0.87540   0.25717   0.00000  Uiso   1.00
C522   C     0.62379   0.83383   0.24287   0.00000  Uiso   1.00
Cu523  Cu    0.50000   0.88022   0.25000   0.00000  Uiso   1.00
Cu524  Cu    0.50000   0.78645   0.25000   0.00000  Uiso   1.00
H525   H     0.58974   0.88511   0.40569   0.00000  Uiso   1.00
H526   H     0.62559   0.84968   0.35009   0.00000  Uiso   1.00
H527   H     0.58015   0.81946   0.33070   0.00000  Uiso   1.00
H528   H     0.60875   0.79838   0.37892   0.00000  Uiso   1.00
H529   H     0.41211   0.79709   0.12166   0.00000  Uiso   1.00
H530   H     0.38663   0.85179   0.05802   0.00000  Uiso   1.00
H531   H     0.41850   0.89466   0.08734   0.00000  Uiso   1.00
H532   H     0.37553   0.86920   0.11372   0.00000  Uiso   1.00
N533   N     0.50000   0.95069   0.25000   0.00000  Uiso   1.00
N534   N     0.50000   0.71598   0.25000   0.00000  Uiso   1.00
N535   N     0.57411   0.85928   0.38810   0.00000  Uiso   1.00
N536   N     0.42663   0.82592   0.10996   0.00000  Uiso   1.00
O537   O     0.43988   0.87291   0.25000   0.00000  Uiso   1.00
O538   O     0.56012   0.79375   0.25001   0.00000  Uiso   1.00
O539   O     0.56012   0.87291   0.25001   0.00000  Uiso   1.00
O540   O     0.43988   0.79375   0.25000   0.00000  Uiso   1.00
O541   O     0.49999   0.87293   0.18513   0.00000  Uiso   1.00
O542   O     0.50001   0.79373   0.31487   0.00000  Uiso   1.00
O543   O     0.50001   0.87293   0.31487   0.00000  Uiso   1.00
O544   O     0.49999   0.79373   0.18513   0.00000  Uiso   1.00
Br545  Br    0.74913   0.82777   0.37210   0.00000  Uiso   1.00
Br546  Br    0.71316   0.93220   0.28033   0.00000  Uiso   1.00
Br547  Br    0.77133   0.72223   0.17799   0.00000  Uiso   1.00
Br548  Br    0.89521   0.94444   0.32201   0.00000  Uiso   1.00
Br549  Br    0.89539   0.72257   0.32201   0.00000  Uiso   1.00
Br550  Br    0.77076   0.94350   0.17854   0.00000  Uiso   1.00
Br551  Br    0.91299   0.87453   0.13034   0.00000  Uiso   1.00
Br552  Br    0.73330   0.74386   0.43888   0.00000  Uiso   1.00
Br553  Br    0.96130   0.80950   0.06572   0.00000  Uiso   1.00
Br554  Br    0.72837   0.74908   0.04633   0.00000  Uiso   1.00
Br555  Br    0.96843   0.83146   0.46181   0.00000  Uiso   1.00
Br556  Br    0.71092   0.73225   0.27314   0.00000  Uiso   1.00
Br557  Br    0.95570   0.93543   0.22941   0.00000  Uiso   1.00
Br558  Br    0.95377   0.73437   0.22013   0.00000  Uiso   1.00
C559   C     0.75431   0.83322   0.25344   0.00000  Uiso   1.00
C560   C     0.70950   0.83305   0.25659   0.00000  Uiso   1.00
C561   C     0.80793   0.69118   0.22054   0.00000  Uiso   1.00
C562   C     0.85868   0.97546   0.27945   0.00000  Uiso   1.00
C563   C     0.85869   0.69139   0.27946   0.00000  Uiso   1.00
C564   C     0.80785   0.97518   0.22060   0.00000  Uiso   1.00
C565   C     0.83269   0.83333   0.16445   0.00000  Uiso   1.00
C566   C     0.83488   0.83320   0.33571   0.00000  Uiso   1.00
C567   C     0.87447   0.83780   0.40957   0.00000  Uiso   1.00
C568   C     0.79836   0.81943   0.09043   0.00000  Uiso   1.00
C569   C     0.83675   0.83144   0.38463   0.00000  Uiso   1.00
C570   C     0.91224   0.83350   0.24560   0.00000  Uiso   1.00
C571   C     0.83380   0.83238   0.11597   0.00000  Uiso   1.00
C572   C     0.80116   0.81819   0.40529   0.00000  Uiso   1.00
C573   C     0.87113   0.83970   0.09635   0.00000  Uiso   1.00
C574   C     0.80311   0.80777   0.45116   0.00000  Uiso   1.00
C575   C     0.87430   0.82992   0.05068   0.00000  Uiso   1.00
C576   C     0.83952   0.81844   0.47721   0.00000  Uiso   1.00
C577   C     0.83841   0.81881   0.02420   0.00000  Uiso   1.00
C578   C     0.87646   0.83031   0.45663   0.00000  Uiso   1.00
C579   C     0.80112   0.80905   0.04457   0.00000  Uiso   1.00
C580   C     0.77045   0.78561   0.47201   0.00000  Uiso   1.00
C581   C     0.76920   0.78670   0.01874   0.00000  Uiso   1.00
C582   C     0.91234   0.82868   0.03084   0.00000  Uiso   1.00
C583   C     0.93176   0.83011   0.36074   0.00000  Uiso   1.00
C584   C     0.73387   0.86223   0.09109   0.00000  Uiso   1.00
C585   C     0.91380   0.83151   0.48415   0.00000  Uiso   1.00
C586   C     0.68730   0.79091   0.25376   0.00000  Uiso   1.00
C587   C     0.97933   0.87605   0.24641   0.00000  Uiso   1.00
C588   C     0.97865   0.79147   0.24270   0.00000  Uiso   1.00
C589   C     0.68804   0.87540   0.25717   0.00000  Uiso   1.00
C590   C     0.95712   0.83383   0.24287   0.00000  Uiso   1.00
Cu591  Cu    0.83333   0.88022   0.25000   0.00000  Uiso   1.00
Cu592  Cu    0.83333   0.78645   0.25000   0.00000  Uiso   1.00
H593   H     0.92308   0.88511   0.40569   0.00000  Uiso   1.00
H594   H     0.95893   0.84968   0.35009   0.00000  Uiso   1.00
H595   H     0.91348   0.81946   0.33070   0.00000  Uiso   1.00
H596   H     0.94208   0.79838   0.37892   0.00000  Uiso   1.00
H597   H     0.74544   0.79709   0.12166   0.00000  Uiso   1.00
H598   H     0.71997   0.85179   0.05802   0.00000  Uiso   1.00
H599   H     0.75184   0.89466   0.08734   0.00000  Uiso   1.00
H600   H     0.70886   0.86920   0.11372   0.00000  Uiso   1.00
N601   N     0.83333   0.95069   0.25000   0.00000  Uiso   1.00
N602   N     0.83333   0.71598   0.25000   0.00000  Uiso   1.00
N603   N     0.90745   0.85928   0.38810   0.00000  Uiso   1.00
N604   N     0.75996   0.82592   0.10996   0.00000  Uiso   1.00
O605   O     0.77321   0.87291   0.25000   0.00000  Uiso   1.00
O606   O     0.89345   0.79375   0.25001   0.00000  Uiso   1.00
O607   O     0.89345   0.87291   0.25001   0.00000  Uiso   1.00
O608   O     0.77321   0.79375   0.25000   0.00000  Uiso   1.00
O609   O     0.83332   0.87293   0.18513   0.00000  Uiso   1.00
O610   O     0.83334   0.79373   0.31487   0.00000  Uiso   1.00
O611   O     0.83334   0.87293   0.31487   0.00000  Uiso   1.00
O612   O     0.83332   0.79373   0.18513   0.00000  Uiso   1.00
Br613  Br    0.08247   0.16110   0.87210   0.00000  Uiso   1.00
Br614  Br    0.04649   0.26553   0.78033   0.00000  Uiso   1.00
Br615  Br    0.10466   0.05556   0.67799   0.00000  Uiso   1.00
Br616  Br    0.22854   0.27777   0.82201   0.00000  Uiso   1.00
Br617  Br    0.22873   0.05591   0.82201   0.00000  Uiso   1.00
Br618  Br    0.10410   0.27684   0.67854   0.00000  Uiso   1.00
Br619  Br    0.24633   0.20786   0.63034   0.00000  Uiso   1.00
Br620  Br    0.06663   0.07719   0.93888   0.00000  Uiso   1.00
Br621  Br    0.29464   0.14283   0.56572   0.00000  Uiso   1.00
Br622  Br    0.06171   0.08241   0.54633   0.00000  Uiso   1.00
Br623  Br    0.30176   0.16479   0.96181   0.00000  Uiso   1.00
Br624  Br    0.04425   0.06559   0.77314   0.00000  Uiso   1.00
Br625  Br    0.28904   0.26877   0.72941   0.00000  Uiso   1.00
Br626  Br    0.28710   0.06770   0.72013   0.00000  Uiso   1.00
C627   C     0.08764   0.16655   0.75344   0.00000  Uiso   1.00
C628   C     0.04284   0.16638   0.75659   0.00000  Uiso   1.00
C629   C     0.14126   0.02451   0.72054   0.00000  Uiso   1.00
C630   C     0.19201   0.30879   0.77945   0.00000  Uiso   1.00
C631   C     0.19202   0.02472   0.77946   0.00000  Uiso   1.00
C632   C     0.14118   0.30852   0.72060   0.00000  Uiso   1.00
C633   C     0.16603   0.16666   0.66445   0.00000  Uiso   1.00
C634   C     0.16821   0.16654   0.83571   0.00000  Uiso   1.00
C635   C     0.20780   0.17114   0.90957   0.00000  Uiso   1.00
C636   C     0.13169   0.15277   0.59043   0.00000  Uiso   1.00
C637   C     0.17009   0.16477   0.88463   0.00000  Uiso   1.00
C638   C     0.24557   0.16683   0.74560   0.00000  Uiso   1.00
C639   C     0.16713   0.16572   0.61597   0.00000  Uiso   1.00
C640   C     0.13449   0.15152   0.90529   0.00000  Uiso   1.00
C641   C     0.20446   0.17304   0.59635   0.00000  Uiso   1.00
C642   C     0.13644   0.14111   0.95116   0.00000  Uiso   1.00
C643   C     0.20763   0.16325   0.55068   0.00000  Uiso   1.00
C644   C     0.17285   0.15178   0.97721   0.00000  Uiso   1.00
C645   C     0.17174   0.15215   0.52420   0.00000  Uiso   1.00
C646   C     0.20980   0.16364   0.95663   0.00000  Uiso   1.00
C647   C     0.13445   0.14238   0.54457   0.00000  Uiso   1.00
C648   C     0.10379   0.11894   0.97201   0.00000  Uiso   1.00
C649   C     0.10253   0.12003   0.51874   0.00000  Uiso   1.00
C650   C     0.24567   0.16201   0.53084   0.00000  Uiso   1.00
C651   C     0.26510   0.16344   0.86074   0.00000  Uiso   1.00
C652   C     0.06720   0.19557   0.59109   0.00000  Uiso   1.00
C653   C     0.24713   0.16484   0.98415   0.00000  Uiso   1.00
C654   C     0.02063   0.12424   0.75376   0.00000  Uiso   1.00
C655   C     0.31267   0.20938   0.74641   0.00000  Uiso   1.00
C656   C     0.31199   0.12480   0.74270   0.00000  Uiso   1.00
C657   C     0.02137   0.20873   0.75717   0.00000  Uiso   1.00
C658   C     0.29045   0.16716   0.74287   0.00000  Uiso   1.00
Cu659  Cu    0.16667   0.21355   0.75000   0.00000  Uiso   1.00
Cu660  Cu    0.16667   0.11978   0.75000   0.00000  Uiso   1.00
H661   H     0.25641   0.21845   0.90569   0.00000  Uiso   1.00
H662   H     0.29226   0.18302   0.85009   0.00000  Uiso   1.00
H663   H     0.24681   0.15279   0.83070   0.00000  Uiso   1.00
H664   H     0.27542   0.13171   0.87892   0.00000  Uiso   1.00
H665   H     0.07877   0.13042   0.62166   0.00000  Uiso   1.00
H666   H     0.05330   0.18512   0.55802   0.00000  Uiso   1.00
H667   H     0.08517   0.22800   0.58734   0.00000  Uiso   1.00
H668   H     0.04220   0.20254   0.61372   0.00000  Uiso   1.00
N669   N     0.16667   0.28402   0.75000   0.00000  Uiso   1.00
N670   N     0.16667   0.04931   0.75000   0.00000  Uiso   1.00
N671   N     0.24078   0.19261   0.88810   0.00000  Uiso   1.00
N672   N     0.09330   0.15926   0.60996   0.00000  Uiso   1.00
O673   O     0.10655   0.20625   0.75000   0.00000  Uiso   1.00
O674   O     0.22679   0.12709   0.75001   0.00000  Uiso   1.00
O675   O     0.22679   0.20625   0.75001   0.00000  Uiso   1.00
O676   O     0.10655   0.12709   0.75000   0.00000  Uiso   1.00
O677   O     0.16666   0.20627   0.68513   0.00000  Uiso   1.00
O678   O     0.16668   0.12707   0.81487   0.00000  Uiso   1.00
O679   O     0.16668   0.20627   0.81487   0.00000  Uiso   1.00
O680   O     0.16666   0.12707   0.68513   0.00000  Uiso   1.00
Br681  Br    0.41580   0.16110   0.87210   0.00000  Uiso   1.00
Br682  Br    0.37983   0.26553   0.78033   0.00000  Uiso   1.00
Br683  Br    0.43800   0.05556   0.67799   0.00000  Uiso   1.00
Br684  Br    0.56187   0.27777   0.82201   0.00000  Uiso   1.00
Br685  Br    0.56206   0.05591   0.82201   0.00000  Uiso   1.00
Br686  Br    0.43743   0.27684   0.67854   0.00000  Uiso   1.00
Br687  Br    0.57966   0.20786   0.63034   0.00000  Uiso   1.00
Br688  Br    0.39997   0.07719   0.93888   0.00000  Uiso   1.00
Br689  Br    0.62797   0.14283   0.56572   0.00000  Uiso   1.00
Br690  Br    0.39504   0.08241   0.54633   0.00000  Uiso   1.00
Br691  Br    0.63510   0.16479   0.96181   0.00000  Uiso   1.00
Br692  Br    0.37759   0.06559   0.77314   0.00000  Uiso   1.00
Br693  Br    0.62237   0.26877   0.72941   0.00000  Uiso   1.00
Br694  Br    0.62043   0.06770   0.72013   0.00000  Uiso   1.00
C695   C     0.42098   0.16655   0.75344   0.00000  Uiso   1.00
C696   C     0.37617   0.16638   0.75659   0.00000  Uiso   1.00
C697   C     0.47459   0.02451   0.72054   0.00000  Uiso   1.00
C698   C     0.52534   0.30879   0.77945   0.00000  Uiso   1.00
C699   C     0.52536   0.02472   0.77946   0.00000  Uiso   1.00
C700   C     0.47452   0.30852   0.72060   0.00000  Uiso   1.00
C701   C     0.49936   0.16666   0.66445   0.00000  Uiso   1.00
C702   C     0.50154   0.16654   0.83571   0.00000  Uiso   1.00
C703   C     0.54113   0.17114   0.90957   0.00000  Uiso   1.00
C704   C     0.46503   0.15277   0.59043   0.00000  Uiso   1.00
C705   C     0.50342   0.16477   0.88463   0.00000  Uiso   1.00
C706   C     0.57890   0.16683   0.74560   0.00000  Uiso   1.00
C707   C     0.50047   0.16572   0.61597   0.00000  Uiso   1.00
C708   C     0.46783   0.15152   0.90529   0.00000  Uiso   1.00
C709   C     0.53779   0.17304   0.59635   0.00000  Uiso   1.00
C710   C     0.46978   0.14111   0.95116   0.00000  Uiso   1.00
C711   C     0.54097   0.16325   0.55068   0.00000  Uiso   1.00
C712   C     0.50619   0.15178   0.97721   0.00000  Uiso   1.00
C713   C     0.50507   0.15215   0.52420   0.00000  Uiso   1.00
C714   C     0.54313   0.16364   0.95663   0.00000  Uiso   1.00
C715   C     0.46778   0.14238   0.54457   0.00000  Uiso   1.00
C716   C     0.43712   0.11894   0.97201   0.00000  Uiso   1.00
C717   C     0.43586   0.12003   0.51874   0.00000  Uiso   1.00
C718   C     0.57900   0.16201   0.53084   0.00000  Uiso   1.00
C719   C     0.59843   0.16344   0.86074   0.00000  Uiso   1.00
C720   C     0.40054   0.19557   0.59109   0.00000  Uiso   1.00
C721   C     0.58046   0.16484   0.98415   0.00000  Uiso   1.00
C722   C     0.35397   0.12424   0.75376   0.00000  Uiso   1.00
C723   C     0.64600   0.20938   0.74641   0.00000  Uiso   1.00
C724   C     0.64532   0.12480   0.74270   0.00000  Uiso   1.00
C725   C     0.35470   0.20873   0.75717   0.00000  Uiso   1.00
C726   C     0.62379   0.16716   0.74287   0.00000  Uiso   1.00
Cu727  Cu    0.50000   0.21355   0.75000   0.00000  Uiso   1.00
Cu728  Cu    0.50000   0.11978   0.75000   0.00000  Uiso   1.00
H729   H     0.58974   0.21845   0.90569   0.00000  Uiso   1.00
H730   H     0.62559   0.18302   0.85009   0.00000  Uiso   1.00
H731   H     0.58015   0.15279   0.83070   0.00000  Uiso   1.00
H732   H     0.60875   0.13171   0.87892   0.00000  Uiso   1.00
H733   H     0.41211   0.13042   0.62166   0.00000  Uiso   1.00
H734   H     0.38663   0.18512   0.55802   0.00000  Uiso   1.00
H735   H     0.41850   0.22800   0.58734   0.00000  Uiso   1.00
H736   H     0.37553   0.20254   0.61372   0.00000  Uiso   1.00
N737   N     0.50000   0.28402   0.75000   0.00000  Uiso   1.00
N738   N     0.50000   0.04931   0.75000   0.00000  Uiso   1.00
N739   N     0.57411   0.19261   0.88810   0.00000  Uiso   1.00
N740   N     0.42663   0.15926   0.60996   0.00000  Uiso   1.00
O741   O     0.43988   0.20625   0.75000   0.00000  Uiso   1.00
O742   O     0.56012   0.12709   0.75001   0.00000  Uiso   1.00
O743   O     0.56012   0.20625   0.75001   0.00000  Uiso   1.00
O744   O     0.43988   0.12709   0.75000   0.00000  Uiso   1.00
O745   O     0.49999   0.20627   0.68513   0.00000  Uiso   1.00
O746   O     0.50001   0.12707   0.81487   0.00000  Uiso   1.00
O747   O     0.50001   0.20627   0.81487   0.00000  Uiso   1.00
O748   O     0.49999   0.12707   0.68513   0.00000  Uiso   1.00
Br749  Br    0.74913   0.16110   0.87210   0.00000  Uiso   1.00
Br750  Br    0.71316   0.26553   0.78033   0.00000  Uiso   1.00
Br751  Br    0.77133   0.05556   0.67799   0.00000  Uiso   1.00
Br752  Br    0.89521   0.27777   0.82201   0.00000  Uiso   1.00
Br753  Br    0.89539   0.05591   0.82201   0.00000  Uiso   1.00
Br754  Br    0.77076   0.27684   0.67854   0.00000  Uiso   1.00
Br755  Br    0.91299   0.20786   0.63034   0.00000  Uiso   1.00
Br756  Br    0.73330   0.07719   0.93888   0.00000  Uiso   1.00
Br757  Br    0.96130   0.14283   0.56572   0.00000  Uiso   1.00
Br758  Br    0.72837   0.08241   0.54633   0.00000  Uiso   1.00
Br759  Br    0.96843   0.16479   0.96181   0.00000  Uiso   1.00
Br760  Br    0.71092   0.06559   0.77314   0.00000  Uiso   1.00
Br761  Br    0.95570   0.26877   0.72941   0.00000  Uiso   1.00
Br762  Br    0.95377   0.06770   0.72013   0.00000  Uiso   1.00
C763   C     0.75431   0.16655   0.75344   0.00000  Uiso   1.00
C764   C     0.70950   0.16638   0.75659   0.00000  Uiso   1.00
C765   C     0.80793   0.02451   0.72054   0.00000  Uiso   1.00
C766   C     0.85868   0.30879   0.77945   0.00000  Uiso   1.00
C767   C     0.85869   0.02472   0.77946   0.00000  Uiso   1.00
C768   C     0.80785   0.30852   0.72060   0.00000  Uiso   1.00
C769   C     0.83269   0.16666   0.66445   0.00000  Uiso   1.00
C770   C     0.83488   0.16654   0.83571   0.00000  Uiso   1.00
C771   C     0.87447   0.17114   0.90957   0.00000  Uiso   1.00
C772   C     0.79836   0.15277   0.59043   0.00000  Uiso   1.00
C773   C     0.83675   0.16477   0.88463   0.00000  Uiso   1.00
C774   C     0.91224   0.16683   0.74560   0.00000  Uiso   1.00
C775   C     0.83380   0.16572   0.61597   0.00000  Uiso   1.00
C776   C     0.80116   0.15152   0.90529   0.00000  Uiso   1.00
C777   C     0.87113   0.17304   0.59635   0.00000  Uiso   1.00
C778   C     0.80311   0.14111   0.95116   0.00000  Uiso   1.00
C779   C     0.87430   0.16325   0.55068   0.00000  Uiso   1.00
C780   C     0.83952   0.15178   0.97721   0.00000  Uiso   1.00
C781   C     0.83841   0.15215   0.52420   0.00000  Uiso   1.00
C782   C     0.87646   0.16364   0.95663   0.00000  Uiso   1.00
C783   C     0.80112   0.14238   0.54457   0.00000  Uiso   1.00
C784   C     0.77045   0.11894   0.97201   0.00000  Uiso   1.00
C785   C     0.76920   0.12003   0.51874   0.00000  Uiso   1.00
C786   C     0.91234   0.16201   0.53084   0.00000  Uiso   1.00
C787   C     0.93176   0.16344   0.86074   0.00000  Uiso   1.00
C788   C     0.73387   0.19557   0.59109   0.00000  Uiso   1.00
C789   C     0.91380   0.16484   0.98415   0.00000  Uiso   1.00
C790   C     0.68730   0.12424   0.75376   0.00000  Uiso   1.00
C791   C     0.97933   0.20938   0.74641   0.00000  Uiso   1.00
C792   C     0.97865   0.12480   0.74270   0.00000  Uiso   1.00
C793   C     0.68804   0.20873   0.75717   0.00000  Uiso   1.00
C794   C     0.95712   0.16716   0.74287   0.00000  Uiso   1.00
Cu795  Cu    0.83333   0.21355   0.75000   0.00000  Uiso   1.00
Cu796  Cu    0.83333   0.11978   0.75000   0.00000  Uiso   1.00
H797   H     0.92308   0.21845   0.90569   0.00000  Uiso   1.00
H798   H     0.95893   0.18302   0.85009   0.00000  Uiso   1.00
H799   H     0.91348   0.15279   0.83070   0.00000  Uiso   1.00
H800   H     0.94208   0.13171   0.87892   0.00000  Uiso   1.00
H801   H     0.74544   0.13042   0.62166   0.00000  Uiso   1.00
H802   H     0.71997   0.18512   0.55802   0.00000  Uiso   1.00
H803   H     0.75184   0.22800   0.58734   0.00000  Uiso   1.00
H804   H     0.70886   0.20254   0.61372   0.00000  Uiso   1.00
N805   N     0.83333   0.28402   0.75000   0.00000  Uiso   1.00
N806   N     0.83333   0.04931   0.75000   0.00000  Uiso   1.00
N807   N     0.90745   0.19261   0.88810   0.00000  Uiso   1.00
N808   N     0.75996   0.15926   0.60996   0.00000  Uiso   1.00
O809   O     0.77321   0.20625   0.75000   0.00000  Uiso   1.00
O810   O     0.89345   0.12709   0.75001   0.00000  Uiso   1.00
O811   O     0.89345   0.20625   0.75001   0.00000  Uiso   1.00
O812   O     0.77321   0.12709   0.75000   0.00000  Uiso   1.00
O813   O     0.83332   0.20627   0.68513   0.00000  Uiso   1.00
O814   O     0.83334   0.12707   0.81487   0.00000  Uiso   1.00
O815   O     0.83334   0.20627   0.81487   0.00000  Uiso   1.00
O816   O     0.83332   0.12707   0.68513   0.00000  Uiso   1.00
Br817  Br    0.08247   0.49443   0.87210   0.00000  Uiso   1.00
Br818  Br    0.04649   0.59887   0.78033   0.00000  Uiso   1.00
Br819  Br    0.10466   0.38890   0.67799   0.00000  Uiso   1.00
Br820  Br    0.22854   0.61110   0.82201   0.00000  Uiso   1.00
Br821  Br    0.22873   0.38924   0.82201   0.00000  Uiso   1.00
Br822  Br    0.10410   0.61017   0.67854   0.00000  Uiso   1.00
Br823  Br    0.24633   0.54120   0.63034   0.00000  Uiso   1.00
Br824  Br    0.06663   0.41052   0.93888   0.00000  Uiso   1.00
Br825  Br    0.29464   0.47616   0.56572   0.00000  Uiso   1.00
Br826  Br    0.06171   0.41574   0.54633   0.00000  Uiso   1.00
Br827  Br    0.30176   0.49812   0.96181   0.00000  Uiso   1.00
Br828  Br    0.04425   0.39892   0.77314   0.00000  Uiso   1.00
Br829  Br    0.28904   0.60210   0.72941   0.00000  Uiso   1.00
Br830  Br    0.28710   0.40104   0.72013   0.00000  Uiso   1.00
C831   C     0.08764   0.49988   0.75344   0.00000  Uiso   1.00
C832   C     0.04284   0.49972   0.75659   0.00000  Uiso   1.00
C833   C     0.14126   0.35785   0.72054   0.00000  Uiso   1.00
C834   C     0.19201   0.64213   0.77945   0.00000  Uiso   1.00
C835   C     0.19202   0.35806   0.77946   0.00000  Uiso   1.00
C836   C     0.14118   0.64185   0.72060   0.00000  Uiso   1.00
C837   C     0.16603   0.50000   0.66445   0.00000  Uiso   1.00
C838   C     0.16821   0.49987   0.83571   0.00000  Uiso   1.00
C839   C     0.20780   0.50447   0.90957   0.00000  Uiso   1.00
C840   C     0.13169   0.48610   0.59043   0.00000  Uiso   1.00
C841   C     0.17009   0.49811   0.88463   0.00000  Uiso   1.00
C842   C     0.24557   0.50017   0.74560   0.00000  Uiso   1.00
C843   C     0.16713   0.49905   0.61597   0.00000  Uiso   1.00
C844   C     0.13449   0.48485   0.90529   0.00000  Uiso   1.00
C845   C     0.20446   0.50637   0.59635   0.00000  Uiso   1.00
C846   C     0.13644   0.47444   0.95116   0.00000  Uiso   1.00
C847   C     0.20763   0.49658   0.55068   0.00000  Uiso   1.00
C848   C     0.17285   0.48511   0.97721   0.00000  Uiso   1.00
C849   C     0.17174   0.48548   0.52420   0.00000  Uiso   1.00
C850   C     0.20980   0.49698   0.95663   0.00000  Uiso   1.00
C851   C     0.13445   0.47572   0.54457   0.00000  Uiso   1.00
C852   C     0.10379   0.45227   0.97201   0.00000  Uiso   1.00
C853   C     0.10253   0.45336   0.51874   0.00000  Uiso   1.00
C854   C     0.24567   0.49534   0.53084   0.00000  Uiso   1.00
C855   C     0.26510   0.49677   0.86074   0.00000  Uiso   1.00
C856   C     0.06720   0.52890   0.59109   0.00000  Uiso   1.00
C857   C     0.24713   0.49817   0.98415   0.00000  Uiso   1.00
C858   C     0.02063   0.45758   0.75376   0.00000  Uiso   1.00
C859   C     0.31267   0.54271   0.74641   0.00000  Uiso   1.00
C860   C     0.31199   0.45814   0.74270   0.00000  Uiso   1.00
C861   C     0.02137   0.54207   0.75717   0.00000  Uiso   1.00
C862   C     0.29045   0.50050   0.74287   0.00000  Uiso   1.00
Cu863  Cu    0.16667   0.54689   0.75000   0.00000  Uiso   1.00
Cu864  Cu    0.16667   0.45311   0.75000   0.00000  Uiso   1.00
H865   H     0.25641   0.55178   0.90569   0.00000  Uiso   1.00
H866   H     0.29226   0.51635   0.85009   0.00000  Uiso   1.00
H867   H     0.24681   0.48613   0.83070   0.00000  Uiso   1.00
H868   H     0.27542   0.46505   0.87892   0.00000  Uiso   1.00
H869   H     0.07877   0.46375   0.62166   0.00000  Uiso   1.00
H870   H     0.05330   0.51845   0.55802   0.00000  Uiso   1.00
H871   H     0.08517   0.56133   0.58734   0.00000  Uiso   1.00
H872   H     0.04220   0.53587   0.61372   0.00000  Uiso   1.00
N873   N     0.16667   0.61736   0.75000   0.00000  Uiso   1.00
N874   N     0.16667   0.38264   0.75000   0.00000  Uiso   1.00
N875   N     0.24078   0.52595   0.88810   0.00000  Uiso   1.00
N876   N     0.09330   0.49259   0.60996   0.00000  Uiso   1.00
O877   O     0.10655   0.53958   0.75000   0.00000  Uiso   1.00
O878   O     0.22679   0.46042   0.75001   0.00000  Uiso   1.00
O879   O     0.22679   0.53958   0.75001   0.00000  Uiso   1.00
O880   O     0.10655   0.46042   0.75000   0.00000  Uiso   1.00
O881   O     0.16666   0.53960   0.68513   0.00000  Uiso   1.00
O882   O     0.16668   0.46040   0.81487   0.00000  Uiso   1.00
O883   O     0.16668   0.53960   0.81487   0.00000  Uiso   1.00
O884   O     0.16666   0.46040   0.68513   0.00000  Uiso   1.00
Br885  Br    0.41580   0.49443   0.87210   0.00000  Uiso   1.00
Br886  Br    0.37983   0.59887   0.78033   0.00000  Uiso   1.00
Br887  Br    0.43800   0.38890   0.67799   0.00000  Uiso   1.00
Br888  Br    0.56187   0.61110   0.82201   0.00000  Uiso   1.00
Br889  Br    0.56206   0.38924   0.82201   0.00000  Uiso   1.00
Br890  Br    0.43743   0.61017   0.67854   0.00000  Uiso   1.00
Br891  Br    0.57966   0.54120   0.63034   0.00000  Uiso   1.00
Br892  Br    0.39997   0.41052   0.93888   0.00000  Uiso   1.00
Br893  Br    0.62797   0.47616   0.56572   0.00000  Uiso   1.00
Br894  Br    0.39504   0.41574   0.54633   0.00000  Uiso   1.00
Br895  Br    0.63510   0.49812   0.96181   0.00000  Uiso   1.00
Br896  Br    0.37759   0.39892   0.77314   0.00000  Uiso   1.00
Br897  Br    0.62237   0.60210   0.72941   0.00000  Uiso   1.00
Br898  Br    0.62043   0.40104   0.72013   0.00000  Uiso   1.00
C899   C     0.42098   0.49988   0.75344   0.00000  Uiso   1.00
C900   C     0.37617   0.49972   0.75659   0.00000  Uiso   1.00
C901   C     0.47459   0.35785   0.72054   0.00000  Uiso   1.00
C902   C     0.52534   0.64213   0.77945   0.00000  Uiso   1.00
C903   C     0.52536   0.35806   0.77946   0.00000  Uiso   1.00
C904   C     0.47452   0.64185   0.72060   0.00000  Uiso   1.00
C905   C     0.49936   0.50000   0.66445   0.00000  Uiso   1.00
C906   C     0.50154   0.49987   0.83571   0.00000  Uiso   1.00
C907   C     0.54113   0.50447   0.90957   0.00000  Uiso   1.00
C908   C     0.46503   0.48610   0.59043   0.00000  Uiso   1.00
C909   C     0.50342   0.49811   0.88463   0.00000  Uiso   1.00
C910   C     0.57890   0.50017   0.74560   0.00000  Uiso   1.00
C911   C     0.50047   0.49905   0.61597   0.00000  Uiso   1.00
C912   C     0.46783   0.48485   0.90529   0.00000  Uiso   1.00
C913   C     0.53779   0.50637   0.59635   0.00000  Uiso   1.00
C914   C     0.46978   0.47444   0.95116   0.00000  Uiso   1.00
C915   C     0.54097   0.49658   0.55068   0.00000  Uiso   1.00
C916   C     0.50619   0.48511   0.97721   0.00000  Uiso   1.00
C917   C     0.50507   0.48548   0.52420   0.00000  Uiso   1.00
C918   C     0.54313   0.49698   0.95663   0.00000  Uiso   1.00
C919   C     0.46778   0.47572   0.54457   0.00000  Uiso   1.00
C920   C     0.43712   0.45227   0.97201   0.00000  Uiso   1.00
C921   C     0.43586   0.45336   0.51874   0.00000  Uiso   1.00
C922   C     0.57900   0.49534   0.53084   0.00000  Uiso   1.00
C923   C     0.59843   0.49677   0.86074   0.00000  Uiso   1.00
C924   C     0.40054   0.52890   0.59109   0.00000  Uiso   1.00
C925   C     0.58046   0.49817   0.98415   0.00000  Uiso   1.00
C926   C     0.35397   0.45758   0.75376   0.00000  Uiso   1.00
C927   C     0.64600   0.54271   0.74641   0.00000  Uiso   1.00
C928   C     0.64532   0.45814   0.74270   0.00000  Uiso   1.00
C929   C     0.35470   0.54207   0.75717   0.00000  Uiso   1.00
C930   C     0.62379   0.50050   0.74287   0.00000  Uiso   1.00
Cu931  Cu    0.50000   0.54689   0.75000   0.00000  Uiso   1.00
Cu932  Cu    0.50000   0.45311   0.75000   0.00000  Uiso   1.00
H933   H     0.58974   0.55178   0.90569   0.00000  Uiso   1.00
H934   H     0.62559   0.51635   0.85009   0.00000  Uiso   1.00
H935   H     0.58015   0.48613   0.83070   0.00000  Uiso   1.00
H936   H     0.60875   0.46505   0.87892   0.00000  Uiso   1.00
H937   H     0.41211   0.46375   0.62166   0.00000  Uiso   1.00
H938   H     0.38663   0.51845   0.55802   0.00000  Uiso   1.00
H939   H     0.41850   0.56133   0.58734   0.00000  Uiso   1.00
H940   H     0.37553   0.53587   0.61372   0.00000  Uiso   1.00
N941   N     0.50000   0.61736   0.75000   0.00000  Uiso   1.00
N942   N     0.50000   0.38264   0.75000   0.00000  Uiso   1.00
N943   N     0.57411   0.52595   0.88810   0.00000  Uiso   1.00
N944   N     0.42663   0.49259   0.60996   0.00000  Uiso   1.00
O945   O     0.43988   0.53958   0.75000   0.00000  Uiso   1.00
O946   O     0.56012   0.46042   0.75001   0.00000  Uiso   1.00
O947   O     0.56012   0.53958   0.75001   0.00000  Uiso   1.00
O948   O     0.43988   0.46042   0.75000   0.00000  Uiso   1.00
O949   O     0.49999   0.53960   0.68513   0.00000  Uiso   1.00
O950   O     0.50001   0.46040   0.81487   0.00000  Uiso   1.00
O951   O     0.50001   0.53960   0.81487   0.00000  Uiso   1.00
O952   O     0.49999   0.46040   0.68513   0.00000  Uiso   1.00
Br953  Br    0.74913   0.49443   0.87210   0.00000  Uiso   1.00
Br954  Br    0.71316   0.59887   0.78033   0.00000  Uiso   1.00
Br955  Br    0.77133   0.38890   0.67799   0.00000  Uiso   1.00
Br956  Br    0.89521   0.61110   0.82201   0.00000  Uiso   1.00
Br957  Br    0.89539   0.38924   0.82201   0.00000  Uiso   1.00
Br958  Br    0.77076   0.61017   0.67854   0.00000  Uiso   1.00
Br959  Br    0.91299   0.54120   0.63034   0.00000  Uiso   1.00
Br960  Br    0.73330   0.41052   0.93888   0.00000  Uiso   1.00
Br961  Br    0.96130   0.47616   0.56572   0.00000  Uiso   1.00
Br962  Br    0.72837   0.41574   0.54633   0.00000  Uiso   1.00
Br963  Br    0.96843   0.49812   0.96181   0.00000  Uiso   1.00
Br964  Br    0.71092   0.39892   0.77314   0.00000  Uiso   1.00
Br965  Br    0.95570   0.60210   0.72941   0.00000  Uiso   1.00
Br966  Br    0.95377   0.40104   0.72013   0.00000  Uiso   1.00
C967   C     0.75431   0.49988   0.75344   0.00000  Uiso   1.00
C968   C     0.70950   0.49972   0.75659   0.00000  Uiso   1.00
C969   C     0.80793   0.35785   0.72054   0.00000  Uiso   1.00
C970   C     0.85868   0.64213   0.77945   0.00000  Uiso   1.00
C971   C     0.85869   0.35806   0.77946   0.00000  Uiso   1.00
C972   C     0.80785   0.64185   0.72060   0.00000  Uiso   1.00
C973   C     0.83269   0.50000   0.66445   0.00000  Uiso   1.00
C974   C     0.83488   0.49987   0.83571   0.00000  Uiso   1.00
C975   C     0.87447   0.50447   0.90957   0.00000  Uiso   1.00
C976   C     0.79836   0.48610   0.59043   0.00000  Uiso   1.00
C977   C     0.83675   0.49811   0.88463   0.00000  Uiso   1.00
C978   C     0.91224   0.50017   0.74560   0.00000  Uiso   1.00
C979   C     0.83380   0.49905   0.61597   0.00000  Uiso   1.00
C980   C     0.80116   0.48485   0.90529   0.00000  Uiso   1.00
C981   C     0.87113   0.50637   0.59635   0.00000  Uiso   1.00
C982   C     0.80311   0.47444   0.95116   0.00000  Uiso   1.00
C983   C     0.87430   0.49658   0.55068   0.00000  Uiso   1.00
C984   C     0.83952   0.48511   0.97721   0.00000  Uiso   1.00
C985   C     0.83841   0.48548   0.52420   0.00000  Uiso   1.00
C986   C     0.87646   0.49698   0.95663   0.00000  Uiso   1.00
C987   C     0.80112   0.47572   0.54457   0.00000  Uiso   1.00
C988   C     0.77045   0.45227   0.97201   0.00000  Uiso   1.00
C989   C     0.76920   0.45336   0.51874   0.00000  Uiso   1.00
C990   C     0.91234   0.49534   0.53084   0.00000  Uiso   1.00
C991   C     0.93176   0.49677   0.86074   0.00000  Uiso   1.00
C992   C     0.73387   0.52890   0.59109   0.00000  Uiso   1.00
C993   C     0.91380   0.49817   0.98415   0.00000  Uiso   1.00
C994   C     0.68730   0.45758   0.75376   0.00000  Uiso   1.00
C995   C     0.97933   0.54271   0.74641   0.00000  Uiso   1.00
C996   C     0.97865   0.45814   0.74270   0.00000  Uiso   1.00
C997   C     0.68804   0.54207   0.75717   0.00000  Uiso   1.00
C998   C     0.95712   0.50050   0.74287   0.00000  Uiso   1.00
Cu999  Cu    0.83333   0.54689   0.75000   0.00000  Uiso   1.00
Cu1000 Cu    0.83333   0.45311   0.75000   0.00000  Uiso   1.00
H1001  H     0.92308   0.55178   0.90569   0.00000  Uiso   1.00
H1002  H     0.95893   0.51635   0.85009   0.00000  Uiso   1.00
H1003  H     0.91348   0.48613   0.83070   0.00000  Uiso   1.00
H1004  H     0.94208   0.46505   0.87892   0.00000  Uiso   1.00
H1005  H     0.74544   0.46375   0.62166   0.00000  Uiso   1.00
H1006  H     0.71997   0.51845   0.55802   0.00000  Uiso   1.00
H1007  H     0.75184   0.56133   0.58734   0.00000  Uiso   1.00
H1008  H     0.70886   0.53587   0.61372   0.00000  Uiso   1.00
N1009  N     0.83333   0.61736   0.75000   0.00000  Uiso   1.00
N1010  N     0.83333   0.38264   0.75000   0.00000  Uiso   1.00
N1011  N     0.90745   0.52595   0.88810   0.00000  Uiso   1.00
N1012  N     0.75996   0.49259   0.60996   0.00000  Uiso   1.00
O1013  O     0.77321   0.53958   0.75000   0.00000  Uiso   1.00
O1014  O     0.89345   0.46042   0.75001   0.00000  Uiso   1.00
O1015  O     0.89345   0.53958   0.75001   0.00000  Uiso   1.00
O1016  O     0.77321   0.46042   0.75000   0.00000  Uiso   1.00
O1017  O     0.83332   0.53960   0.68513   0.00000  Uiso   1.00
O1018  O     0.83334   0.46040   0.81487   0.00000  Uiso   1.00
O1019  O     0.83334   0.53960   0.81487   0.00000  Uiso   1.00
O1020  O     0.83332   0.46040   0.68513   0.00000  Uiso   1.00
Br1021 Br    0.08247   0.82777   0.87210   0.00000  Uiso   1.00
Br1022 Br    0.04649   0.93220   0.78033   0.00000  Uiso   1.00
Br1023 Br    0.10466   0.72223   0.67799   0.00000  Uiso   1.00
Br1024 Br    0.22854   0.94444   0.82201   0.00000  Uiso   1.00
Br1025 Br    0.22873   0.72257   0.82201   0.00000  Uiso   1.00
Br1026 Br    0.10410   0.94350   0.67854   0.00000  Uiso   1.00
Br1027 Br    0.24633   0.87453   0.63034   0.00000  Uiso   1.00
Br1028 Br    0.06663   0.74386   0.93888   0.00000  Uiso   1.00
Br1029 Br    0.29464   0.80950   0.56572   0.00000  Uiso   1.00
Br1030 Br    0.06171   0.74908   0.54633   0.00000  Uiso   1.00
Br1031 Br    0.30176   0.83146   0.96181   0.00000  Uiso   1.00
Br1032 Br    0.04425   0.73225   0.77314   0.00000  Uiso   1.00
Br1033 Br    0.28904   0.93543   0.72941   0.00000  Uiso   1.00
Br1034 Br    0.28710   0.73437   0.72013   0.00000  Uiso   1.00
C1035  C     0.08764   0.83322   0.75344   0.00000  Uiso   1.00
C1036  C     0.04284   0.83305   0.75659   0.00000  Uiso   1.00
C1037  C     0.14126   0.69118   0.72054   0.00000  Uiso   1.00
C1038  C     0.19201   0.97546   0.77945   0.00000  Uiso   1.00
C1039  C     0.19202   0.69139   0.77946   0.00000  Uiso   1.00
C1040  C     0.14118   0.97518   0.72060   0.00000  Uiso   1.00
C1041  C     0.16603   0.83333   0.66445   0.00000  Uiso   1.00
C1042  C     0.16821   0.83320   0.83571   0.00000  Uiso   1.00
C1043  C     0.20780   0.83780   0.90957   0.00000  Uiso   1.00
C1044  C     0.13169   0.81943   0.59043   0.00000  Uiso   1.00
C1045  C     0.17009   0.83144   0.88463   0.00000  Uiso   1.00
C1046  C     0.24557   0.83350   0.74560   0.00000  Uiso   1.00
C1047  C     0.16713   0.83238   0.61597   0.00000  Uiso   1.00
C1048  C     0.13449   0.81819   0.90529   0.00000  Uiso   1.00
C1049  C     0.20446   0.83970   0.59635   0.00000  Uiso   1.00
C1050  C     0.13644   0.80777   0.95116   0.00000  Uiso   1.00
C1051  C     0.20763   0.82992   0.55068   0.00000  Uiso   1.00
C1052  C     0.17285   0.81844   0.97721   0.00000  Uiso   1.00
C1053  C     0.17174   0.81881   0.52420   0.00000  Uiso   1.00
C1054  C     0.20980   0.83031   0.95663   0.00000  Uiso   1.00
C1055  C     0.13445   0.80905   0.54457   0.00000  Uiso   1.00
C1056  C     0.10379   0.78561   0.97201   0.00000  Uiso   1.00
C1057  C     0.10253   0.78670   0.51874   0.00000  Uiso   1.00
C1058  C     0.24567   0.82868   0.53084   0.00000  Uiso   1.00
C1059  C     0.26510   0.83011   0.86074   0.00000  Uiso   1.00
C1060  C     0.06720   0.86223   0.59109   0.00000  Uiso   1.00
C1061  C     0.24713   0.83151   0.98415   0.00000  Uiso   1.00
C1062  C     0.02063   0.79091   0.75376   0.00000  Uiso   1.00
C1063  C     0.31267   0.87605   0.74641   0.00000  Uiso   1.00
C1064  C     0.31199   0.79147   0.74270   0.00000  Uiso   1.00
C1065  C     0.02137   0.87540   0.75717   0.00000  Uiso   1.00
C1066  C     0.29045   0.83383   0.74287   0.00000  Uiso   1.00
Cu1067 Cu    0.16667   0.88022   0.75000   0.00000  Uiso   1.00
Cu1068 Cu    0.16667   0.78645   0.75000   0.00000  Uiso   1.00
H1069  H     0.25641   0.88511   0.90569   0.00000  Uiso   1.00
H1070  H     0.29226   0.84968   0.85009   0.00000  Uiso   1.00
H1071  H     0.24681   0.81946   0.83070   0.00000  Uiso   1.00
H1072  H     0.27542   0.79838   0.87892   0.00000  Uiso   1.00
H1073  H     0.07877   0.79709   0.62166   0.00000  Uiso   1.00
H1074  H     0.05330   0.85179   0.55802   0.00000  Uiso   1.00
H1075  H     0.08517   0.89466   0.58734   0.00000  Uiso   1.00
H1076  H     0.04220   0.86920   0.61372   0.00000  Uiso   1.00
N1077  N     0.16667   0.95069   0.75000   0.00000  Uiso   1.00
N1078  N     0.16667   0.71598   0.75000   0.00000  Uiso   1.00
N1079  N     0.24078   0.85928   0.88810   0.00000  Uiso   1.00
N1080  N     0.09330   0.82592   0.60996   0.00000  Uiso   1.00
O1081  O     0.10655   0.87291   0.75000   0.00000  Uiso   1.00
O1082  O     0.22679   0.79375   0.75001   0.00000  Uiso   1.00
O1083  O     0.22679   0.87291   0.75001   0.00000  Uiso   1.00
O1084  O     0.10655   0.79375   0.75000   0.00000  Uiso   1.00
O1085  O     0.16666   0.87293   0.68513   0.00000  Uiso   1.00
O1086  O     0.16668   0.79373   0.81487   0.00000  Uiso   1.00
O1087  O     0.16668   0.87293   0.81487   0.00000  Uiso   1.00
O1088  O     0.16666   0.79373   0.68513   0.00000  Uiso   1.00
Br1089 Br    0.41580   0.82777   0.87210   0.00000  Uiso   1.00
Br1090 Br    0.37983   0.93220   0.78033   0.00000  Uiso   1.00
Br1091 Br    0.43800   0.72223   0.67799   0.00000  Uiso   1.00
Br1092 Br    0.56187   0.94444   0.82201   0.00000  Uiso   1.00
Br1093 Br    0.56206   0.72257   0.82201   0.00000  Uiso   1.00
Br1094 Br    0.43743   0.94350   0.67854   0.00000  Uiso   1.00
Br1095 Br    0.57966   0.87453   0.63034   0.00000  Uiso   1.00
Br1096 Br    0.39997   0.74386   0.93888   0.00000  Uiso   1.00
Br1097 Br    0.62797   0.80950   0.56572   0.00000  Uiso   1.00
Br1098 Br    0.39504   0.74908   0.54633   0.00000  Uiso   1.00
Br1099 Br    0.63510   0.83146   0.96181   0.00000  Uiso   1.00
Br1100 Br    0.37759   0.73225   0.77314   0.00000  Uiso   1.00
Br1101 Br    0.62237   0.93543   0.72941   0.00000  Uiso   1.00
Br1102 Br    0.62043   0.73437   0.72013   0.00000  Uiso   1.00
C1103  C     0.42098   0.83322   0.75344   0.00000  Uiso   1.00
C1104  C     0.37617   0.83305   0.75659   0.00000  Uiso   1.00
C1105  C     0.47459   0.69118   0.72054   0.00000  Uiso   1.00
C1106  C     0.52534   0.97546   0.77945   0.00000  Uiso   1.00
C1107  C     0.52536   0.69139   0.77946   0.00000  Uiso   1.00
C1108  C     0.47452   0.97518   0.72060   0.00000  Uiso   1.00
C1109  C     0.49936   0.83333   0.66445   0.00000  Uiso   1.00
C1110  C     0.50154   0.83320   0.83571   0.00000  Uiso   1.00
C1111  C     0.54113   0.83780   0.90957   0.00000  Uiso   1.00
C1112  C     0.46503   0.81943   0.59043   0.00000  Uiso   1.00
C1113  C     0.50342   0.83144   0.88463   0.00000  Uiso   1.00
C1114  C     0.57890   0.83350   0.74560   0.00000  Uiso   1.00
C1115  C     0.50047   0.83238   0.61597   0.00000  Uiso   1.00
C1116  C     0.46783   0.81819   0.90529   0.00000  Uiso   1.00
C1117  C     0.53779   0.83970   0.59635   0.00000  Uiso   1.00
C1118  C     0.46978   0.80777   0.95116   0.00000  Uiso   1.00
C1119  C     0.54097   0.82992   0.55068   0.00000  Uiso   1.00
C1120  C     0.50619   0.81844   0.97721   0.00000  Uiso   1.00
C1121  C     0.50507   0.81881   0.52420   0.00000  Uiso   1.00
C1122  C     0.54313   0.83031   0.95663   0.00000  Uiso   1.00
C1123  C     0.46778   0.80905   0.54457   0.00000  Uiso   1.00
C1124  C     0.43712   0.78561   0.97201   0.00000  Uiso   1.00
C1125  C     0.43586   0.78670   0.51874   0.00000  Uiso   1.00
C1126  C     0.57900   0.82868   0.53084   0.00000  Uiso   1.00
C1127  C     0.59843   0.83011   0.86074   0.00000  Uiso   1.00
C1128  C     0.40054   0.86223   0.59109   0.00000  Uiso   1.00
C1129  C     0.58046   0.83151   0.98415   0.00000  Uiso   1.00
C1130  C     0.35397   0.79091   0.75376   0.00000  Uiso   1.00
C1131  C     0.64600   0.87605   0.74641   0.00000  Uiso   1.00
C1132  C     0.64532   0.79147   0.74270   0.00000  Uiso   1.00
C1133  C     0.35470   0.87540   0.75717   0.00000  Uiso   1.00
C1134  C     0.62379   0.83383   0.74287   0.00000  Uiso   1.00
Cu1135 Cu    0.50000   0.88022   0.75000   0.00000  Uiso   1.00
Cu1136 Cu    0.50000   0.78645   0.75000   0.00000  Uiso   1.00
H1137  H     0.58974   0.88511   0.90569   0.00000  Uiso   1.00
H1138  H     0.62559   0.84968   0.85009   0.00000  Uiso   1.00
H1139  H     0.58015   0.81946   0.83070   0.00000  Uiso   1.00
H1140  H     0.60875   0.79838   0.87892   0.00000  Uiso   1.00
H1141  H     0.41211   0.79709   0.62166   0.00000  Uiso   1.00
H1142  H     0.38663   0.85179   0.55802   0.00000  Uiso   1.00
H1143  H     0.41850   0.89466   0.58734   0.00000  Uiso   1.00
H1144  H     0.37553   0.86920   0.61372   0.00000  Uiso   1.00
N1145  N     0.50000   0.95069   0.75000   0.00000  Uiso   1.00
N1146  N     0.50000   0.71598   0.75000   0.00000  Uiso   1.00
N1147  N     0.57411   0.85928   0.88810   0.00000  Uiso   1.00
N1148  N     0.42663   0.82592   0.60996   0.00000  Uiso   1.00
O1149  O     0.43988   0.87291   0.75000   0.00000  Uiso   1.00
O1150  O     0.56012   0.79375   0.75001   0.00000  Uiso   1.00
O1151  O     0.56012   0.87291   0.75001   0.00000  Uiso   1.00
O1152  O     0.43988   0.79375   0.75000   0.00000  Uiso   1.00
O1153  O     0.49999   0.87293   0.68513   0.00000  Uiso   1.00
O1154  O     0.50001   0.79373   0.81487   0.00000  Uiso   1.00
O1155  O     0.50001   0.87293   0.81487   0.00000  Uiso   1.00
O1156  O     0.49999   0.79373   0.68513   0.00000  Uiso   1.00
Br1157 Br    0.74913   0.82777   0.87210   0.00000  Uiso   1.00
Br1158 Br    0.71316   0.93220   0.78033   0.00000  Uiso   1.00
Br1159 Br    0.77133   0.72223   0.67799   0.00000  Uiso   1.00
Br1160 Br    0.89521   0.94444   0.82201   0.00000  Uiso   1.00
Br1161 Br    0.89539   0.72257   0.82201   0.00000  Uiso   1.00
Br1162 Br    0.77076   0.94350   0.67854   0.00000  Uiso   1.00
Br1163 Br    0.91299   0.87453   0.63034   0.00000  Uiso   1.00
Br1164 Br    0.73330   0.74386   0.93888   0.00000  Uiso   1.00
Br1165 Br    0.96130   0.80950   0.56572   0.00000  Uiso   1.00
Br1166 Br    0.72837   0.74908   0.54633   0.00000  Uiso   1.00
Br1167 Br    0.96843   0.83146   0.96181   0.00000  Uiso   1.00
Br1168 Br    0.71092   0.73225   0.77314   0.00000  Uiso   1.00
Br1169 Br    0.95570   0.93543   0.72941   0.00000  Uiso   1.00
Br1170 Br    0.95377   0.73437   0.72013   0.00000  Uiso   1.00
C1171  C     0.75431   0.83322   0.75344   0.00000  Uiso   1.00
C1172  C     0.70950   0.83305   0.75659   0.00000  Uiso   1.00
C1173  C     0.80793   0.69118   0.72054   0.00000  Uiso   1.00
C1174  C     0.85868   0.97546   0.77945   0.00000  Uiso   1.00
C1175  C     0.85869   0.69139   0.77946   0.00000  Uiso   1.00
C1176  C     0.80785   0.97518   0.72060   0.00000  Uiso   1.00
C1177  C     0.83269   0.83333   0.66445   0.00000  Uiso   1.00
C1178  C     0.83488   0.83320   0.83571   0.00000  Uiso   1.00
C1179  C     0.87447   0.83780   0.90957   0.00000  Uiso   1.00
C1180  C     0.79836   0.81943   0.59043   0.00000  Uiso   1.00
C1181  C     0.83675   0.83144   0.88463   0.00000  Uiso   1.00
C1182  C     0.91224   0.83350   0.74560   0.00000  Uiso   1.00
C1183  C     0.83380   0.83238   0.61597   0.00000  Uiso   1.00
C1184  C     0.80116   0.81819   0.90529   0.00000  Uiso   1.00
C1185  C     0.87113   0.83970   0.59635   0.00000  Uiso   1.00
C1186  C     0.80311   0.80777   0.95116   0.00000  Uiso   1.00
C1187  C     0.87430   0.82992   0.55068   0.00000  Uiso   1.00
C1188  C     0.83952   0.81844   0.97721   0.00000  Uiso   1.00
C1189  C     0.83841   0.81881   0.52420   0.00000  Uiso   1.00
C1190  C     0.87646   0.83031   0.95663   0.00000  Uiso   1.00
C1191  C     0.80112   0.80905   0.54457   0.00000  Uiso   1.00
C1192  C     0.77045   0.78561   0.97201   0.00000  Uiso   1.00
C1193  C     0.76920   0.78670   0.51874   0.00000  Uiso   1.00
C1194  C     0.91234   0.82868   0.53084   0.00000  Uiso   1.00
C1195  C     0.93176   0.83011   0.86074   0.00000  Uiso   1.00
C1196  C     0.73387   0.86223   0.59109   0.00000  Uiso   1.00
C1197  C     0.91380   0.83151   0.98415   0.00000  Uiso   1.00
C1198  C     0.68730   0.79091   0.75376   0.00000  Uiso   1.00
C1199  C     0.97933   0.87605   0.74641   0.00000  Uiso   1.00
C1200  C     0.97865   0.79147   0.74270   0.00000  Uiso   1.00
C1201  C     0.68804   0.87540   0.75717   0.00000  Uiso   1.00
C1202  C     0.95712   0.83383   0.74287   0.00000  Uiso   1.00
Cu1203 Cu    0.83333   0.88022   0.75000   0.00000  Uiso   1.00
Cu1204 Cu    0.83333   0.78645   0.75000   0.00000  Uiso   1.00
H1205  H     0.92308   0.88511   0.90569   0.00000  Uiso   1.00
H1206  H     0.95893   0.84968   0.85009   0.00000  Uiso   1.00
H1207  H     0.91348   0.81946   0.83070   0.00000  Uiso   1.00
H1208  H     0.94208   0.79838   0.87892   0.00000  Uiso   1.00
H1209  H     0.74544   0.79709   0.62166   0.00000  Uiso   1.00
H1210  H     0.71997   0.85179   0.55802   0.00000  Uiso   1.00
H1211  H     0.75184   0.89466   0.58734   0.00000  Uiso   1.00
H1212  H     0.70886   0.86920   0.61372   0.00000  Uiso   1.00
N1213  N     0.83333   0.95069   0.75000   0.00000  Uiso   1.00
N1214  N     0.83333   0.71598   0.75000   0.00000  Uiso   1.00
N1215  N     0.90745   0.85928   0.88810   0.00000  Uiso   1.00
N1216  N     0.75996   0.82592   0.60996   0.00000  Uiso   1.00
O1217  O     0.77321   0.87291   0.75000   0.00000  Uiso   1.00
O1218  O     0.89345   0.79375   0.75001   0.00000  Uiso   1.00
O1219  O     0.89345   0.87291   0.75001   0.00000  Uiso   1.00
O1220  O     0.77321   0.79375   0.75000   0.00000  Uiso   1.00
O1221  O     0.83332   0.87293   0.68513   0.00000  Uiso   1.00
O1222  O     0.83334   0.79373   0.81487   0.00000  Uiso   1.00
O1223  O     0.83334   0.87293   0.81487   0.00000  Uiso   1.00
O1224  O     0.83332   0.79373   0.68513   0.00000  Uiso   1.00
loop_
_geom_bond_atom_site_label_1
_geom_bond_atom_site_label_2
_geom_bond_distance
_geom_bond_site_symmetry_2
_ccdc_geom_bond_type
Br1    C28     1.940   .     S
Br2    C45     1.941   .     S
Br3    C17     1.922   .     S
Br4    C18     1.920   .     S
Br5    C19     1.922   .     S
Br6    C20     1.927   .     S
Br7    C29     1.936   .     S
Br8    C36     1.939   .     S
Br9    C38     1.942   .     S
Br10   C37     1.936   .     S
Br11   C41     1.940   .     S
Br12   C42     1.938   .     S
Br13   C43     1.938   .     S
Br14   C44     1.939   .     S
C15    O64     1.304   .     A
C15    C16     1.470   .     S
C15    O61     1.305   .     A
C16    C45     1.412   .     A
C16    C42     1.413   .     A
C17    N58     1.376   .     A
C17    C428    1.423   1_545 S
C18    N57     1.374   .     A
C18    C223    1.421   .     S
C19    N58     1.375   .     A
C19    C426    1.421   1_545 S
C20    N57     1.375   .     A
C20    C221    1.423   .     S
C21    C27     1.458   .     S
C21    O68     1.299   .     A
C21    O65     1.301   .     A
C22    O67     1.305   .     A
C22    O66     1.299   .     A
C22    C25     1.466   .     S
C23    C25     1.415   .     A
C23    C34     1.426   .     A
C23    N59     1.424   .     S
C24    N60     1.426   .     S
C24    C27     1.400   .     A
C24    C35     1.417   .     A
C25    C28     1.399   .     A
C26    O62     1.308   .     A
C26    C46     1.472   .     S
C26    O63     1.305   .     A
C27    C29     1.398   .     A
C28    C30     1.406   .     A
C29    C31     1.409   .     A
C30    C36     1.416   .     A
C30    C32     1.417   .     A
C31    C33     1.413   .     A
C31    C38     1.407   .     A
C32    C34     1.426   .     A
C32    C645    1.413   .     S
C33    C35     1.419   .     A
C33    C644    1.413   1_554 S
C34    C41     1.433   .     A
C35    C37     1.416   .     A
C36    C649    1.406   .     S
C37    C648    1.406   1_554 S
C38    C653    1.407   1_554 S
C39    H51     1.096   .     S
C39    N59     1.447   .     S
C39    H52     1.109   .     S
C39    H50     1.111   .     S
C40    N60     1.447   .     S
C40    H55     1.111   .     S
C40    H54     1.109   .     S
C40    H56     1.110   .     S
C41    C650    1.407   .     S
C42    C180    1.391   1_455 S
C43    C46     1.415   .     A
C43    C113    1.391   .     S
C44    C46     1.413   .     A
C44    C110    1.391   .     S
C45    C179    1.391   1_455 S
Cu47   O61     1.972   .     S
Cu47   N57     2.033   .     S
Cu47   Cu48    2.705   .     S
Cu47   O67     1.958   .     S
Cu47   O65     1.958   .     S
Cu47   O63     1.974   .     S
Cu48   N58     2.033   .     S
Cu48   O62     1.972   .     S
Cu48   O68     1.958   .     S
Cu48   O64     1.974   .     S
Cu48   O66     1.958   .     S
H49    N59     1.030   .     S
H53    N60     1.027   .     S
Br69   C96     1.940   .     S
Br70   C113    1.941   .     S
Br71   C85     1.922   .     S
Br72   C86     1.920   .     S
Br73   C87     1.922   .     S
Br74   C88     1.927   .     S
Br75   C97     1.936   .     S
Br76   C104    1.939   .     S
Br77   C106    1.942   .     S
Br78   C105    1.936   .     S
Br79   C109    1.940   .     S
Br80   C110    1.938   .     S
Br81   C111    1.938   .     S
Br82   C112    1.939   .     S
C83    O132    1.304   .     A
C83    C84     1.470   .     S
C83    O129    1.305   .     A
C84    C113    1.412   .     A
C84    C110    1.413   .     A
C85    N126    1.376   .     A
C85    C496    1.423   1_545 S
C86    N125    1.374   .     A
C86    C291    1.421   .     S
C87    N126    1.375   .     A
C87    C494    1.421   1_545 S
C88    N125    1.375   .     A
C88    C289    1.423   .     S
C89    C95     1.458   .     S
C89    O136    1.299   .     A
C89    O133    1.301   .     A
C90    O135    1.305   .     A
C90    O134    1.299   .     A
C90    C93     1.466   .     S
C91    C93     1.415   .     A
C91    C102    1.426   .     A
C91    N127    1.424   .     S
C92    N128    1.426   .     S
C92    C95     1.400   .     A
C92    C103    1.417   .     A
C93    C96     1.399   .     A
C94    O130    1.308   .     A
C94    C114    1.472   .     S
C94    O131    1.305   .     A
C95    C97     1.398   .     A
C96    C98     1.406   .     A
C97    C99     1.409   .     A
C98    C104    1.416   .     A
C98    C100    1.417   .     A
C99    C101    1.413   .     A
C99    C106    1.407   .     A
C100   C102    1.426   .     A
C100   C713    1.413   .     S
C101   C103    1.419   .     A
C101   C712    1.413   1_554 S
C102   C109    1.433   .     A
C103   C105    1.416   .     A
C104   C717    1.406   .     S
C105   C716    1.406   1_554 S
C106   C721    1.407   1_554 S
C107   H119    1.096   .     S
C107   N127    1.447   .     S
C107   H120    1.109   .     S
C107   H118    1.111   .     S
C108   N128    1.447   .     S
C108   H123    1.111   .     S
C108   H122    1.109   .     S
C108   H124    1.110   .     S
C109   C718    1.407   .     S
C111   C114    1.415   .     A
C111   C181    1.391   .     S
C112   C114    1.413   .     A
C112   C178    1.391   .     S
Cu115  O129    1.972   .     S
Cu115  N125    2.033   .     S
Cu115  Cu116   2.705   .     S
Cu115  O135    1.958   .     S
Cu115  O133    1.958   .     S
Cu115  O131    1.974   .     S
Cu116  N126    2.033   .     S
Cu116  O130    1.972   .     S
Cu116  O136    1.958   .     S
Cu116  O132    1.974   .     S
Cu116  O134    1.958   .     S
H117   N127    1.030   .     S
H121   N128    1.027   .     S
Br137  C164    1.940   .     S
Br138  C181    1.941   .     S
Br139  C153    1.922   .     S
Br140  C154    1.920   .     S
Br141  C155    1.922   .     S
Br142  C156    1.927   .     S
Br143  C165    1.936   .     S
Br144  C172    1.939   .     S
Br145  C174    1.942   .     S
Br146  C173    1.936   .     S
Br147  C177    1.940   .     S
Br148  C178    1.938   .     S
Br149  C179    1.938   .     S
Br150  C180    1.939   .     S
C151   O200    1.304   .     A
C151   C152    1.470   .     S
C151   O197    1.305   .     A
C152   C181    1.412   .     A
C152   C178    1.413   .     A
C153   N194    1.376   .     A
C153   C564    1.423   1_545 S
C154   N193    1.374   .     A
C154   C359    1.421   .     S
C155   N194    1.375   .     A
C155   C562    1.421   1_545 S
C156   N193    1.375   .     A
C156   C357    1.423   .     S
C157   C163    1.458   .     S
C157   O204    1.299   .     A
C157   O201    1.301   .     A
C158   O203    1.305   .     A
C158   O202    1.299   .     A
C158   C161    1.466   .     S
C159   C161    1.415   .     A
C159   C170    1.426   .     A
C159   N195    1.424   .     S
C160   N196    1.426   .     S
C160   C163    1.400   .     A
C160   C171    1.417   .     A
C161   C164    1.399   .     A
C162   O198    1.308   .     A
C162   C182    1.472   .     S
C162   O199    1.305   .     A
C163   C165    1.398   .     A
C164   C166    1.406   .     A
C165   C167    1.409   .     A
C166   C172    1.416   .     A
C166   C168    1.417   .     A
C167   C169    1.413   .     A
C167   C174    1.407   .     A
C168   C170    1.426   .     A
C168   C781    1.413   .     S
C169   C171    1.419   .     A
C169   C780    1.413   1_554 S
C170   C177    1.433   .     A
C171   C173    1.416   .     A
C172   C785    1.406   .     S
C173   C784    1.406   1_554 S
C174   C789    1.407   1_554 S
C175   H187    1.096   .     S
C175   N195    1.447   .     S
C175   H188    1.109   .     S
C175   H186    1.111   .     S
C176   N196    1.447   .     S
C176   H191    1.111   .     S
C176   H190    1.109   .     S
C176   H192    1.110   .     S
C177   C786    1.407   .     S
C179   C182    1.415   .     A
C179   C45     1.391   1_655 S
C180   C182    1.413   .     A
C180   C42     1.391   1_655 S
Cu183  O197    1.972   .     S
Cu183  N193    2.033   .     S
Cu183  Cu184   2.705   .     S
Cu183  O203    1.958   .     S
Cu183  O201    1.958   .     S
Cu183  O199    1.974   .     S
Cu184  N194    2.033   .     S
Cu184  O198    1.972   .     S
Cu184  O204    1.958   .     S
Cu184  O200    1.974   .     S
Cu184  O202    1.958   .     S
H185   N195    1.030   .     S
H189   N196    1.027   .     S
Br205  C232    1.940   .     S
Br206  C249    1.941   .     S
Br207  C221    1.922   .     S
Br208  C222    1.920   .     S
Br209  C223    1.922   .     S
Br210  C224    1.927   .     S
Br211  C233    1.936   .     S
Br212  C240    1.939   .     S
Br213  C242    1.942   .     S
Br214  C241    1.936   .     S
Br215  C245    1.940   .     S
Br216  C246    1.938   .     S
Br217  C247    1.938   .     S
Br218  C248    1.939   .     S
C219   O268    1.304   .     A
C219   C220    1.470   .     S
C219   O265    1.305   .     A
C220   C249    1.412   .     A
C220   C246    1.413   .     A
C221   N262    1.376   .     A
C222   N261    1.374   .     A
C222   C427    1.421   .     S
C223   N262    1.375   .     A
C224   N261    1.375   .     A
C224   C425    1.423   .     S
C225   C231    1.458   .     S
C225   O272    1.299   .     A
C225   O269    1.301   .     A
C226   O271    1.305   .     A
C226   O270    1.299   .     A
C226   C229    1.466   .     S
C227   C229    1.415   .     A
C227   C238    1.426   .     A
C227   N263    1.424   .     S
C228   N264    1.426   .     S
C228   C231    1.400   .     A
C228   C239    1.417   .     A
C229   C232    1.399   .     A
C230   O266    1.308   .     A
C230   C250    1.472   .     S
C230   O267    1.305   .     A
C231   C233    1.398   .     A
C232   C234    1.406   .     A
C233   C235    1.409   .     A
C234   C240    1.416   .     A
C234   C236    1.417   .     A
C235   C237    1.413   .     A
C235   C242    1.407   .     A
C236   C238    1.426   .     A
C236   C849    1.413   .     S
C237   C239    1.419   .     A
C237   C848    1.413   1_554 S
C238   C245    1.433   .     A
C239   C241    1.416   .     A
C240   C853    1.406   .     S
C241   C852    1.406   1_554 S
C242   C857    1.407   1_554 S
C243   H255    1.096   .     S
C243   N263    1.447   .     S
C243   H256    1.109   .     S
C243   H254    1.111   .     S
C244   N264    1.447   .     S
C244   H259    1.111   .     S
C244   H258    1.109   .     S
C244   H260    1.110   .     S
C245   C854    1.407   .     S
C246   C384    1.391   1_455 S
C247   C250    1.415   .     A
C247   C317    1.391   .     S
C248   C250    1.413   .     A
C248   C314    1.391   .     S
C249   C383    1.391   1_455 S
Cu251  O265    1.972   .     S
Cu251  N261    2.033   .     S
Cu251  Cu252   2.705   .     S
Cu251  O271    1.958   .     S
Cu251  O269    1.958   .     S
Cu251  O267    1.974   .     S
Cu252  N262    2.033   .     S
Cu252  O266    1.972   .     S
Cu252  O272    1.958   .     S
Cu252  O268    1.974   .     S
Cu252  O270    1.958   .     S
H253   N263    1.030   .     S
H257   N264    1.027   .     S
Br273  C300    1.940   .     S
Br274  C317    1.941   .     S
Br275  C289    1.922   .     S
Br276  C290    1.920   .     S
Br277  C291    1.922   .     S
Br278  C292    1.927   .     S
Br279  C301    1.936   .     S
Br280  C308    1.939   .     S
Br281  C310    1.942   .     S
Br282  C309    1.936   .     S
Br283  C313    1.940   .     S
Br284  C314    1.938   .     S
Br285  C315    1.938   .     S
Br286  C316    1.939   .     S
C287   O336    1.304   .     A
C287   C288    1.470   .     S
C287   O333    1.305   .     A
C288   C317    1.412   .     A
C288   C314    1.413   .     A
C289   N330    1.376   .     A
C290   N329    1.374   .     A
C290   C495    1.421   .     S
C291   N330    1.375   .     A
C292   N329    1.375   .     A
C292   C493    1.423   .     S
C293   C299    1.458   .     S
C293   O340    1.299   .     A
C293   O337    1.301   .     A
C294   O339    1.305   .     A
C294   O338    1.299   .     A
C294   C297    1.466   .     S
C295   C297    1.415   .     A
C295   C306    1.426   .     A
C295   N331    1.424   .     S
C296   N332    1.426   .     S
C296   C299    1.400   .     A
C296   C307    1.417   .     A
C297   C300    1.399   .     A
C298   O334    1.308   .     A
C298   C318    1.472   .     S
C298   O335    1.305   .     A
C299   C301    1.398   .     A
C300   C302    1.406   .     A
C301   C303    1.409   .     A
C302   C308    1.416   .     A
C302   C304    1.417   .     A
C303   C305    1.413   .     A
C303   C310    1.407   .     A
C304   C306    1.426   .     A
C304   C917    1.413   .     S
C305   C307    1.419   .     A
C305   C916    1.413   1_554 S
C306   C313    1.433   .     A
C307   C309    1.416   .     A
C308   C921    1.406   .     S
C309   C920    1.406   1_554 S
C310   C925    1.407   1_554 S
C311   H323    1.096   .     S
C311   N331    1.447   .     S
C311   H324    1.109   .     S
C311   H322    1.111   .     S
C312   N332    1.447   .     S
C312   H327    1.111   .     S
C312   H326    1.109   .     S
C312   H328    1.110   .     S
C313   C922    1.407   .     S
C315   C318    1.415   .     A
C315   C385    1.391   .     S
C316   C318    1.413   .     A
C316   C382    1.391   .     S
Cu319  O333    1.972   .     S
Cu319  N329    2.033   .     S
Cu319  Cu320   2.705   .     S
Cu319  O339    1.958   .     S
Cu319  O337    1.958   .     S
Cu319  O335    1.974   .     S
Cu320  N330    2.033   .     S
Cu320  O334    1.972   .     S
Cu320  O340    1.958   .     S
Cu320  O336    1.974   .     S
Cu320  O338    1.958   .     S
H321   N331    1.030   .     S
H325   N332    1.027   .     S
Br341  C368    1.940   .     S
Br342  C385    1.941   .     S
Br343  C357    1.922   .     S
Br344  C358    1.920   .     S
Br345  C359    1.922   .     S
Br346  C360    1.927   .     S
Br347  C369    1.936   .     S
Br348  C376    1.939   .     S
Br349  C378    1.942   .     S
Br350  C377    1.936   .     S
Br351  C381    1.940   .     S
Br352  C382    1.938   .     S
Br353  C383    1.938   .     S
Br354  C384    1.939   .     S
C355   O404    1.304   .     A
C355   C356    1.470   .     S
C355   O401    1.305   .     A
C356   C385    1.412   .     A
C356   C382    1.413   .     A
C357   N398    1.376   .     A
C358   N397    1.374   .     A
C358   C563    1.421   .     S
C359   N398    1.375   .     A
C360   N397    1.375   .     A
C360   C561    1.423   .     S
C361   C367    1.458   .     S
C361   O408    1.299   .     A
C361   O405    1.301   .     A
C362   O407    1.305   .     A
C362   O406    1.299   .     A
C362   C365    1.466   .     S
C363   C365    1.415   .     A
C363   C374    1.426   .     A
C363   N399    1.424   .     S
C364   N400    1.426   .     S
C364   C367    1.400   .     A
C364   C375    1.417   .     A
C365   C368    1.399   .     A
C366   O402    1.308   .     A
C366   C386    1.472   .     S
C366   O403    1.305   .     A
C367   C369    1.398   .     A
C368   C370    1.406   .     A
C369   C371    1.409   .     A
C370   C376    1.416   .     A
C370   C372    1.417   .     A
C371   C373    1.413   .     A
C371   C378    1.407   .     A
C372   C374    1.426   .     A
C372   C985    1.413   .     S
C373   C375    1.419   .     A
C373   C984    1.413   1_554 S
C374   C381    1.433   .     A
C375   C377    1.416   .     A
C376   C989    1.406   .     S
C377   C988    1.406   1_554 S
C378   C993    1.407   1_554 S
C379   H391    1.096   .     S
C379   N399    1.447   .     S
C379   H392    1.109   .     S
C379   H390    1.111   .     S
C380   N400    1.447   .     S
C380   H395    1.111   .     S
C380   H394    1.109   .     S
C380   H396    1.110   .     S
C381   C990    1.407   .     S
C383   C386    1.415   .     A
C383   C249    1.391   1_655 S
C384   C386    1.413   .     A
C384   C246    1.391   1_655 S
Cu387  O401    1.972   .     S
Cu387  N397    2.033   .     S
Cu387  Cu388   2.705   .     S
Cu387  O407    1.958   .     S
Cu387  O405    1.958   .     S
Cu387  O403    1.974   .     S
Cu388  N398    2.033   .     S
Cu388  O402    1.972   .     S
Cu388  O408    1.958   .     S
Cu388  O404    1.974   .     S
Cu388  O406    1.958   .     S
H389   N399    1.030   .     S
H393   N400    1.027   .     S
Br409  C436    1.940   .     S
Br410  C453    1.941   .     S
Br411  C425    1.922   .     S
Br412  C426    1.920   .     S
Br413  C427    1.922   .     S
Br414  C428    1.927   .     S
Br415  C437    1.936   .     S
Br416  C444    1.939   .     S
Br417  C446    1.942   .     S
Br418  C445    1.936   .     S
Br419  C449    1.940   .     S
Br420  C450    1.938   .     S
Br421  C451    1.938   .     S
Br422  C452    1.939   .     S
C423   O472    1.304   .     A
C423   C424    1.470   .     S
C423   O469    1.305   .     A
C424   C453    1.412   .     A
C424   C450    1.413   .     A
C425   N466    1.376   .     A
C426   N465    1.374   .     A
C426   C19     1.421   1_565 S
C427   N466    1.375   .     A
C428   N465    1.375   .     A
C428   C17     1.423   1_565 S
C429   C435    1.458   .     S
C429   O476    1.299   .     A
C429   O473    1.301   .     A
C430   O475    1.305   .     A
C430   O474    1.299   .     A
C430   C433    1.466   .     S
C431   C433    1.415   .     A
C431   C442    1.426   .     A
C431   N467    1.424   .     S
C432   N468    1.426   .     S
C432   C435    1.400   .     A
C432   C443    1.417   .     A
C433   C436    1.399   .     A
C434   O470    1.308   .     A
C434   C454    1.472   .     S
C434   O471    1.305   .     A
C435   C437    1.398   .     A
C436   C438    1.406   .     A
C437   C439    1.409   .     A
C438   C444    1.416   .     A
C438   C440    1.417   .     A
C439   C441    1.413   .     A
C439   C446    1.407   .     A
C440   C442    1.426   .     A
C440   C1053   1.413   .     S
C441   C443    1.419   .     A
C441   C1052   1.413   1_554 S
C442   C449    1.433   .     A
C443   C445    1.416   .     A
C444   C1057   1.406   .     S
C445   C1056   1.406   1_554 S
C446   C1061   1.407   1_554 S
C447   H459    1.096   .     S
C447   N467    1.447   .     S
C447   H460    1.109   .     S
C447   H458    1.111   .     S
C448   N468    1.447   .     S
C448   H463    1.111   .     S
C448   H462    1.109   .     S
C448   H464    1.110   .     S
C449   C1058   1.407   .     S
C450   C588    1.391   1_455 S
C451   C454    1.415   .     A
C451   C521    1.391   .     S
C452   C454    1.413   .     A
C452   C518    1.391   .     S
C453   C587    1.391   1_455 S
Cu455  O469    1.972   .     S
Cu455  N465    2.033   .     S
Cu455  Cu456   2.705   .     S
Cu455  O475    1.958   .     S
Cu455  O473    1.958   .     S
Cu455  O471    1.974   .     S
Cu456  N466    2.033   .     S
Cu456  O470    1.972   .     S
Cu456  O476    1.958   .     S
Cu456  O472    1.974   .     S
Cu456  O474    1.958   .     S
H457   N467    1.030   .     S
H461   N468    1.027   .     S
Br477  C504    1.940   .     S
Br478  C521    1.941   .     S
Br479  C493    1.922   .     S
Br480  C494    1.920   .     S
Br481  C495    1.922   .     S
Br482  C496    1.927   .     S
Br483  C505    1.936   .     S
Br484  C512    1.939   .     S
Br485  C514    1.942   .     S
Br486  C513    1.936   .     S
Br487  C517    1.940   .     S
Br488  C518    1.938   .     S
Br489  C519    1.938   .     S
Br490  C520    1.939   .     S
C491   O540    1.304   .     A
C491   C492    1.470   .     S
C491   O537    1.305   .     A
C492   C521    1.412   .     A
C492   C518    1.413   .     A
C493   N534    1.376   .     A
C494   N533    1.374   .     A
C494   C87     1.421   1_565 S
C495   N534    1.375   .     A
C496   N533    1.375   .     A
C496   C85     1.423   1_565 S
C497   C503    1.458   .     S
C497   O544    1.299   .     A
C497   O541    1.301   .     A
C498   O543    1.305   .     A
C498   O542    1.299   .     A
C498   C501    1.466   .     S
C499   C501    1.415   .     A
C499   C510    1.426   .     A
C499   N535    1.424   .     S
C500   N536    1.426   .     S
C500   C503    1.400   .     A
C500   C511    1.417   .     A
C501   C504    1.399   .     A
C502   O538    1.308   .     A
C502   C522    1.472   .     S
C502   O539    1.305   .     A
C503   C505    1.398   .     A
C504   C506    1.406   .     A
C505   C507    1.409   .     A
C506   C512    1.416   .     A
C506   C508    1.417   .     A
C507   C509    1.413   .     A
C507   C514    1.407   .     A
C508   C510    1.426   .     A
C508   C1121   1.413   .     S
C509   C511    1.419   .     A
C509   C1120   1.413   1_554 S
C510   C517    1.433   .     A
C511   C513    1.416   .     A
C512   C1125   1.406   .     S
C513   C1124   1.406   1_554 S
C514   C1129   1.407   1_554 S
C515   H527    1.096   .     S
C515   N535    1.447   .     S
C515   H528    1.109   .     S
C515   H526    1.111   .     S
C516   N536    1.447   .     S
C516   H531    1.111   .     S
C516   H530    1.109   .     S
C516   H532    1.110   .     S
C517   C1126   1.407   .     S
C519   C522    1.415   .     A
C519   C589    1.391   .     S
C520   C522    1.413   .     A
C520   C586    1.391   .     S
Cu523  O537    1.972   .     S
Cu523  N533    2.033   .     S
Cu523  Cu524   2.705   .     S
Cu523  O543    1.958   .     S
Cu523  O541    1.958   .     S
Cu523  O539    1.974   .     S
Cu524  N534    2.033   .     S
Cu524  O538    1.972   .     S
Cu524  O544    1.958   .     S
Cu524  O540    1.974   .     S
Cu524  O542    1.958   .     S
H525   N535    1.030   .     S
H529   N536    1.027   .     S
Br545  C572    1.940   .     S
Br546  C589    1.941   .     S
Br547  C561    1.922   .     S
Br548  C562    1.920   .     S
Br549  C563    1.922   .     S
Br550  C564    1.927   .     S
Br551  C573    1.936   .     S
Br552  C580    1.939   .     S
Br553  C582    1.942   .     S
Br554  C581    1.936   .     S
Br555  C585    1.940   .     S
Br556  C586    1.938   .     S
Br557  C587    1.938   .     S
Br558  C588    1.939   .     S
C559   O608    1.304   .     A
C559   C560    1.470   .     S
C559   O605    1.305   .     A
C560   C589    1.412   .     A
C560   C586    1.413   .     A
C561   N602    1.376   .     A
C562   N601    1.374   .     A
C562   C155    1.421   1_565 S
C563   N602    1.375   .     A
C564   N601    1.375   .     A
C564   C153    1.423   1_565 S
C565   C571    1.458   .     S
C565   O612    1.299   .     A
C565   O609    1.301   .     A
C566   O611    1.305   .     A
C566   O610    1.299   .     A
C566   C569    1.466   .     S
C567   C569    1.415   .     A
C567   C578    1.426   .     A
C567   N603    1.424   .     S
C568   N604    1.426   .     S
C568   C571    1.400   .     A
C568   C579    1.417   .     A
C569   C572    1.399   .     A
C570   O606    1.308   .     A
C570   C590    1.472   .     S
C570   O607    1.305   .     A
C571   C573    1.398   .     A
C572   C574    1.406   .     A
C573   C575    1.409   .     A
C574   C580    1.416   .     A
C574   C576    1.417   .     A
C575   C577    1.413   .     A
C575   C582    1.407   .     A
C576   C578    1.426   .     A
C576   C1189   1.413   .     S
C577   C579    1.419   .     A
C577   C1188   1.413   1_554 S
C578   C585    1.433   .     A
C579   C581    1.416   .     A
C580   C1193   1.406   .     S
C581   C1192   1.406   1_554 S
C582   C1197   1.407   1_554 S
C583   H595    1.096   .     S
C583   N603    1.447   .     S
C583   H596    1.109   .     S
C583   H594    1.111   .     S
C584   N604    1.447   .     S
C584   H599    1.111   .     S
C584   H598    1.109   .     S
C584   H600    1.110   .     S
C585   C1194   1.407   .     S
C587   C590    1.415   .     A
C587   C453    1.391   1_655 S
C588   C590    1.413   .     A
C588   C450    1.391   1_655 S
Cu591  O605    1.972   .     S
Cu591  N601    2.033   .     S
Cu591  Cu592   2.705   .     S
Cu591  O611    1.958   .     S
Cu591  O609    1.958   .     S
Cu591  O607    1.974   .     S
Cu592  N602    2.033   .     S
Cu592  O606    1.972   .     S
Cu592  O612    1.958   .     S
Cu592  O608    1.974   .     S
Cu592  O610    1.958   .     S
H593   N603    1.030   .     S
H597   N604    1.027   .     S
Br613  C640    1.940   .     S
Br614  C657    1.941   .     S
Br615  C629    1.922   .     S
Br616  C630    1.920   .     S
Br617  C631    1.922   .     S
Br618  C632    1.927   .     S
Br619  C641    1.936   .     S
Br620  C648    1.939   .     S
Br621  C650    1.942   .     S
Br622  C649    1.936   .     S
Br623  C653    1.940   .     S
Br624  C654    1.938   .     S
Br625  C655    1.938   .     S
Br626  C656    1.939   .     S
C627   O676    1.304   .     A
C627   C628    1.470   .     S
C627   O673    1.305   .     A
C628   C657    1.412   .     A
C628   C654    1.413   .     A
C629   N670    1.376   .     A
C629   C1040   1.423   1_545 S
C630   N669    1.374   .     A
C630   C835    1.421   .     S
C631   N670    1.375   .     A
C631   C1038   1.421   1_545 S
C632   N669    1.375   .     A
C632   C833    1.423   .     S
C633   C639    1.458   .     S
C633   O680    1.299   .     A
C633   O677    1.301   .     A
C634   O679    1.305   .     A
C634   O678    1.299   .     A
C634   C637    1.466   .     S
C635   C637    1.415   .     A
C635   C646    1.426   .     A
C635   N671    1.424   .     S
C636   N672    1.426   .     S
C636   C639    1.400   .     A
C636   C647    1.417   .     A
C637   C640    1.399   .     A
C638   O674    1.308   .     A
C638   C658    1.472   .     S
C638   O675    1.305   .     A
C639   C641    1.398   .     A
C640   C642    1.406   .     A
C641   C643    1.409   .     A
C642   C648    1.416   .     A
C642   C644    1.417   .     A
C643   C645    1.413   .     A
C643   C650    1.407   .     A
C644   C646    1.426   .     A
C644   C33     1.413   1_556 S
C645   C647    1.419   .     A
C646   C653    1.433   .     A
C647   C649    1.416   .     A
C648   C37     1.406   1_556 S
C651   H663    1.096   .     S
C651   N671    1.447   .     S
C651   H664    1.109   .     S
C651   H662    1.111   .     S
C652   N672    1.447   .     S
C652   H667    1.111   .     S
C652   H666    1.109   .     S
C652   H668    1.110   .     S
C653   C38     1.407   1_556 S
C654   C792    1.391   1_455 S
C655   C658    1.415   .     A
C655   C725    1.391   .     S
C656   C658    1.413   .     A
C656   C722    1.391   .     S
C657   C791    1.391   1_455 S
Cu659  O673    1.972   .     S
Cu659  N669    2.033   .     S
Cu659  Cu660   2.705   .     S
Cu659  O679    1.958   .     S
Cu659  O677    1.958   .     S
Cu659  O675    1.974   .     S
Cu660  N670    2.033   .     S
Cu660  O674    1.972   .     S
Cu660  O680    1.958   .     S
Cu660  O676    1.974   .     S
Cu660  O678    1.958   .     S
H661   N671    1.030   .     S
H665   N672    1.027   .     S
Br681  C708    1.940   .     S
Br682  C725    1.941   .     S
Br683  C697    1.922   .     S
Br684  C698    1.920   .     S
Br685  C699    1.922   .     S
Br686  C700    1.927   .     S
Br687  C709    1.936   .     S
Br688  C716    1.939   .     S
Br689  C718    1.942   .     S
Br690  C717    1.936   .     S
Br691  C721    1.940   .     S
Br692  C722    1.938   .     S
Br693  C723    1.938   .     S
Br694  C724    1.939   .     S
C695   O744    1.304   .     A
C695   C696    1.470   .     S
C695   O741    1.305   .     A
C696   C725    1.412   .     A
C696   C722    1.413   .     A
C697   N738    1.376   .     A
C697   C1108   1.423   1_545 S
C698   N737    1.374   .     A
C698   C903    1.421   .     S
C699   N738    1.375   .     A
C699   C1106   1.421   1_545 S
C700   N737    1.375   .     A
C700   C901    1.423   .     S
C701   C707    1.458   .     S
C701   O748    1.299   .     A
C701   O745    1.301   .     A
C702   O747    1.305   .     A
C702   O746    1.299   .     A
C702   C705    1.466   .     S
C703   C705    1.415   .     A
C703   C714    1.426   .     A
C703   N739    1.424   .     S
C704   N740    1.426   .     S
C704   C707    1.400   .     A
C704   C715    1.417   .     A
C705   C708    1.399   .     A
C706   O742    1.308   .     A
C706   C726    1.472   .     S
C706   O743    1.305   .     A
C707   C709    1.398   .     A
C708   C710    1.406   .     A
C709   C711    1.409   .     A
C710   C716    1.416   .     A
C710   C712    1.417   .     A
C711   C713    1.413   .     A
C711   C718    1.407   .     A
C712   C714    1.426   .     A
C712   C101    1.413   1_556 S
C713   C715    1.419   .     A
C714   C721    1.433   .     A
C715   C717    1.416   .     A
C716   C105    1.406   1_556 S
C719   H731    1.096   .     S
C719   N739    1.447   .     S
C719   H732    1.109   .     S
C719   H730    1.111   .     S
C720   N740    1.447   .     S
C720   H735    1.111   .     S
C720   H734    1.109   .     S
C720   H736    1.110   .     S
C721   C106    1.407   1_556 S
C723   C726    1.415   .     A
C723   C793    1.391   .     S
C724   C726    1.413   .     A
C724   C790    1.391   .     S
Cu727  O741    1.972   .     S
Cu727  N737    2.033   .     S
Cu727  Cu728   2.705   .     S
Cu727  O747    1.958   .     S
Cu727  O745    1.958   .     S
Cu727  O743    1.974   .     S
Cu728  N738    2.033   .     S
Cu728  O742    1.972   .     S
Cu728  O748    1.958   .     S
Cu728  O744    1.974   .     S
Cu728  O746    1.958   .     S
H729   N739    1.030   .     S
H733   N740    1.027   .     S
Br749  C776    1.940   .     S
Br750  C793    1.941   .     S
Br751  C765    1.922   .     S
Br752  C766    1.920   .     S
Br753  C767    1.922   .     S
Br754  C768    1.927   .     S
Br755  C777    1.936   .     S
Br756  C784    1.939   .     S
Br757  C786    1.942   .     S
Br758  C785    1.936   .     S
Br759  C789    1.940   .     S
Br760  C790    1.938   .     S
Br761  C791    1.938   .     S
Br762  C792    1.939   .     S
C763   O812    1.304   .     A
C763   C764    1.470   .     S
C763   O809    1.305   .     A
C764   C793    1.412   .     A
C764   C790    1.413   .     A
C765   N806    1.376   .     A
C765   C1176   1.423   1_545 S
C766   N805    1.374   .     A
C766   C971    1.421   .     S
C767   N806    1.375   .     A
C767   C1174   1.421   1_545 S
C768   N805    1.375   .     A
C768   C969    1.423   .     S
C769   C775    1.458   .     S
C769   O816    1.299   .     A
C769   O813    1.301   .     A
C770   O815    1.305   .     A
C770   O814    1.299   .     A
C770   C773    1.466   .     S
C771   C773    1.415   .     A
C771   C782    1.426   .     A
C771   N807    1.424   .     S
C772   N808    1.426   .     S
C772   C775    1.400   .     A
C772   C783    1.417   .     A
C773   C776    1.399   .     A
C774   O810    1.308   .     A
C774   C794    1.472   .     S
C774   O811    1.305   .     A
C775   C777    1.398   .     A
C776   C778    1.406   .     A
C777   C779    1.409   .     A
C778   C784    1.416   .     A
C778   C780    1.417   .     A
C779   C781    1.413   .     A
C779   C786    1.407   .     A
C780   C782    1.426   .     A
C780   C169    1.413   1_556 S
C781   C783    1.419   .     A
C782   C789    1.433   .     A
C783   C785    1.416   .     A
C784   C173    1.406   1_556 S
C787   H799    1.096   .     S
C787   N807    1.447   .     S
C787   H800    1.109   .     S
C787   H798    1.111   .     S
C788   N808    1.447   .     S
C788   H803    1.111   .     S
C788   H802    1.109   .     S
C788   H804    1.110   .     S
C789   C174    1.407   1_556 S
C791   C794    1.415   .     A
C791   C657    1.391   1_655 S
C792   C794    1.413   .     A
C792   C654    1.391   1_655 S
Cu795  O809    1.972   .     S
Cu795  N805    2.033   .     S
Cu795  Cu796   2.705   .     S
Cu795  O815    1.958   .     S
Cu795  O813    1.958   .     S
Cu795  O811    1.974   .     S
Cu796  N806    2.033   .     S
Cu796  O810    1.972   .     S
Cu796  O816    1.958   .     S
Cu796  O812    1.974   .     S
Cu796  O814    1.958   .     S
H797   N807    1.030   .     S
H801   N808    1.027   .     S
Br817  C844    1.940   .     S
Br818  C861    1.941   .     S
Br819  C833    1.922   .     S
Br820  C834    1.920   .     S
Br821  C835    1.922   .     S
Br822  C836    1.927   .     S
Br823  C845    1.936   .     S
Br824  C852    1.939   .     S
Br825  C854    1.942   .     S
Br826  C853    1.936   .     S
Br827  C857    1.940   .     S
Br828  C858    1.938   .     S
Br829  C859    1.938   .     S
Br830  C860    1.939   .     S
C831   O880    1.304   .     A
C831   C832    1.470   .     S
C831   O877    1.305   .     A
C832   C861    1.412   .     A
C832   C858    1.413   .     A
C833   N874    1.376   .     A
C834   N873    1.374   .     A
C834   C1039   1.421   .     S
C835   N874    1.375   .     A
C836   N873    1.375   .     A
C836   C1037   1.423   .     S
C837   C843    1.458   .     S
C837   O884    1.299   .     A
C837   O881    1.301   .     A
C838   O883    1.305   .     A
C838   O882    1.299   .     A
C838   C841    1.466   .     S
C839   C841    1.415   .     A
C839   C850    1.426   .     A
C839   N875    1.424   .     S
C840   N876    1.426   .     S
C840   C843    1.400   .     A
C840   C851    1.417   .     A
C841   C844    1.399   .     A
C842   O878    1.308   .     A
C842   C862    1.472   .     S
C842   O879    1.305   .     A
C843   C845    1.398   .     A
C844   C846    1.406   .     A
C845   C847    1.409   .     A
C846   C852    1.416   .     A
C846   C848    1.417   .     A
C847   C849    1.413   .     A
C847   C854    1.407   .     A
C848   C850    1.426   .     A
C848   C237    1.413   1_556 S
C849   C851    1.419   .     A
C850   C857    1.433   .     A
C851   C853    1.416   .     A
C852   C241    1.406   1_556 S
C855   H867    1.096   .     S
C855   N875    1.447   .     S
C855   H868    1.109   .     S
C855   H866    1.111   .     S
C856   N876    1.447   .     S
C856   H871    1.111   .     S
C856   H870    1.109   .     S
C856   H872    1.110   .     S
C857   C242    1.407   1_556 S
C858   C996    1.391   1_455 S
C859   C862    1.415   .     A
C859   C929    1.391   .     S
C860   C862    1.413   .     A
C860   C926    1.391   .     S
C861   C995    1.391   1_455 S
Cu863  O877    1.972   .     S
Cu863  N873    2.033   .     S
Cu863  Cu864   2.705   .     S
Cu863  O883    1.958   .     S
Cu863  O881    1.958   .     S
Cu863  O879    1.974   .     S
Cu864  N874    2.033   .     S
Cu864  O878    1.972   .     S
Cu864  O884    1.958   .     S
Cu864  O880    1.974   .     S
Cu864  O882    1.958   .     S
H865   N875    1.030   .     S
H869   N876    1.027   .     S
Br885  C912    1.940   .     S
Br886  C929    1.941   .     S
Br887  C901    1.922   .     S
Br888  C902    1.920   .     S
Br889  C903    1.922   .     S
Br890  C904    1.927   .     S
Br891  C913    1.936   .     S
Br892  C920    1.939   .     S
Br893  C922    1.942   .     S
Br894  C921    1.936   .     S
Br895  C925    1.940   .     S
Br896  C926    1.938   .     S
Br897  C927    1.938   .     S
Br898  C928    1.939   .     S
C899   O948    1.304   .     A
C899   C900    1.470   .     S
C899   O945    1.305   .     A
C900   C929    1.412   .     A
C900   C926    1.413   .     A
C901   N942    1.376   .     A
C902   N941    1.374   .     A
C902   C1107   1.421   .     S
C903   N942    1.375   .     A
C904   N941    1.375   .     A
C904   C1105   1.423   .     S
C905   C911    1.458   .     S
C905   O952    1.299   .     A
C905   O949    1.301   .     A
C906   O951    1.305   .     A
C906   O950    1.299   .     A
C906   C909    1.466   .     S
C907   C909    1.415   .     A
C907   C918    1.426   .     A
C907   N943    1.424   .     S
C908   N944    1.426   .     S
C908   C911    1.400   .     A
C908   C919    1.417   .     A
C909   C912    1.399   .     A
C910   O946    1.308   .     A
C910   C930    1.472   .     S
C910   O947    1.305   .     A
C911   C913    1.398   .     A
C912   C914    1.406   .     A
C913   C915    1.409   .     A
C914   C920    1.416   .     A
C914   C916    1.417   .     A
C915   C917    1.413   .     A
C915   C922    1.407   .     A
C916   C918    1.426   .     A
C916   C305    1.413   1_556 S
C917   C919    1.419   .     A
C918   C925    1.433   .     A
C919   C921    1.416   .     A
C920   C309    1.406   1_556 S
C923   H935    1.096   .     S
C923   N943    1.447   .     S
C923   H936    1.109   .     S
C923   H934    1.111   .     S
C924   N944    1.447   .     S
C924   H939    1.111   .     S
C924   H938    1.109   .     S
C924   H940    1.110   .     S
C925   C310    1.407   1_556 S
C927   C930    1.415   .     A
C927   C997    1.391   .     S
C928   C930    1.413   .     A
C928   C994    1.391   .     S
Cu931  O945    1.972   .     S
Cu931  N941    2.033   .     S
Cu931  Cu932   2.705   .     S
Cu931  O951    1.958   .     S
Cu931  O949    1.958   .     S
Cu931  O947    1.974   .     S
Cu932  N942    2.033   .     S
Cu932  O946    1.972   .     S
Cu932  O952    1.958   .     S
Cu932  O948    1.974   .     S
Cu932  O950    1.958   .     S
H933   N943    1.030   .     S
H937   N944    1.027   .     S
Br953  C980    1.940   .     S
Br954  C997    1.941   .     S
Br955  C969    1.922   .     S
Br956  C970    1.920   .     S
Br957  C971    1.922   .     S
Br958  C972    1.927   .     S
Br959  C981    1.936   .     S
Br960  C988    1.939   .     S
Br961  C990    1.942   .     S
Br962  C989    1.936   .     S
Br963  C993    1.940   .     S
Br964  C994    1.938   .     S
Br965  C995    1.938   .     S
Br966  C996    1.939   .     S
C967   O1016   1.304   .     A
C967   C968    1.470   .     S
C967   O1013   1.305   .     A
C968   C997    1.412   .     A
C968   C994    1.413   .     A
C969   N1010   1.376   .     A
C970   N1009   1.374   .     A
C970   C1175   1.421   .     S
C971   N1010   1.375   .     A
C972   N1009   1.375   .     A
C972   C1173   1.423   .     S
C973   C979    1.458   .     S
C973   O1020   1.299   .     A
C973   O1017   1.301   .     A
C974   O1019   1.305   .     A
C974   O1018   1.299   .     A
C974   C977    1.466   .     S
C975   C977    1.415   .     A
C975   C986    1.426   .     A
C975   N1011   1.424   .     S
C976   N1012   1.426   .     S
C976   C979    1.400   .     A
C976   C987    1.417   .     A
C977   C980    1.399   .     A
C978   O1014   1.308   .     A
C978   C998    1.472   .     S
C978   O1015   1.305   .     A
C979   C981    1.398   .     A
C980   C982    1.406   .     A
C981   C983    1.409   .     A
C982   C988    1.416   .     A
C982   C984    1.417   .     A
C983   C985    1.413   .     A
C983   C990    1.407   .     A
C984   C986    1.426   .     A
C984   C373    1.413   1_556 S
C985   C987    1.419   .     A
C986   C993    1.433   .     A
C987   C989    1.416   .     A
C988   C377    1.406   1_556 S
C991   H1003   1.096   .     S
C991   N1011   1.447   .     S
C991   H1004   1.109   .     S
C991   H1002   1.111   .     S
C992   N1012   1.447   .     S
C992   H1007   1.111   .     S
C992   H1006   1.109   .     S
C992   H1008   1.110   .     S
C993   C378    1.407   1_556 S
C995   C998    1.415   .     A
C995   C861    1.391   1_655 S
C996   C998    1.413   .     A
C996   C858    1.391   1_655 S
Cu999  O1013   1.972   .     S
Cu999  N1009   2.033   .     S
Cu999  Cu1000  2.705   .     S
Cu999  O1019   1.958   .     S
Cu999  O1017   1.958   .     S
Cu999  O1015   1.974   .     S
Cu1000 N1010   2.033   .     S
Cu1000 O1014   1.972   .     S
Cu1000 O1020   1.958   .     S
Cu1000 O1016   1.974   .     S
Cu1000 O1018   1.958   .     S
H1001  N1011   1.030   .     S
H1005  N1012   1.027   .     S
Br1021 C1048   1.940   .     S
Br1022 C1065   1.941   .     S
Br1023 C1037   1.922   .     S
Br1024 C1038   1.920   .     S
Br1025 C1039   1.922   .     S
Br1026 C1040   1.927   .     S
Br1027 C1049   1.936   .     S
Br1028 C1056   1.939   .     S
Br1029 C1058   1.942   .     S
Br1030 C1057   1.936   .     S
Br1031 C1061   1.940   .     S
Br1032 C1062   1.938   .     S
Br1033 C1063   1.938   .     S
Br1034 C1064   1.939   .     S
C1035  O1084   1.304   .     A
C1035  C1036   1.470   .     S
C1035  O1081   1.305   .     A
C1036  C1065   1.412   .     A
C1036  C1062   1.413   .     A
C1037  N1078   1.376   .     A
C1038  N1077   1.374   .     A
C1038  C631    1.421   1_565 S
C1039  N1078   1.375   .     A
C1040  N1077   1.375   .     A
C1040  C629    1.423   1_565 S
C1041  C1047   1.458   .     S
C1041  O1088   1.299   .     A
C1041  O1085   1.301   .     A
C1042  O1087   1.305   .     A
C1042  O1086   1.299   .     A
C1042  C1045   1.466   .     S
C1043  C1045   1.415   .     A
C1043  C1054   1.426   .     A
C1043  N1079   1.424   .     S
C1044  N1080   1.426   .     S
C1044  C1047   1.400   .     A
C1044  C1055   1.417   .     A
C1045  C1048   1.399   .     A
C1046  O1082   1.308   .     A
C1046  C1066   1.472   .     S
C1046  O1083   1.305   .     A
C1047  C1049   1.398   .     A
C1048  C1050   1.406   .     A
C1049  C1051   1.409   .     A
C1050  C1056   1.416   .     A
C1050  C1052   1.417   .     A
C1051  C1053   1.413   .     A
C1051  C1058   1.407   .     A
C1052  C1054   1.426   .     A
C1052  C441    1.413   1_556 S
C1053  C1055   1.419   .     A
C1054  C1061   1.433   .     A
C1055  C1057   1.416   .     A
C1056  C445    1.406   1_556 S
C1059  H1071   1.096   .     S
C1059  N1079   1.447   .     S
C1059  H1072   1.109   .     S
C1059  H1070   1.111   .     S
C1060  N1080   1.447   .     S
C1060  H1075   1.111   .     S
C1060  H1074   1.109   .     S
C1060  H1076   1.110   .     S
C1061  C446    1.407   1_556 S
C1062  C1200   1.391   1_455 S
C1063  C1066   1.415   .     A
C1063  C1133   1.391   .     S
C1064  C1066   1.413   .     A
C1064  C1130   1.391   .     S
C1065  C1199   1.391   1_455 S
Cu1067 O1081   1.972   .     S
Cu1067 N1077   2.033   .     S
Cu1067 Cu1068  2.705   .     S
Cu1067 O1087   1.958   .     S
Cu1067 O1085   1.958   .     S
Cu1067 O1083   1.974   .     S
Cu1068 N1078   2.033   .     S
Cu1068 O1082   1.972   .     S
Cu1068 O1088   1.958   .     S
Cu1068 O1084   1.974   .     S
Cu1068 O1086   1.958   .     S
H1069  N1079   1.030   .     S
H1073  N1080   1.027   .     S
Br1089 C1116   1.940   .     S
Br1090 C1133   1.941   .     S
Br1091 C1105   1.922   .     S
Br1092 C1106   1.920   .     S
Br1093 C1107   1.922   .     S
Br1094 C1108   1.927   .     S
Br1095 C1117   1.936   .     S
Br1096 C1124   1.939   .     S
Br1097 C1126   1.942   .     S
Br1098 C1125   1.936   .     S
Br1099 C1129   1.940   .     S
Br1100 C1130   1.938   .     S
Br1101 C1131   1.938   .     S
Br1102 C1132   1.939   .     S
C1103  O1152   1.304   .     A
C1103  C1104   1.470   .     S
C1103  O1149   1.305   .     A
C1104  C1133   1.412   .     A
C1104  C1130   1.413   .     A
C1105  N1146   1.376   .     A
C1106  N1145   1.374   .     A
C1106  C699    1.421   1_565 S
C1107  N1146   1.375   .     A
C1108  N1145   1.375   .     A
C1108  C697    1.423   1_565 S
C1109  C1115   1.458   .     S
C1109  O1156   1.299   .     A
C1109  O1153   1.301   .     A
C1110  O1155   1.305   .     A
C1110  O1154   1.299   .     A
C1110  C1113   1.466   .     S
C1111  C1113   1.415   .     A
C1111  C1122   1.426   .     A
C1111  N1147   1.424   .     S
C1112  N1148   1.426   .     S
C1112  C1115   1.400   .     A
C1112  C1123   1.417   .     A
C1113  C1116   1.399   .     A
C1114  O1150   1.308   .     A
C1114  C1134   1.472   .     S
C1114  O1151   1.305   .     A
C1115  C1117   1.398   .     A
C1116  C1118   1.406   .     A
C1117  C1119   1.409   .     A
C1118  C1124   1.416   .     A
C1118  C1120   1.417   .     A
C1119  C1121   1.413   .     A
C1119  C1126   1.407   .     A
C1120  C1122   1.426   .     A
C1120  C509    1.413   1_556 S
C1121  C1123   1.419   .     A
C1122  C1129   1.433   .     A
C1123  C1125   1.416   .     A
C1124  C513    1.406   1_556 S
C1127  H1139   1.096   .     S
C1127  N1147   1.447   .     S
C1127  H1140   1.109   .     S
C1127  H1138   1.111   .     S
C1128  N1148   1.447   .     S
C1128  H1143   1.111   .     S
C1128  H1142   1.109   .     S
C1128  H1144   1.110   .     S
C1129  C514    1.407   1_556 S
C1131  C1134   1.415   .     A
C1131  C1201   1.391   .     S
C1132  C1134   1.413   .     A
C1132  C1198   1.391   .     S
Cu1135 O1149   1.972   .     S
Cu1135 N1145   2.033   .     S
Cu1135 Cu1136  2.705   .     S
Cu1135 O1155   1.958   .     S
Cu1135 O1153   1.958   .     S
Cu1135 O1151   1.974   .     S
Cu1136 N1146   2.033   .     S
Cu1136 O1150   1.972   .     S
Cu1136 O1156   1.958   .     S
Cu1136 O1152   1.974   .     S
Cu1136 O1154   1.958   .     S
H1137  N1147   1.030   .     S
H1141  N1148   1.027   .     S
Br1157 C1184   1.940   .     S
Br1158 C1201   1.941   .     S
Br1159 C1173   1.922   .     S
Br1160 C1174   1.920   .     S
Br1161 C1175   1.922   .     S
Br1162 C1176   1.927   .     S
Br1163 C1185   1.936   .     S
Br1164 C1192   1.939   .     S
Br1165 C1194   1.942   .     S
Br1166 C1193   1.936   .     S
Br1167 C1197   1.940   .     S
Br1168 C1198   1.938   .     S
Br1169 C1199   1.938   .     S
Br1170 C1200   1.939   .     S
C1171  O1220   1.304   .     A
C1171  C1172   1.470   .     S
C1171  O1217   1.305   .     A
C1172  C1201   1.412   .     A
C1172  C1198   1.413   .     A
C1173  N1214   1.376   .     A
C1174  N1213   1.374   .     A
C1174  C767    1.421   1_565 S
C1175  N1214   1.375   .     A
C1176  N1213   1.375   .     A
C1176  C765    1.423   1_565 S
C1177  C1183   1.458   .     S
C1177  O1224   1.299   .     A
C1177  O1221   1.301   .     A
C1178  O1223   1.305   .     A
C1178  O1222   1.299   .     A
C1178  C1181   1.466   .     S
C1179  C1181   1.415   .     A
C1179  C1190   1.426   .     A
C1179  N1215   1.424   .     S
C1180  N1216   1.426   .     S
C1180  C1183   1.400   .     A
C1180  C1191   1.417   .     A
C1181  C1184   1.399   .     A
C1182  O1218   1.308   .     A
C1182  C1202   1.472   .     S
C1182  O1219   1.305   .     A
C1183  C1185   1.398   .     A
C1184  C1186   1.406   .     A
C1185  C1187   1.409   .     A
C1186  C1192   1.416   .     A
C1186  C1188   1.417   .     A
C1187  C1189   1.413   .     A
C1187  C1194   1.407   .     A
C1188  C1190   1.426   .     A
C1188  C577    1.413   1_556 S
C1189  C1191   1.419   .     A
C1190  C1197   1.433   .     A
C1191  C1193   1.416   .     A
C1192  C581    1.406   1_556 S
C1195  H1207   1.096   .     S
C1195  N1215   1.447   .     S
C1195  H1208   1.109   .     S
C1195  H1206   1.111   .     S
C1196  N1216   1.447   .     S
C1196  H1211   1.111   .     S
C1196  H1210   1.109   .     S
C1196  H1212   1.110   .     S
C1197  C582    1.407   1_556 S
C1199  C1202   1.415   .     A
C1199  C1065   1.391   1_655 S
C1200  C1202   1.413   .     A
C1200  C1062   1.391   1_655 S
Cu1203 O1217   1.972   .     S
Cu1203 N1213   2.033   .     S
Cu1203 Cu1204  2.705   .     S
Cu1203 O1223   1.958   .     S
Cu1203 O1221   1.958   .     S
Cu1203 O1219   1.974   .     S
Cu1204 N1214   2.033   .     S
Cu1204 O1218   1.972   .     S
Cu1204 O1224   1.958   .     S
Cu1204 O1220   1.974   .     S
Cu1204 O1222   1.958   .     S
H1205  N1215   1.030   .     S
H1209  N1216   1.027   .     S
