data_str_m2_o1_o16_pcu_sym.204
_audit_creation_date              2020-01-03
_audit_creation_method            'Materials Studio'
_symmetry_space_group_name_H-M    'P1'
_symmetry_Int_Tables_number       1
_symmetry_cell_setting            triclinic
loop_
_symmetry_equiv_pos_as_xyz
  x,y,z
_cell_length_a                    28.8613
_cell_length_b                    32.2986
_cell_length_c                    27.0489
_cell_angle_alpha                 91.4168
_cell_angle_beta                  74.0139
_cell_angle_gamma                 90.6115
loop_
_atom_site_label
_atom_site_type_symbol
_atom_site_fract_x
_atom_site_fract_y
_atom_site_fract_z
_atom_site_U_iso_or_equiv
_atom_site_adp_type
_atom_site_occupancy
C1     C     0.16683   0.24585   0.24972   0.00000  Uiso   1.00
C2     C     0.14576   0.17712   0.48925   0.00000  Uiso   1.00
C3     C     0.16161   0.18059   0.43516   0.00000  Uiso   1.00
C4     C     0.18064   0.16914   0.01608   0.00000  Uiso   1.00
C5     C     0.22881   0.16044   0.48783   0.00000  Uiso   1.00
C6     C     0.24408   0.16955   0.43598   0.00000  Uiso   1.00
C7     C     0.21168   0.18632   0.41252   0.00000  Uiso   1.00
C8     C     0.16988   0.17063   0.06971   0.00000  Uiso   1.00
C9     C     0.25075   0.14850   0.06623   0.00000  Uiso   1.00
C10    C     0.12733   0.17889   0.40614   0.00000  Uiso   1.00
C11    C     0.20496   0.31169   0.21637   0.00000  Uiso   1.00
C12    C     0.14131   0.17053   0.34962   0.00000  Uiso   1.00
C13    C     0.20531   0.02129   0.21707   0.00000  Uiso   1.00
C14    C     0.16621   0.04290   0.24895   0.00000  Uiso   1.00
C15    C     0.12675   0.02173   0.27997   0.00000  Uiso   1.00
C16    C     0.12718   0.31218   0.28041   0.00000  Uiso   1.00
C17    C     0.16664   0.29052   0.24917   0.00000  Uiso   1.00
C18    C     0.30553   0.20101   0.26595   0.00000  Uiso   1.00
C19    C     0.02017   0.19913   0.27110   0.00000  Uiso   1.00
C20    C     0.02926   0.13368   0.23043   0.00000  Uiso   1.00
C21    C     0.31298   0.13325   0.23166   0.00000  Uiso   1.00
C22    C     0.16653   0.08752   0.24966   0.00000  Uiso   1.00
C23    C     0.19204   0.16517   0.15060   0.00000  Uiso   1.00
C24    C     0.26241   0.14740   0.01281   0.00000  Uiso   1.00
C25    C     0.20501   0.16177   0.09466   0.00000  Uiso   1.00
C26    C     0.07844   0.18425   0.43216   0.00000  Uiso   1.00
C27    C     0.06325   0.18957   0.48545   0.00000  Uiso   1.00
C28    C     0.09614   0.18209   0.01399   0.00000  Uiso   1.00
Cu29   Cu    0.11978   0.16666   0.25000   0.00000  Uiso   1.00
Cu30   Cu    0.21355   0.16667   0.25000   0.00000  Uiso   1.00
H31    H     0.27767   0.13991   0.08516   0.00000  Uiso   1.00
H32    H     0.09632   0.03838   0.30460   0.00000  Uiso   1.00
H33    H     0.09716   0.29600   0.30552   0.00000  Uiso   1.00
H34    H     0.29838   0.10632   0.21665   0.00000  Uiso   1.00
H35    H     0.28196   0.16838   0.41591   0.00000  Uiso   1.00
H36    H     0.29831   0.13817   0.49092   0.00000  Uiso   1.00
H37    H     0.08185   0.17975   0.05495   0.00000  Uiso   1.00
N38    N     0.04931   0.16666   0.24999   0.00000  Uiso   1.00
N39    N     0.28402   0.16669   0.25000   0.00000  Uiso   1.00
O40    O     0.12708   0.22678   0.25001   0.00000  Uiso   1.00
O41    O     0.20627   0.22679   0.25001   0.00000  Uiso   1.00
O42    O     0.10775   0.16665   0.32549   0.00000  Uiso   1.00
O43    O     0.18694   0.16666   0.32549   0.00000  Uiso   1.00
O44    O     0.12706   0.10654   0.25000   0.00000  Uiso   1.00
O45    O     0.20625   0.10655   0.25000   0.00000  Uiso   1.00
O46    O     0.14640   0.16667   0.17451   0.00000  Uiso   1.00
O47    O     0.22559   0.16668   0.17451   0.00000  Uiso   1.00
H48    H     0.23545   0.03759   0.19209   0.00000  Uiso   1.00
O49    O     0.28082   0.23782   0.27746   0.00000  Uiso   1.00
C50    C     0.30221   0.26707   0.23982   0.00000  Uiso   1.00
H51    H     0.29981   0.25655   0.20111   0.00000  Uiso   1.00
H52    H     0.00697   0.27408   0.23815   0.00000  Uiso   1.00
H53    H     0.28269   0.29673   0.25032   0.00000  Uiso   1.00
O54    O     0.03934   0.23184   0.29310   0.00000  Uiso   1.00
C55    C     0.01383   0.23776   0.34523   0.00000  Uiso   1.00
H56    H     0.03855   0.25193   0.36586   0.00000  Uiso   1.00
H57    H     0.00062   0.20833   0.36436   0.00000  Uiso   1.00
H58    H     0.31703   0.25967   0.34911   0.00000  Uiso   1.00
H59    H     0.05134   0.10720   0.21419   0.00000  Uiso   1.00
H60    H     0.13505   0.18071   0.09282   0.00000  Uiso   1.00
H61    H     0.05166   0.18495   0.41111   0.00000  Uiso   1.00
O62    O     0.01490   0.19790   0.00817   0.00000  Uiso   1.00
C63    C     0.00860   0.22747   0.04880   0.00000  Uiso   1.00
H64    H     0.03540   0.25322   0.03950   0.00000  Uiso   1.00
H65    H     0.00960   0.21238   0.08494   0.00000  Uiso   1.00
H66    H     0.30565   0.24136   0.05570   0.00000  Uiso   1.00
O67    O     0.22978   0.21302   0.37241   0.00000  Uiso   1.00
C68    C     0.20978   0.25292   0.38605   0.00000  Uiso   1.00
H69    H     0.23079   0.27564   0.35858   0.00000  Uiso   1.00
H70    H     0.21151   0.26320   0.42515   0.00000  Uiso   1.00
H71    H     0.17211   0.25405   0.38333   0.00000  Uiso   1.00
H72    H     0.23414   0.29504   0.18991   0.00000  Uiso   1.00
C73    C     0.50016   0.24585   0.24972   0.00000  Uiso   1.00
C74    C     0.47909   0.17712   0.48925   0.00000  Uiso   1.00
C75    C     0.49495   0.18059   0.43516   0.00000  Uiso   1.00
C76    C     0.51397   0.16914   0.01608   0.00000  Uiso   1.00
C77    C     0.56214   0.16044   0.48783   0.00000  Uiso   1.00
C78    C     0.57742   0.16955   0.43598   0.00000  Uiso   1.00
C79    C     0.54501   0.18632   0.41252   0.00000  Uiso   1.00
C80    C     0.50322   0.17063   0.06971   0.00000  Uiso   1.00
C81    C     0.58409   0.14850   0.06623   0.00000  Uiso   1.00
C82    C     0.46066   0.17889   0.40614   0.00000  Uiso   1.00
C83    C     0.53829   0.31169   0.21637   0.00000  Uiso   1.00
C84    C     0.47465   0.17053   0.34962   0.00000  Uiso   1.00
C85    C     0.53865   0.02129   0.21707   0.00000  Uiso   1.00
C86    C     0.49955   0.04290   0.24895   0.00000  Uiso   1.00
C87    C     0.46008   0.02173   0.27997   0.00000  Uiso   1.00
C88    C     0.46051   0.31218   0.28041   0.00000  Uiso   1.00
C89    C     0.49997   0.29052   0.24917   0.00000  Uiso   1.00
C90    C     0.63886   0.20101   0.26595   0.00000  Uiso   1.00
C91    C     0.35350   0.19913   0.27110   0.00000  Uiso   1.00
C92    C     0.36260   0.13368   0.23043   0.00000  Uiso   1.00
C93    C     0.64632   0.13325   0.23166   0.00000  Uiso   1.00
C94    C     0.49986   0.08752   0.24966   0.00000  Uiso   1.00
C95    C     0.52537   0.16517   0.15060   0.00000  Uiso   1.00
C96    C     0.59574   0.14740   0.01281   0.00000  Uiso   1.00
C97    C     0.53835   0.16177   0.09466   0.00000  Uiso   1.00
C98    C     0.41177   0.18425   0.43216   0.00000  Uiso   1.00
C99    C     0.39659   0.18957   0.48545   0.00000  Uiso   1.00
C100   C     0.42947   0.18209   0.01399   0.00000  Uiso   1.00
Cu101  Cu    0.45311   0.16666   0.25000   0.00000  Uiso   1.00
Cu102  Cu    0.54689   0.16667   0.25000   0.00000  Uiso   1.00
H103   H     0.61100   0.13991   0.08516   0.00000  Uiso   1.00
H104   H     0.42965   0.03838   0.30460   0.00000  Uiso   1.00
H105   H     0.43049   0.29600   0.30552   0.00000  Uiso   1.00
H106   H     0.63171   0.10632   0.21665   0.00000  Uiso   1.00
H107   H     0.61529   0.16838   0.41591   0.00000  Uiso   1.00
H108   H     0.63165   0.13817   0.49092   0.00000  Uiso   1.00
H109   H     0.41518   0.17975   0.05495   0.00000  Uiso   1.00
N110   N     0.38265   0.16666   0.24999   0.00000  Uiso   1.00
N111   N     0.61735   0.16669   0.25000   0.00000  Uiso   1.00
O112   O     0.46042   0.22678   0.25001   0.00000  Uiso   1.00
O113   O     0.53961   0.22679   0.25001   0.00000  Uiso   1.00
O114   O     0.44108   0.16665   0.32549   0.00000  Uiso   1.00
O115   O     0.52027   0.16666   0.32549   0.00000  Uiso   1.00
O116   O     0.46039   0.10654   0.25000   0.00000  Uiso   1.00
O117   O     0.53958   0.10655   0.25000   0.00000  Uiso   1.00
O118   O     0.47973   0.16667   0.17451   0.00000  Uiso   1.00
O119   O     0.55892   0.16668   0.17451   0.00000  Uiso   1.00
H120   H     0.56878   0.03759   0.19209   0.00000  Uiso   1.00
O121   O     0.61415   0.23782   0.27746   0.00000  Uiso   1.00
C122   C     0.63554   0.26707   0.23982   0.00000  Uiso   1.00
H123   H     0.63314   0.25655   0.20111   0.00000  Uiso   1.00
H124   H     0.34031   0.27408   0.23815   0.00000  Uiso   1.00
H125   H     0.61603   0.29673   0.25032   0.00000  Uiso   1.00
O126   O     0.37267   0.23184   0.29310   0.00000  Uiso   1.00
C127   C     0.34716   0.23776   0.34523   0.00000  Uiso   1.00
H128   H     0.37188   0.25193   0.36586   0.00000  Uiso   1.00
H129   H     0.33395   0.20833   0.36436   0.00000  Uiso   1.00
H130   H     0.65036   0.25967   0.34911   0.00000  Uiso   1.00
H131   H     0.38467   0.10720   0.21419   0.00000  Uiso   1.00
H132   H     0.46839   0.18071   0.09282   0.00000  Uiso   1.00
H133   H     0.38499   0.18495   0.41111   0.00000  Uiso   1.00
O134   O     0.34824   0.19790   0.00817   0.00000  Uiso   1.00
C135   C     0.34194   0.22747   0.04880   0.00000  Uiso   1.00
H136   H     0.36873   0.25322   0.03950   0.00000  Uiso   1.00
H137   H     0.34293   0.21238   0.08494   0.00000  Uiso   1.00
H138   H     0.63898   0.24136   0.05570   0.00000  Uiso   1.00
O139   O     0.56311   0.21302   0.37241   0.00000  Uiso   1.00
C140   C     0.54312   0.25292   0.38605   0.00000  Uiso   1.00
H141   H     0.56413   0.27564   0.35858   0.00000  Uiso   1.00
H142   H     0.54484   0.26320   0.42515   0.00000  Uiso   1.00
H143   H     0.50544   0.25405   0.38333   0.00000  Uiso   1.00
H144   H     0.56748   0.29504   0.18991   0.00000  Uiso   1.00
C145   C     0.83350   0.24585   0.24972   0.00000  Uiso   1.00
C146   C     0.81243   0.17712   0.48925   0.00000  Uiso   1.00
C147   C     0.82828   0.18059   0.43516   0.00000  Uiso   1.00
C148   C     0.84731   0.16914   0.01608   0.00000  Uiso   1.00
C149   C     0.89547   0.16044   0.48783   0.00000  Uiso   1.00
C150   C     0.91075   0.16955   0.43598   0.00000  Uiso   1.00
C151   C     0.87834   0.18632   0.41252   0.00000  Uiso   1.00
C152   C     0.83655   0.17063   0.06971   0.00000  Uiso   1.00
C153   C     0.91742   0.14850   0.06623   0.00000  Uiso   1.00
C154   C     0.79399   0.17889   0.40614   0.00000  Uiso   1.00
C155   C     0.87163   0.31169   0.21637   0.00000  Uiso   1.00
C156   C     0.80798   0.17053   0.34962   0.00000  Uiso   1.00
C157   C     0.87198   0.02129   0.21707   0.00000  Uiso   1.00
C158   C     0.83288   0.04290   0.24895   0.00000  Uiso   1.00
C159   C     0.79342   0.02173   0.27997   0.00000  Uiso   1.00
C160   C     0.79385   0.31218   0.28041   0.00000  Uiso   1.00
C161   C     0.83331   0.29052   0.24917   0.00000  Uiso   1.00
C162   C     0.97220   0.20101   0.26595   0.00000  Uiso   1.00
C163   C     0.68683   0.19913   0.27110   0.00000  Uiso   1.00
C164   C     0.69593   0.13368   0.23043   0.00000  Uiso   1.00
C165   C     0.97965   0.13325   0.23166   0.00000  Uiso   1.00
C166   C     0.83319   0.08752   0.24966   0.00000  Uiso   1.00
C167   C     0.85870   0.16517   0.15060   0.00000  Uiso   1.00
C168   C     0.92908   0.14740   0.01281   0.00000  Uiso   1.00
C169   C     0.87168   0.16177   0.09466   0.00000  Uiso   1.00
C170   C     0.74510   0.18425   0.43216   0.00000  Uiso   1.00
C171   C     0.72992   0.18957   0.48545   0.00000  Uiso   1.00
C172   C     0.76281   0.18209   0.01399   0.00000  Uiso   1.00
Cu173  Cu    0.78645   0.16666   0.25000   0.00000  Uiso   1.00
Cu174  Cu    0.88022   0.16667   0.25000   0.00000  Uiso   1.00
H175   H     0.94433   0.13991   0.08516   0.00000  Uiso   1.00
H176   H     0.76299   0.03838   0.30460   0.00000  Uiso   1.00
H177   H     0.76382   0.29600   0.30552   0.00000  Uiso   1.00
H178   H     0.96504   0.10632   0.21665   0.00000  Uiso   1.00
H179   H     0.94862   0.16838   0.41591   0.00000  Uiso   1.00
H180   H     0.96498   0.13817   0.49092   0.00000  Uiso   1.00
H181   H     0.74851   0.17975   0.05495   0.00000  Uiso   1.00
N182   N     0.71598   0.16666   0.24999   0.00000  Uiso   1.00
N183   N     0.95069   0.16669   0.25000   0.00000  Uiso   1.00
O184   O     0.79375   0.22678   0.25001   0.00000  Uiso   1.00
O185   O     0.87294   0.22679   0.25001   0.00000  Uiso   1.00
O186   O     0.77441   0.16665   0.32549   0.00000  Uiso   1.00
O187   O     0.85360   0.16666   0.32549   0.00000  Uiso   1.00
O188   O     0.79373   0.10654   0.25000   0.00000  Uiso   1.00
O189   O     0.87292   0.10655   0.25000   0.00000  Uiso   1.00
O190   O     0.81306   0.16667   0.17451   0.00000  Uiso   1.00
O191   O     0.89225   0.16668   0.17451   0.00000  Uiso   1.00
H192   H     0.90211   0.03759   0.19209   0.00000  Uiso   1.00
O193   O     0.94749   0.23782   0.27746   0.00000  Uiso   1.00
C194   C     0.96887   0.26707   0.23982   0.00000  Uiso   1.00
H195   H     0.96647   0.25655   0.20111   0.00000  Uiso   1.00
H196   H     0.67364   0.27408   0.23815   0.00000  Uiso   1.00
H197   H     0.94936   0.29673   0.25032   0.00000  Uiso   1.00
O198   O     0.70601   0.23184   0.29310   0.00000  Uiso   1.00
C199   C     0.68050   0.23776   0.34523   0.00000  Uiso   1.00
H200   H     0.70521   0.25193   0.36586   0.00000  Uiso   1.00
H201   H     0.66728   0.20833   0.36436   0.00000  Uiso   1.00
H202   H     0.98369   0.25967   0.34911   0.00000  Uiso   1.00
H203   H     0.71800   0.10720   0.21419   0.00000  Uiso   1.00
H204   H     0.80172   0.18071   0.09282   0.00000  Uiso   1.00
H205   H     0.71832   0.18495   0.41111   0.00000  Uiso   1.00
O206   O     0.68157   0.19790   0.00817   0.00000  Uiso   1.00
C207   C     0.67527   0.22747   0.04880   0.00000  Uiso   1.00
H208   H     0.70206   0.25322   0.03950   0.00000  Uiso   1.00
H209   H     0.67627   0.21238   0.08494   0.00000  Uiso   1.00
H210   H     0.97232   0.24136   0.05570   0.00000  Uiso   1.00
O211   O     0.89644   0.21302   0.37241   0.00000  Uiso   1.00
C212   C     0.87645   0.25292   0.38605   0.00000  Uiso   1.00
H213   H     0.89746   0.27564   0.35858   0.00000  Uiso   1.00
H214   H     0.87818   0.26320   0.42515   0.00000  Uiso   1.00
H215   H     0.83878   0.25405   0.38333   0.00000  Uiso   1.00
H216   H     0.90081   0.29504   0.18991   0.00000  Uiso   1.00
C217   C     0.16683   0.57918   0.24972   0.00000  Uiso   1.00
C218   C     0.14576   0.51045   0.48925   0.00000  Uiso   1.00
C219   C     0.16161   0.51393   0.43516   0.00000  Uiso   1.00
C220   C     0.18064   0.50247   0.01608   0.00000  Uiso   1.00
C221   C     0.22881   0.49377   0.48783   0.00000  Uiso   1.00
C222   C     0.24408   0.50288   0.43598   0.00000  Uiso   1.00
C223   C     0.21168   0.51966   0.41252   0.00000  Uiso   1.00
C224   C     0.16988   0.50397   0.06971   0.00000  Uiso   1.00
C225   C     0.25075   0.48183   0.06623   0.00000  Uiso   1.00
C226   C     0.12733   0.51222   0.40614   0.00000  Uiso   1.00
C227   C     0.20496   0.64502   0.21637   0.00000  Uiso   1.00
C228   C     0.14131   0.50386   0.34962   0.00000  Uiso   1.00
C229   C     0.20531   0.35462   0.21707   0.00000  Uiso   1.00
C230   C     0.16621   0.37624   0.24895   0.00000  Uiso   1.00
C231   C     0.12675   0.35506   0.27997   0.00000  Uiso   1.00
C232   C     0.12718   0.64551   0.28041   0.00000  Uiso   1.00
C233   C     0.16664   0.62385   0.24917   0.00000  Uiso   1.00
C234   C     0.30553   0.53434   0.26595   0.00000  Uiso   1.00
C235   C     0.02017   0.53246   0.27110   0.00000  Uiso   1.00
C236   C     0.02926   0.46701   0.23043   0.00000  Uiso   1.00
C237   C     0.31298   0.46659   0.23166   0.00000  Uiso   1.00
C238   C     0.16653   0.42085   0.24966   0.00000  Uiso   1.00
C239   C     0.19204   0.49850   0.15060   0.00000  Uiso   1.00
C240   C     0.26241   0.48073   0.01281   0.00000  Uiso   1.00
C241   C     0.20501   0.49511   0.09466   0.00000  Uiso   1.00
C242   C     0.07844   0.51758   0.43216   0.00000  Uiso   1.00
C243   C     0.06325   0.52290   0.48545   0.00000  Uiso   1.00
C244   C     0.09614   0.51543   0.01399   0.00000  Uiso   1.00
Cu245  Cu    0.11978   0.49999   0.25000   0.00000  Uiso   1.00
Cu246  Cu    0.21355   0.50001   0.25000   0.00000  Uiso   1.00
H247   H     0.27767   0.47324   0.08516   0.00000  Uiso   1.00
H248   H     0.09632   0.37171   0.30460   0.00000  Uiso   1.00
H249   H     0.09716   0.62933   0.30552   0.00000  Uiso   1.00
H250   H     0.29838   0.43965   0.21665   0.00000  Uiso   1.00
H251   H     0.28196   0.50171   0.41591   0.00000  Uiso   1.00
H252   H     0.29831   0.47151   0.49092   0.00000  Uiso   1.00
H253   H     0.08185   0.51308   0.05495   0.00000  Uiso   1.00
N254   N     0.04931   0.49999   0.24999   0.00000  Uiso   1.00
N255   N     0.28402   0.50002   0.25000   0.00000  Uiso   1.00
O256   O     0.12708   0.56011   0.25001   0.00000  Uiso   1.00
O257   O     0.20627   0.56012   0.25001   0.00000  Uiso   1.00
O258   O     0.10775   0.49998   0.32549   0.00000  Uiso   1.00
O259   O     0.18694   0.49999   0.32549   0.00000  Uiso   1.00
O260   O     0.12706   0.43988   0.25000   0.00000  Uiso   1.00
O261   O     0.20625   0.43989   0.25000   0.00000  Uiso   1.00
O262   O     0.14640   0.50001   0.17451   0.00000  Uiso   1.00
O263   O     0.22559   0.50002   0.17451   0.00000  Uiso   1.00
H264   H     0.23545   0.37093   0.19209   0.00000  Uiso   1.00
O265   O     0.28082   0.57115   0.27746   0.00000  Uiso   1.00
C266   C     0.30221   0.60040   0.23982   0.00000  Uiso   1.00
H267   H     0.29981   0.58988   0.20111   0.00000  Uiso   1.00
H268   H     0.00697   0.60742   0.23815   0.00000  Uiso   1.00
H269   H     0.28269   0.63006   0.25032   0.00000  Uiso   1.00
O270   O     0.03934   0.56518   0.29310   0.00000  Uiso   1.00
C271   C     0.01383   0.57109   0.34523   0.00000  Uiso   1.00
H272   H     0.03855   0.58526   0.36586   0.00000  Uiso   1.00
H273   H     0.00062   0.54166   0.36436   0.00000  Uiso   1.00
H274   H     0.31703   0.59300   0.34911   0.00000  Uiso   1.00
H275   H     0.05134   0.44054   0.21419   0.00000  Uiso   1.00
H276   H     0.13505   0.51405   0.09282   0.00000  Uiso   1.00
H277   H     0.05166   0.51829   0.41111   0.00000  Uiso   1.00
O278   O     0.01490   0.53123   0.00817   0.00000  Uiso   1.00
C279   C     0.00860   0.56081   0.04880   0.00000  Uiso   1.00
H280   H     0.03540   0.58655   0.03950   0.00000  Uiso   1.00
H281   H     0.00960   0.54572   0.08494   0.00000  Uiso   1.00
H282   H     0.30565   0.57469   0.05570   0.00000  Uiso   1.00
O283   O     0.22978   0.54635   0.37241   0.00000  Uiso   1.00
C284   C     0.20978   0.58625   0.38605   0.00000  Uiso   1.00
H285   H     0.23079   0.60897   0.35858   0.00000  Uiso   1.00
H286   H     0.21151   0.59654   0.42515   0.00000  Uiso   1.00
H287   H     0.17211   0.58738   0.38333   0.00000  Uiso   1.00
H288   H     0.23414   0.62838   0.18991   0.00000  Uiso   1.00
C289   C     0.50016   0.57918   0.24972   0.00000  Uiso   1.00
C290   C     0.47909   0.51045   0.48925   0.00000  Uiso   1.00
C291   C     0.49495   0.51393   0.43516   0.00000  Uiso   1.00
C292   C     0.51397   0.50247   0.01608   0.00000  Uiso   1.00
C293   C     0.56214   0.49377   0.48783   0.00000  Uiso   1.00
C294   C     0.57742   0.50288   0.43598   0.00000  Uiso   1.00
C295   C     0.54501   0.51966   0.41252   0.00000  Uiso   1.00
C296   C     0.50322   0.50397   0.06971   0.00000  Uiso   1.00
C297   C     0.58409   0.48183   0.06623   0.00000  Uiso   1.00
C298   C     0.46066   0.51222   0.40614   0.00000  Uiso   1.00
C299   C     0.53829   0.64502   0.21637   0.00000  Uiso   1.00
C300   C     0.47465   0.50386   0.34962   0.00000  Uiso   1.00
C301   C     0.53865   0.35462   0.21707   0.00000  Uiso   1.00
C302   C     0.49955   0.37624   0.24895   0.00000  Uiso   1.00
C303   C     0.46008   0.35506   0.27997   0.00000  Uiso   1.00
C304   C     0.46051   0.64551   0.28041   0.00000  Uiso   1.00
C305   C     0.49997   0.62385   0.24917   0.00000  Uiso   1.00
C306   C     0.63886   0.53434   0.26595   0.00000  Uiso   1.00
C307   C     0.35350   0.53246   0.27110   0.00000  Uiso   1.00
C308   C     0.36260   0.46701   0.23043   0.00000  Uiso   1.00
C309   C     0.64632   0.46659   0.23166   0.00000  Uiso   1.00
C310   C     0.49986   0.42085   0.24966   0.00000  Uiso   1.00
C311   C     0.52537   0.49850   0.15060   0.00000  Uiso   1.00
C312   C     0.59574   0.48073   0.01281   0.00000  Uiso   1.00
C313   C     0.53835   0.49511   0.09466   0.00000  Uiso   1.00
C314   C     0.41177   0.51758   0.43216   0.00000  Uiso   1.00
C315   C     0.39659   0.52290   0.48545   0.00000  Uiso   1.00
C316   C     0.42947   0.51543   0.01399   0.00000  Uiso   1.00
Cu317  Cu    0.45311   0.49999   0.25000   0.00000  Uiso   1.00
Cu318  Cu    0.54689   0.50001   0.25000   0.00000  Uiso   1.00
H319   H     0.61100   0.47324   0.08516   0.00000  Uiso   1.00
H320   H     0.42965   0.37171   0.30460   0.00000  Uiso   1.00
H321   H     0.43049   0.62933   0.30552   0.00000  Uiso   1.00
H322   H     0.63171   0.43965   0.21665   0.00000  Uiso   1.00
H323   H     0.61529   0.50171   0.41591   0.00000  Uiso   1.00
H324   H     0.63165   0.47151   0.49092   0.00000  Uiso   1.00
H325   H     0.41518   0.51308   0.05495   0.00000  Uiso   1.00
N326   N     0.38265   0.49999   0.24999   0.00000  Uiso   1.00
N327   N     0.61735   0.50002   0.25000   0.00000  Uiso   1.00
O328   O     0.46042   0.56011   0.25001   0.00000  Uiso   1.00
O329   O     0.53961   0.56012   0.25001   0.00000  Uiso   1.00
O330   O     0.44108   0.49998   0.32549   0.00000  Uiso   1.00
O331   O     0.52027   0.49999   0.32549   0.00000  Uiso   1.00
O332   O     0.46039   0.43988   0.25000   0.00000  Uiso   1.00
O333   O     0.53958   0.43989   0.25000   0.00000  Uiso   1.00
O334   O     0.47973   0.50001   0.17451   0.00000  Uiso   1.00
O335   O     0.55892   0.50002   0.17451   0.00000  Uiso   1.00
H336   H     0.56878   0.37093   0.19209   0.00000  Uiso   1.00
O337   O     0.61415   0.57115   0.27746   0.00000  Uiso   1.00
C338   C     0.63554   0.60040   0.23982   0.00000  Uiso   1.00
H339   H     0.63314   0.58988   0.20111   0.00000  Uiso   1.00
H340   H     0.34031   0.60742   0.23815   0.00000  Uiso   1.00
H341   H     0.61603   0.63006   0.25032   0.00000  Uiso   1.00
O342   O     0.37267   0.56518   0.29310   0.00000  Uiso   1.00
C343   C     0.34716   0.57109   0.34523   0.00000  Uiso   1.00
H344   H     0.37188   0.58526   0.36586   0.00000  Uiso   1.00
H345   H     0.33395   0.54166   0.36436   0.00000  Uiso   1.00
H346   H     0.65036   0.59300   0.34911   0.00000  Uiso   1.00
H347   H     0.38467   0.44054   0.21419   0.00000  Uiso   1.00
H348   H     0.46839   0.51405   0.09282   0.00000  Uiso   1.00
H349   H     0.38499   0.51829   0.41111   0.00000  Uiso   1.00
O350   O     0.34824   0.53123   0.00817   0.00000  Uiso   1.00
C351   C     0.34194   0.56081   0.04880   0.00000  Uiso   1.00
H352   H     0.36873   0.58655   0.03950   0.00000  Uiso   1.00
H353   H     0.34293   0.54572   0.08494   0.00000  Uiso   1.00
H354   H     0.63898   0.57469   0.05570   0.00000  Uiso   1.00
O355   O     0.56311   0.54635   0.37241   0.00000  Uiso   1.00
C356   C     0.54312   0.58625   0.38605   0.00000  Uiso   1.00
H357   H     0.56413   0.60897   0.35858   0.00000  Uiso   1.00
H358   H     0.54484   0.59654   0.42515   0.00000  Uiso   1.00
H359   H     0.50544   0.58738   0.38333   0.00000  Uiso   1.00
H360   H     0.56748   0.62838   0.18991   0.00000  Uiso   1.00
C361   C     0.83350   0.57918   0.24972   0.00000  Uiso   1.00
C362   C     0.81243   0.51045   0.48925   0.00000  Uiso   1.00
C363   C     0.82828   0.51393   0.43516   0.00000  Uiso   1.00
C364   C     0.84731   0.50247   0.01608   0.00000  Uiso   1.00
C365   C     0.89547   0.49377   0.48783   0.00000  Uiso   1.00
C366   C     0.91075   0.50288   0.43598   0.00000  Uiso   1.00
C367   C     0.87834   0.51966   0.41252   0.00000  Uiso   1.00
C368   C     0.83655   0.50397   0.06971   0.00000  Uiso   1.00
C369   C     0.91742   0.48183   0.06623   0.00000  Uiso   1.00
C370   C     0.79399   0.51222   0.40614   0.00000  Uiso   1.00
C371   C     0.87163   0.64502   0.21637   0.00000  Uiso   1.00
C372   C     0.80798   0.50386   0.34962   0.00000  Uiso   1.00
C373   C     0.87198   0.35462   0.21707   0.00000  Uiso   1.00
C374   C     0.83288   0.37624   0.24895   0.00000  Uiso   1.00
C375   C     0.79342   0.35506   0.27997   0.00000  Uiso   1.00
C376   C     0.79385   0.64551   0.28041   0.00000  Uiso   1.00
C377   C     0.83331   0.62385   0.24917   0.00000  Uiso   1.00
C378   C     0.97220   0.53434   0.26595   0.00000  Uiso   1.00
C379   C     0.68683   0.53246   0.27110   0.00000  Uiso   1.00
C380   C     0.69593   0.46701   0.23043   0.00000  Uiso   1.00
C381   C     0.97965   0.46659   0.23166   0.00000  Uiso   1.00
C382   C     0.83319   0.42085   0.24966   0.00000  Uiso   1.00
C383   C     0.85870   0.49850   0.15060   0.00000  Uiso   1.00
C384   C     0.92908   0.48073   0.01281   0.00000  Uiso   1.00
C385   C     0.87168   0.49511   0.09466   0.00000  Uiso   1.00
C386   C     0.74510   0.51758   0.43216   0.00000  Uiso   1.00
C387   C     0.72992   0.52290   0.48545   0.00000  Uiso   1.00
C388   C     0.76281   0.51543   0.01399   0.00000  Uiso   1.00
Cu389  Cu    0.78645   0.49999   0.25000   0.00000  Uiso   1.00
Cu390  Cu    0.88022   0.50001   0.25000   0.00000  Uiso   1.00
H391   H     0.94433   0.47324   0.08516   0.00000  Uiso   1.00
H392   H     0.76299   0.37171   0.30460   0.00000  Uiso   1.00
H393   H     0.76382   0.62933   0.30552   0.00000  Uiso   1.00
H394   H     0.96504   0.43965   0.21665   0.00000  Uiso   1.00
H395   H     0.94862   0.50171   0.41591   0.00000  Uiso   1.00
H396   H     0.96498   0.47151   0.49092   0.00000  Uiso   1.00
H397   H     0.74851   0.51308   0.05495   0.00000  Uiso   1.00
N398   N     0.71598   0.49999   0.24999   0.00000  Uiso   1.00
N399   N     0.95069   0.50002   0.25000   0.00000  Uiso   1.00
O400   O     0.79375   0.56011   0.25001   0.00000  Uiso   1.00
O401   O     0.87294   0.56012   0.25001   0.00000  Uiso   1.00
O402   O     0.77441   0.49998   0.32549   0.00000  Uiso   1.00
O403   O     0.85360   0.49999   0.32549   0.00000  Uiso   1.00
O404   O     0.79373   0.43988   0.25000   0.00000  Uiso   1.00
O405   O     0.87292   0.43989   0.25000   0.00000  Uiso   1.00
O406   O     0.81306   0.50001   0.17451   0.00000  Uiso   1.00
O407   O     0.89225   0.50002   0.17451   0.00000  Uiso   1.00
H408   H     0.90211   0.37093   0.19209   0.00000  Uiso   1.00
O409   O     0.94749   0.57115   0.27746   0.00000  Uiso   1.00
C410   C     0.96887   0.60040   0.23982   0.00000  Uiso   1.00
H411   H     0.96647   0.58988   0.20111   0.00000  Uiso   1.00
H412   H     0.67364   0.60742   0.23815   0.00000  Uiso   1.00
H413   H     0.94936   0.63006   0.25032   0.00000  Uiso   1.00
O414   O     0.70601   0.56518   0.29310   0.00000  Uiso   1.00
C415   C     0.68050   0.57109   0.34523   0.00000  Uiso   1.00
H416   H     0.70521   0.58526   0.36586   0.00000  Uiso   1.00
H417   H     0.66728   0.54166   0.36436   0.00000  Uiso   1.00
H418   H     0.98369   0.59300   0.34911   0.00000  Uiso   1.00
H419   H     0.71800   0.44054   0.21419   0.00000  Uiso   1.00
H420   H     0.80172   0.51405   0.09282   0.00000  Uiso   1.00
H421   H     0.71832   0.51829   0.41111   0.00000  Uiso   1.00
O422   O     0.68157   0.53123   0.00817   0.00000  Uiso   1.00
C423   C     0.67527   0.56081   0.04880   0.00000  Uiso   1.00
H424   H     0.70206   0.58655   0.03950   0.00000  Uiso   1.00
H425   H     0.67627   0.54572   0.08494   0.00000  Uiso   1.00
H426   H     0.97232   0.57469   0.05570   0.00000  Uiso   1.00
O427   O     0.89644   0.54635   0.37241   0.00000  Uiso   1.00
C428   C     0.87645   0.58625   0.38605   0.00000  Uiso   1.00
H429   H     0.89746   0.60897   0.35858   0.00000  Uiso   1.00
H430   H     0.87818   0.59654   0.42515   0.00000  Uiso   1.00
H431   H     0.83878   0.58738   0.38333   0.00000  Uiso   1.00
H432   H     0.90081   0.62838   0.18991   0.00000  Uiso   1.00
C433   C     0.16683   0.91251   0.24972   0.00000  Uiso   1.00
C434   C     0.14576   0.84379   0.48925   0.00000  Uiso   1.00
C435   C     0.16161   0.84726   0.43516   0.00000  Uiso   1.00
C436   C     0.18064   0.83581   0.01608   0.00000  Uiso   1.00
C437   C     0.22881   0.82710   0.48783   0.00000  Uiso   1.00
C438   C     0.24408   0.83622   0.43598   0.00000  Uiso   1.00
C439   C     0.21168   0.85299   0.41252   0.00000  Uiso   1.00
C440   C     0.16988   0.83730   0.06971   0.00000  Uiso   1.00
C441   C     0.25075   0.81516   0.06623   0.00000  Uiso   1.00
C442   C     0.12733   0.84555   0.40614   0.00000  Uiso   1.00
C443   C     0.20496   0.97836   0.21637   0.00000  Uiso   1.00
C444   C     0.14131   0.83720   0.34962   0.00000  Uiso   1.00
C445   C     0.20531   0.68795   0.21707   0.00000  Uiso   1.00
C446   C     0.16621   0.70957   0.24895   0.00000  Uiso   1.00
C447   C     0.12675   0.68840   0.27997   0.00000  Uiso   1.00
C448   C     0.12718   0.97884   0.28041   0.00000  Uiso   1.00
C449   C     0.16664   0.95718   0.24917   0.00000  Uiso   1.00
C450   C     0.30553   0.86768   0.26595   0.00000  Uiso   1.00
C451   C     0.02017   0.86580   0.27110   0.00000  Uiso   1.00
C452   C     0.02926   0.80035   0.23043   0.00000  Uiso   1.00
C453   C     0.31298   0.79992   0.23166   0.00000  Uiso   1.00
C454   C     0.16653   0.75419   0.24966   0.00000  Uiso   1.00
C455   C     0.19204   0.83183   0.15060   0.00000  Uiso   1.00
C456   C     0.26241   0.81407   0.01281   0.00000  Uiso   1.00
C457   C     0.20501   0.82844   0.09466   0.00000  Uiso   1.00
C458   C     0.07844   0.85091   0.43216   0.00000  Uiso   1.00
C459   C     0.06325   0.85623   0.48545   0.00000  Uiso   1.00
C460   C     0.09614   0.84876   0.01399   0.00000  Uiso   1.00
Cu461  Cu    0.11978   0.83333   0.25000   0.00000  Uiso   1.00
Cu462  Cu    0.21355   0.83334   0.25000   0.00000  Uiso   1.00
H463   H     0.27767   0.80657   0.08516   0.00000  Uiso   1.00
H464   H     0.09632   0.70504   0.30460   0.00000  Uiso   1.00
H465   H     0.09716   0.96267   0.30552   0.00000  Uiso   1.00
H466   H     0.29838   0.77299   0.21665   0.00000  Uiso   1.00
H467   H     0.28196   0.83505   0.41591   0.00000  Uiso   1.00
H468   H     0.29831   0.80484   0.49092   0.00000  Uiso   1.00
H469   H     0.08185   0.84642   0.05495   0.00000  Uiso   1.00
N470   N     0.04931   0.83332   0.24999   0.00000  Uiso   1.00
N471   N     0.28402   0.83335   0.25000   0.00000  Uiso   1.00
O472   O     0.12708   0.89345   0.25001   0.00000  Uiso   1.00
O473   O     0.20627   0.89346   0.25001   0.00000  Uiso   1.00
O474   O     0.10775   0.83332   0.32549   0.00000  Uiso   1.00
O475   O     0.18694   0.83333   0.32549   0.00000  Uiso   1.00
O476   O     0.12706   0.77321   0.25000   0.00000  Uiso   1.00
O477   O     0.20625   0.77322   0.25000   0.00000  Uiso   1.00
O478   O     0.14640   0.83334   0.17451   0.00000  Uiso   1.00
O479   O     0.22559   0.83335   0.17451   0.00000  Uiso   1.00
H480   H     0.23545   0.70426   0.19209   0.00000  Uiso   1.00
O481   O     0.28082   0.90448   0.27746   0.00000  Uiso   1.00
C482   C     0.30221   0.93374   0.23982   0.00000  Uiso   1.00
H483   H     0.29981   0.92322   0.20111   0.00000  Uiso   1.00
H484   H     0.00697   0.94075   0.23815   0.00000  Uiso   1.00
H485   H     0.28269   0.96340   0.25032   0.00000  Uiso   1.00
O486   O     0.03934   0.89851   0.29310   0.00000  Uiso   1.00
C487   C     0.01383   0.90442   0.34523   0.00000  Uiso   1.00
H488   H     0.03855   0.91860   0.36586   0.00000  Uiso   1.00
H489   H     0.00062   0.87499   0.36436   0.00000  Uiso   1.00
H490   H     0.31703   0.92633   0.34911   0.00000  Uiso   1.00
H491   H     0.05134   0.77387   0.21419   0.00000  Uiso   1.00
H492   H     0.13505   0.84738   0.09282   0.00000  Uiso   1.00
H493   H     0.05166   0.85162   0.41111   0.00000  Uiso   1.00
O494   O     0.01490   0.86456   0.00817   0.00000  Uiso   1.00
C495   C     0.00860   0.89414   0.04880   0.00000  Uiso   1.00
H496   H     0.03540   0.91988   0.03950   0.00000  Uiso   1.00
H497   H     0.00960   0.87905   0.08494   0.00000  Uiso   1.00
H498   H     0.30565   0.90802   0.05570   0.00000  Uiso   1.00
O499   O     0.22978   0.87968   0.37241   0.00000  Uiso   1.00
C500   C     0.20978   0.91958   0.38605   0.00000  Uiso   1.00
H501   H     0.23079   0.94230   0.35858   0.00000  Uiso   1.00
H502   H     0.21151   0.92987   0.42515   0.00000  Uiso   1.00
H503   H     0.17211   0.92071   0.38333   0.00000  Uiso   1.00
H504   H     0.23414   0.96171   0.18991   0.00000  Uiso   1.00
C505   C     0.50016   0.91251   0.24972   0.00000  Uiso   1.00
C506   C     0.47909   0.84379   0.48925   0.00000  Uiso   1.00
C507   C     0.49495   0.84726   0.43516   0.00000  Uiso   1.00
C508   C     0.51397   0.83581   0.01608   0.00000  Uiso   1.00
C509   C     0.56214   0.82710   0.48783   0.00000  Uiso   1.00
C510   C     0.57742   0.83622   0.43598   0.00000  Uiso   1.00
C511   C     0.54501   0.85299   0.41252   0.00000  Uiso   1.00
C512   C     0.50322   0.83730   0.06971   0.00000  Uiso   1.00
C513   C     0.58409   0.81516   0.06623   0.00000  Uiso   1.00
C514   C     0.46066   0.84555   0.40614   0.00000  Uiso   1.00
C515   C     0.53829   0.97836   0.21637   0.00000  Uiso   1.00
C516   C     0.47465   0.83720   0.34962   0.00000  Uiso   1.00
C517   C     0.53865   0.68795   0.21707   0.00000  Uiso   1.00
C518   C     0.49955   0.70957   0.24895   0.00000  Uiso   1.00
C519   C     0.46008   0.68840   0.27997   0.00000  Uiso   1.00
C520   C     0.46051   0.97884   0.28041   0.00000  Uiso   1.00
C521   C     0.49997   0.95718   0.24917   0.00000  Uiso   1.00
C522   C     0.63886   0.86768   0.26595   0.00000  Uiso   1.00
C523   C     0.35350   0.86580   0.27110   0.00000  Uiso   1.00
C524   C     0.36260   0.80035   0.23043   0.00000  Uiso   1.00
C525   C     0.64632   0.79992   0.23166   0.00000  Uiso   1.00
C526   C     0.49986   0.75419   0.24966   0.00000  Uiso   1.00
C527   C     0.52537   0.83183   0.15060   0.00000  Uiso   1.00
C528   C     0.59574   0.81407   0.01281   0.00000  Uiso   1.00
C529   C     0.53835   0.82844   0.09466   0.00000  Uiso   1.00
C530   C     0.41177   0.85091   0.43216   0.00000  Uiso   1.00
C531   C     0.39659   0.85623   0.48545   0.00000  Uiso   1.00
C532   C     0.42947   0.84876   0.01399   0.00000  Uiso   1.00
Cu533  Cu    0.45311   0.83333   0.25000   0.00000  Uiso   1.00
Cu534  Cu    0.54689   0.83334   0.25000   0.00000  Uiso   1.00
H535   H     0.61100   0.80657   0.08516   0.00000  Uiso   1.00
H536   H     0.42965   0.70504   0.30460   0.00000  Uiso   1.00
H537   H     0.43049   0.96267   0.30552   0.00000  Uiso   1.00
H538   H     0.63171   0.77299   0.21665   0.00000  Uiso   1.00
H539   H     0.61529   0.83505   0.41591   0.00000  Uiso   1.00
H540   H     0.63165   0.80484   0.49092   0.00000  Uiso   1.00
H541   H     0.41518   0.84642   0.05495   0.00000  Uiso   1.00
N542   N     0.38265   0.83332   0.24999   0.00000  Uiso   1.00
N543   N     0.61735   0.83335   0.25000   0.00000  Uiso   1.00
O544   O     0.46042   0.89345   0.25001   0.00000  Uiso   1.00
O545   O     0.53961   0.89346   0.25001   0.00000  Uiso   1.00
O546   O     0.44108   0.83332   0.32549   0.00000  Uiso   1.00
O547   O     0.52027   0.83333   0.32549   0.00000  Uiso   1.00
O548   O     0.46039   0.77321   0.25000   0.00000  Uiso   1.00
O549   O     0.53958   0.77322   0.25000   0.00000  Uiso   1.00
O550   O     0.47973   0.83334   0.17451   0.00000  Uiso   1.00
O551   O     0.55892   0.83335   0.17451   0.00000  Uiso   1.00
H552   H     0.56878   0.70426   0.19209   0.00000  Uiso   1.00
O553   O     0.61415   0.90448   0.27746   0.00000  Uiso   1.00
C554   C     0.63554   0.93374   0.23982   0.00000  Uiso   1.00
H555   H     0.63314   0.92322   0.20111   0.00000  Uiso   1.00
H556   H     0.34031   0.94075   0.23815   0.00000  Uiso   1.00
H557   H     0.61603   0.96340   0.25032   0.00000  Uiso   1.00
O558   O     0.37267   0.89851   0.29310   0.00000  Uiso   1.00
C559   C     0.34716   0.90442   0.34523   0.00000  Uiso   1.00
H560   H     0.37188   0.91860   0.36586   0.00000  Uiso   1.00
H561   H     0.33395   0.87499   0.36436   0.00000  Uiso   1.00
H562   H     0.65036   0.92633   0.34911   0.00000  Uiso   1.00
H563   H     0.38467   0.77387   0.21419   0.00000  Uiso   1.00
H564   H     0.46839   0.84738   0.09282   0.00000  Uiso   1.00
H565   H     0.38499   0.85162   0.41111   0.00000  Uiso   1.00
O566   O     0.34824   0.86456   0.00817   0.00000  Uiso   1.00
C567   C     0.34194   0.89414   0.04880   0.00000  Uiso   1.00
H568   H     0.36873   0.91988   0.03950   0.00000  Uiso   1.00
H569   H     0.34293   0.87905   0.08494   0.00000  Uiso   1.00
H570   H     0.63898   0.90802   0.05570   0.00000  Uiso   1.00
O571   O     0.56311   0.87968   0.37241   0.00000  Uiso   1.00
C572   C     0.54312   0.91958   0.38605   0.00000  Uiso   1.00
H573   H     0.56413   0.94230   0.35858   0.00000  Uiso   1.00
H574   H     0.54484   0.92987   0.42515   0.00000  Uiso   1.00
H575   H     0.50544   0.92071   0.38333   0.00000  Uiso   1.00
H576   H     0.56748   0.96171   0.18991   0.00000  Uiso   1.00
C577   C     0.83350   0.91251   0.24972   0.00000  Uiso   1.00
C578   C     0.81243   0.84379   0.48925   0.00000  Uiso   1.00
C579   C     0.82828   0.84726   0.43516   0.00000  Uiso   1.00
C580   C     0.84731   0.83581   0.01608   0.00000  Uiso   1.00
C581   C     0.89547   0.82710   0.48783   0.00000  Uiso   1.00
C582   C     0.91075   0.83622   0.43598   0.00000  Uiso   1.00
C583   C     0.87834   0.85299   0.41252   0.00000  Uiso   1.00
C584   C     0.83655   0.83730   0.06971   0.00000  Uiso   1.00
C585   C     0.91742   0.81516   0.06623   0.00000  Uiso   1.00
C586   C     0.79399   0.84555   0.40614   0.00000  Uiso   1.00
C587   C     0.87163   0.97836   0.21637   0.00000  Uiso   1.00
C588   C     0.80798   0.83720   0.34962   0.00000  Uiso   1.00
C589   C     0.87198   0.68795   0.21707   0.00000  Uiso   1.00
C590   C     0.83288   0.70957   0.24895   0.00000  Uiso   1.00
C591   C     0.79342   0.68840   0.27997   0.00000  Uiso   1.00
C592   C     0.79385   0.97884   0.28041   0.00000  Uiso   1.00
C593   C     0.83331   0.95718   0.24917   0.00000  Uiso   1.00
C594   C     0.97220   0.86768   0.26595   0.00000  Uiso   1.00
C595   C     0.68683   0.86580   0.27110   0.00000  Uiso   1.00
C596   C     0.69593   0.80035   0.23043   0.00000  Uiso   1.00
C597   C     0.97965   0.79992   0.23166   0.00000  Uiso   1.00
C598   C     0.83319   0.75419   0.24966   0.00000  Uiso   1.00
C599   C     0.85870   0.83183   0.15060   0.00000  Uiso   1.00
C600   C     0.92908   0.81407   0.01281   0.00000  Uiso   1.00
C601   C     0.87168   0.82844   0.09466   0.00000  Uiso   1.00
C602   C     0.74510   0.85091   0.43216   0.00000  Uiso   1.00
C603   C     0.72992   0.85623   0.48545   0.00000  Uiso   1.00
C604   C     0.76281   0.84876   0.01399   0.00000  Uiso   1.00
Cu605  Cu    0.78645   0.83333   0.25000   0.00000  Uiso   1.00
Cu606  Cu    0.88022   0.83334   0.25000   0.00000  Uiso   1.00
H607   H     0.94433   0.80657   0.08516   0.00000  Uiso   1.00
H608   H     0.76299   0.70504   0.30460   0.00000  Uiso   1.00
H609   H     0.76382   0.96267   0.30552   0.00000  Uiso   1.00
H610   H     0.96504   0.77299   0.21665   0.00000  Uiso   1.00
H611   H     0.94862   0.83505   0.41591   0.00000  Uiso   1.00
H612   H     0.96498   0.80484   0.49092   0.00000  Uiso   1.00
H613   H     0.74851   0.84642   0.05495   0.00000  Uiso   1.00
N614   N     0.71598   0.83332   0.24999   0.00000  Uiso   1.00
N615   N     0.95069   0.83335   0.25000   0.00000  Uiso   1.00
O616   O     0.79375   0.89345   0.25001   0.00000  Uiso   1.00
O617   O     0.87294   0.89346   0.25001   0.00000  Uiso   1.00
O618   O     0.77441   0.83332   0.32549   0.00000  Uiso   1.00
O619   O     0.85360   0.83333   0.32549   0.00000  Uiso   1.00
O620   O     0.79373   0.77321   0.25000   0.00000  Uiso   1.00
O621   O     0.87292   0.77322   0.25000   0.00000  Uiso   1.00
O622   O     0.81306   0.83334   0.17451   0.00000  Uiso   1.00
O623   O     0.89225   0.83335   0.17451   0.00000  Uiso   1.00
H624   H     0.90211   0.70426   0.19209   0.00000  Uiso   1.00
O625   O     0.94749   0.90448   0.27746   0.00000  Uiso   1.00
C626   C     0.96887   0.93374   0.23982   0.00000  Uiso   1.00
H627   H     0.96647   0.92322   0.20111   0.00000  Uiso   1.00
H628   H     0.67364   0.94075   0.23815   0.00000  Uiso   1.00
H629   H     0.94936   0.96340   0.25032   0.00000  Uiso   1.00
O630   O     0.70601   0.89851   0.29310   0.00000  Uiso   1.00
C631   C     0.68050   0.90442   0.34523   0.00000  Uiso   1.00
H632   H     0.70521   0.91860   0.36586   0.00000  Uiso   1.00
H633   H     0.66728   0.87499   0.36436   0.00000  Uiso   1.00
H634   H     0.98369   0.92633   0.34911   0.00000  Uiso   1.00
H635   H     0.71800   0.77387   0.21419   0.00000  Uiso   1.00
H636   H     0.80172   0.84738   0.09282   0.00000  Uiso   1.00
H637   H     0.71832   0.85162   0.41111   0.00000  Uiso   1.00
O638   O     0.68157   0.86456   0.00817   0.00000  Uiso   1.00
C639   C     0.67527   0.89414   0.04880   0.00000  Uiso   1.00
H640   H     0.70206   0.91988   0.03950   0.00000  Uiso   1.00
H641   H     0.67627   0.87905   0.08494   0.00000  Uiso   1.00
H642   H     0.97232   0.90802   0.05570   0.00000  Uiso   1.00
O643   O     0.89644   0.87968   0.37241   0.00000  Uiso   1.00
C644   C     0.87645   0.91958   0.38605   0.00000  Uiso   1.00
H645   H     0.89746   0.94230   0.35858   0.00000  Uiso   1.00
H646   H     0.87818   0.92987   0.42515   0.00000  Uiso   1.00
H647   H     0.83878   0.92071   0.38333   0.00000  Uiso   1.00
H648   H     0.90081   0.96171   0.18991   0.00000  Uiso   1.00
C649   C     0.16683   0.24585   0.74972   0.00000  Uiso   1.00
C650   C     0.14576   0.17712   0.98925   0.00000  Uiso   1.00
C651   C     0.16161   0.18059   0.93516   0.00000  Uiso   1.00
C652   C     0.18064   0.16914   0.51608   0.00000  Uiso   1.00
C653   C     0.22881   0.16044   0.98783   0.00000  Uiso   1.00
C654   C     0.24408   0.16955   0.93598   0.00000  Uiso   1.00
C655   C     0.21168   0.18632   0.91252   0.00000  Uiso   1.00
C656   C     0.16988   0.17063   0.56971   0.00000  Uiso   1.00
C657   C     0.25075   0.14850   0.56623   0.00000  Uiso   1.00
C658   C     0.12733   0.17889   0.90614   0.00000  Uiso   1.00
C659   C     0.20496   0.31169   0.71637   0.00000  Uiso   1.00
C660   C     0.14131   0.17053   0.84962   0.00000  Uiso   1.00
C661   C     0.20531   0.02129   0.71707   0.00000  Uiso   1.00
C662   C     0.16621   0.04290   0.74895   0.00000  Uiso   1.00
C663   C     0.12675   0.02173   0.77997   0.00000  Uiso   1.00
C664   C     0.12718   0.31218   0.78041   0.00000  Uiso   1.00
C665   C     0.16664   0.29052   0.74917   0.00000  Uiso   1.00
C666   C     0.30553   0.20101   0.76595   0.00000  Uiso   1.00
C667   C     0.02017   0.19913   0.77110   0.00000  Uiso   1.00
C668   C     0.02926   0.13368   0.73043   0.00000  Uiso   1.00
C669   C     0.31298   0.13325   0.73166   0.00000  Uiso   1.00
C670   C     0.16653   0.08752   0.74966   0.00000  Uiso   1.00
C671   C     0.19204   0.16517   0.65060   0.00000  Uiso   1.00
C672   C     0.26241   0.14740   0.51281   0.00000  Uiso   1.00
C673   C     0.20501   0.16177   0.59466   0.00000  Uiso   1.00
C674   C     0.07844   0.18425   0.93216   0.00000  Uiso   1.00
C675   C     0.06325   0.18957   0.98545   0.00000  Uiso   1.00
C676   C     0.09614   0.18209   0.51399   0.00000  Uiso   1.00
Cu677  Cu    0.11978   0.16666   0.75000   0.00000  Uiso   1.00
Cu678  Cu    0.21355   0.16667   0.75000   0.00000  Uiso   1.00
H679   H     0.27767   0.13991   0.58516   0.00000  Uiso   1.00
H680   H     0.09632   0.03838   0.80460   0.00000  Uiso   1.00
H681   H     0.09716   0.29600   0.80552   0.00000  Uiso   1.00
H682   H     0.29838   0.10632   0.71665   0.00000  Uiso   1.00
H683   H     0.28196   0.16838   0.91591   0.00000  Uiso   1.00
H684   H     0.29831   0.13817   0.99092   0.00000  Uiso   1.00
H685   H     0.08185   0.17975   0.55495   0.00000  Uiso   1.00
N686   N     0.04931   0.16666   0.74999   0.00000  Uiso   1.00
N687   N     0.28402   0.16669   0.75000   0.00000  Uiso   1.00
O688   O     0.12708   0.22678   0.75001   0.00000  Uiso   1.00
O689   O     0.20627   0.22679   0.75001   0.00000  Uiso   1.00
O690   O     0.10775   0.16665   0.82549   0.00000  Uiso   1.00
O691   O     0.18694   0.16666   0.82549   0.00000  Uiso   1.00
O692   O     0.12706   0.10654   0.75000   0.00000  Uiso   1.00
O693   O     0.20625   0.10655   0.75000   0.00000  Uiso   1.00
O694   O     0.14640   0.16667   0.67451   0.00000  Uiso   1.00
O695   O     0.22559   0.16668   0.67451   0.00000  Uiso   1.00
H696   H     0.23545   0.03759   0.69209   0.00000  Uiso   1.00
O697   O     0.28082   0.23782   0.77746   0.00000  Uiso   1.00
C698   C     0.30221   0.26707   0.73982   0.00000  Uiso   1.00
H699   H     0.29981   0.25655   0.70111   0.00000  Uiso   1.00
H700   H     0.00697   0.27408   0.73815   0.00000  Uiso   1.00
H701   H     0.28269   0.29673   0.75032   0.00000  Uiso   1.00
O702   O     0.03934   0.23184   0.79310   0.00000  Uiso   1.00
C703   C     0.01383   0.23776   0.84523   0.00000  Uiso   1.00
H704   H     0.03855   0.25193   0.86586   0.00000  Uiso   1.00
H705   H     0.00062   0.20833   0.86436   0.00000  Uiso   1.00
H706   H     0.31703   0.25967   0.84911   0.00000  Uiso   1.00
H707   H     0.05134   0.10720   0.71419   0.00000  Uiso   1.00
H708   H     0.13505   0.18071   0.59282   0.00000  Uiso   1.00
H709   H     0.05166   0.18495   0.91111   0.00000  Uiso   1.00
O710   O     0.01490   0.19790   0.50817   0.00000  Uiso   1.00
C711   C     0.00860   0.22747   0.54880   0.00000  Uiso   1.00
H712   H     0.03540   0.25322   0.53950   0.00000  Uiso   1.00
H713   H     0.00960   0.21238   0.58494   0.00000  Uiso   1.00
H714   H     0.30565   0.24136   0.55570   0.00000  Uiso   1.00
O715   O     0.22978   0.21302   0.87241   0.00000  Uiso   1.00
C716   C     0.20978   0.25292   0.88605   0.00000  Uiso   1.00
H717   H     0.23079   0.27564   0.85858   0.00000  Uiso   1.00
H718   H     0.21151   0.26320   0.92515   0.00000  Uiso   1.00
H719   H     0.17211   0.25405   0.88333   0.00000  Uiso   1.00
H720   H     0.23414   0.29504   0.68991   0.00000  Uiso   1.00
C721   C     0.50016   0.24585   0.74972   0.00000  Uiso   1.00
C722   C     0.47909   0.17712   0.98925   0.00000  Uiso   1.00
C723   C     0.49495   0.18059   0.93516   0.00000  Uiso   1.00
C724   C     0.51397   0.16914   0.51608   0.00000  Uiso   1.00
C725   C     0.56214   0.16044   0.98783   0.00000  Uiso   1.00
C726   C     0.57742   0.16955   0.93598   0.00000  Uiso   1.00
C727   C     0.54501   0.18632   0.91252   0.00000  Uiso   1.00
C728   C     0.50322   0.17063   0.56971   0.00000  Uiso   1.00
C729   C     0.58409   0.14850   0.56623   0.00000  Uiso   1.00
C730   C     0.46066   0.17889   0.90614   0.00000  Uiso   1.00
C731   C     0.53829   0.31169   0.71637   0.00000  Uiso   1.00
C732   C     0.47465   0.17053   0.84962   0.00000  Uiso   1.00
C733   C     0.53865   0.02129   0.71707   0.00000  Uiso   1.00
C734   C     0.49955   0.04290   0.74895   0.00000  Uiso   1.00
C735   C     0.46008   0.02173   0.77997   0.00000  Uiso   1.00
C736   C     0.46051   0.31218   0.78041   0.00000  Uiso   1.00
C737   C     0.49997   0.29052   0.74917   0.00000  Uiso   1.00
C738   C     0.63886   0.20101   0.76595   0.00000  Uiso   1.00
C739   C     0.35350   0.19913   0.77110   0.00000  Uiso   1.00
C740   C     0.36260   0.13368   0.73043   0.00000  Uiso   1.00
C741   C     0.64632   0.13325   0.73166   0.00000  Uiso   1.00
C742   C     0.49986   0.08752   0.74966   0.00000  Uiso   1.00
C743   C     0.52537   0.16517   0.65060   0.00000  Uiso   1.00
C744   C     0.59574   0.14740   0.51281   0.00000  Uiso   1.00
C745   C     0.53835   0.16177   0.59466   0.00000  Uiso   1.00
C746   C     0.41177   0.18425   0.93216   0.00000  Uiso   1.00
C747   C     0.39659   0.18957   0.98545   0.00000  Uiso   1.00
C748   C     0.42947   0.18209   0.51399   0.00000  Uiso   1.00
Cu749  Cu    0.45311   0.16666   0.75000   0.00000  Uiso   1.00
Cu750  Cu    0.54689   0.16667   0.75000   0.00000  Uiso   1.00
H751   H     0.61100   0.13991   0.58516   0.00000  Uiso   1.00
H752   H     0.42965   0.03838   0.80460   0.00000  Uiso   1.00
H753   H     0.43049   0.29600   0.80552   0.00000  Uiso   1.00
H754   H     0.63171   0.10632   0.71665   0.00000  Uiso   1.00
H755   H     0.61529   0.16838   0.91591   0.00000  Uiso   1.00
H756   H     0.63165   0.13817   0.99092   0.00000  Uiso   1.00
H757   H     0.41518   0.17975   0.55495   0.00000  Uiso   1.00
N758   N     0.38265   0.16666   0.74999   0.00000  Uiso   1.00
N759   N     0.61735   0.16669   0.75000   0.00000  Uiso   1.00
O760   O     0.46042   0.22678   0.75001   0.00000  Uiso   1.00
O761   O     0.53961   0.22679   0.75001   0.00000  Uiso   1.00
O762   O     0.44108   0.16665   0.82549   0.00000  Uiso   1.00
O763   O     0.52027   0.16666   0.82549   0.00000  Uiso   1.00
O764   O     0.46039   0.10654   0.75000   0.00000  Uiso   1.00
O765   O     0.53958   0.10655   0.75000   0.00000  Uiso   1.00
O766   O     0.47973   0.16667   0.67451   0.00000  Uiso   1.00
O767   O     0.55892   0.16668   0.67451   0.00000  Uiso   1.00
H768   H     0.56878   0.03759   0.69209   0.00000  Uiso   1.00
O769   O     0.61415   0.23782   0.77746   0.00000  Uiso   1.00
C770   C     0.63554   0.26707   0.73982   0.00000  Uiso   1.00
H771   H     0.63314   0.25655   0.70111   0.00000  Uiso   1.00
H772   H     0.34031   0.27408   0.73815   0.00000  Uiso   1.00
H773   H     0.61603   0.29673   0.75032   0.00000  Uiso   1.00
O774   O     0.37267   0.23184   0.79310   0.00000  Uiso   1.00
C775   C     0.34716   0.23776   0.84523   0.00000  Uiso   1.00
H776   H     0.37188   0.25193   0.86586   0.00000  Uiso   1.00
H777   H     0.33395   0.20833   0.86436   0.00000  Uiso   1.00
H778   H     0.65036   0.25967   0.84911   0.00000  Uiso   1.00
H779   H     0.38467   0.10720   0.71419   0.00000  Uiso   1.00
H780   H     0.46839   0.18071   0.59282   0.00000  Uiso   1.00
H781   H     0.38499   0.18495   0.91111   0.00000  Uiso   1.00
O782   O     0.34824   0.19790   0.50817   0.00000  Uiso   1.00
C783   C     0.34194   0.22747   0.54880   0.00000  Uiso   1.00
H784   H     0.36873   0.25322   0.53950   0.00000  Uiso   1.00
H785   H     0.34293   0.21238   0.58494   0.00000  Uiso   1.00
H786   H     0.63898   0.24136   0.55570   0.00000  Uiso   1.00
O787   O     0.56311   0.21302   0.87241   0.00000  Uiso   1.00
C788   C     0.54312   0.25292   0.88605   0.00000  Uiso   1.00
H789   H     0.56413   0.27564   0.85858   0.00000  Uiso   1.00
H790   H     0.54484   0.26320   0.92515   0.00000  Uiso   1.00
H791   H     0.50544   0.25405   0.88333   0.00000  Uiso   1.00
H792   H     0.56748   0.29504   0.68991   0.00000  Uiso   1.00
C793   C     0.83350   0.24585   0.74972   0.00000  Uiso   1.00
C794   C     0.81243   0.17712   0.98925   0.00000  Uiso   1.00
C795   C     0.82828   0.18059   0.93516   0.00000  Uiso   1.00
C796   C     0.84731   0.16914   0.51608   0.00000  Uiso   1.00
C797   C     0.89547   0.16044   0.98783   0.00000  Uiso   1.00
C798   C     0.91075   0.16955   0.93598   0.00000  Uiso   1.00
C799   C     0.87834   0.18632   0.91252   0.00000  Uiso   1.00
C800   C     0.83655   0.17063   0.56971   0.00000  Uiso   1.00
C801   C     0.91742   0.14850   0.56623   0.00000  Uiso   1.00
C802   C     0.79399   0.17889   0.90614   0.00000  Uiso   1.00
C803   C     0.87163   0.31169   0.71637   0.00000  Uiso   1.00
C804   C     0.80798   0.17053   0.84962   0.00000  Uiso   1.00
C805   C     0.87198   0.02129   0.71707   0.00000  Uiso   1.00
C806   C     0.83288   0.04290   0.74895   0.00000  Uiso   1.00
C807   C     0.79342   0.02173   0.77997   0.00000  Uiso   1.00
C808   C     0.79385   0.31218   0.78041   0.00000  Uiso   1.00
C809   C     0.83331   0.29052   0.74917   0.00000  Uiso   1.00
C810   C     0.97220   0.20101   0.76595   0.00000  Uiso   1.00
C811   C     0.68683   0.19913   0.77110   0.00000  Uiso   1.00
C812   C     0.69593   0.13368   0.73043   0.00000  Uiso   1.00
C813   C     0.97965   0.13325   0.73166   0.00000  Uiso   1.00
C814   C     0.83319   0.08752   0.74966   0.00000  Uiso   1.00
C815   C     0.85870   0.16517   0.65060   0.00000  Uiso   1.00
C816   C     0.92908   0.14740   0.51281   0.00000  Uiso   1.00
C817   C     0.87168   0.16177   0.59466   0.00000  Uiso   1.00
C818   C     0.74510   0.18425   0.93216   0.00000  Uiso   1.00
C819   C     0.72992   0.18957   0.98545   0.00000  Uiso   1.00
C820   C     0.76281   0.18209   0.51399   0.00000  Uiso   1.00
Cu821  Cu    0.78645   0.16666   0.75000   0.00000  Uiso   1.00
Cu822  Cu    0.88022   0.16667   0.75000   0.00000  Uiso   1.00
H823   H     0.94433   0.13991   0.58516   0.00000  Uiso   1.00
H824   H     0.76299   0.03838   0.80460   0.00000  Uiso   1.00
H825   H     0.76382   0.29600   0.80552   0.00000  Uiso   1.00
H826   H     0.96504   0.10632   0.71665   0.00000  Uiso   1.00
H827   H     0.94862   0.16838   0.91591   0.00000  Uiso   1.00
H828   H     0.96498   0.13817   0.99092   0.00000  Uiso   1.00
H829   H     0.74851   0.17975   0.55495   0.00000  Uiso   1.00
N830   N     0.71598   0.16666   0.74999   0.00000  Uiso   1.00
N831   N     0.95069   0.16669   0.75000   0.00000  Uiso   1.00
O832   O     0.79375   0.22678   0.75001   0.00000  Uiso   1.00
O833   O     0.87294   0.22679   0.75001   0.00000  Uiso   1.00
O834   O     0.77441   0.16665   0.82549   0.00000  Uiso   1.00
O835   O     0.85360   0.16666   0.82549   0.00000  Uiso   1.00
O836   O     0.79373   0.10654   0.75000   0.00000  Uiso   1.00
O837   O     0.87292   0.10655   0.75000   0.00000  Uiso   1.00
O838   O     0.81306   0.16667   0.67451   0.00000  Uiso   1.00
O839   O     0.89225   0.16668   0.67451   0.00000  Uiso   1.00
H840   H     0.90211   0.03759   0.69209   0.00000  Uiso   1.00
O841   O     0.94749   0.23782   0.77746   0.00000  Uiso   1.00
C842   C     0.96887   0.26707   0.73982   0.00000  Uiso   1.00
H843   H     0.96647   0.25655   0.70111   0.00000  Uiso   1.00
H844   H     0.67364   0.27408   0.73815   0.00000  Uiso   1.00
H845   H     0.94936   0.29673   0.75032   0.00000  Uiso   1.00
O846   O     0.70601   0.23184   0.79310   0.00000  Uiso   1.00
C847   C     0.68050   0.23776   0.84523   0.00000  Uiso   1.00
H848   H     0.70521   0.25193   0.86586   0.00000  Uiso   1.00
H849   H     0.66728   0.20833   0.86436   0.00000  Uiso   1.00
H850   H     0.98369   0.25967   0.84911   0.00000  Uiso   1.00
H851   H     0.71800   0.10720   0.71419   0.00000  Uiso   1.00
H852   H     0.80172   0.18071   0.59282   0.00000  Uiso   1.00
H853   H     0.71832   0.18495   0.91111   0.00000  Uiso   1.00
O854   O     0.68157   0.19790   0.50817   0.00000  Uiso   1.00
C855   C     0.67527   0.22747   0.54880   0.00000  Uiso   1.00
H856   H     0.70206   0.25322   0.53950   0.00000  Uiso   1.00
H857   H     0.67627   0.21238   0.58494   0.00000  Uiso   1.00
H858   H     0.97232   0.24136   0.55570   0.00000  Uiso   1.00
O859   O     0.89644   0.21302   0.87241   0.00000  Uiso   1.00
C860   C     0.87645   0.25292   0.88605   0.00000  Uiso   1.00
H861   H     0.89746   0.27564   0.85858   0.00000  Uiso   1.00
H862   H     0.87818   0.26320   0.92515   0.00000  Uiso   1.00
H863   H     0.83878   0.25405   0.88333   0.00000  Uiso   1.00
H864   H     0.90081   0.29504   0.68991   0.00000  Uiso   1.00
C865   C     0.16683   0.57918   0.74972   0.00000  Uiso   1.00
C866   C     0.14576   0.51045   0.98925   0.00000  Uiso   1.00
C867   C     0.16161   0.51393   0.93516   0.00000  Uiso   1.00
C868   C     0.18064   0.50247   0.51608   0.00000  Uiso   1.00
C869   C     0.22881   0.49377   0.98783   0.00000  Uiso   1.00
C870   C     0.24408   0.50288   0.93598   0.00000  Uiso   1.00
C871   C     0.21168   0.51966   0.91252   0.00000  Uiso   1.00
C872   C     0.16988   0.50397   0.56971   0.00000  Uiso   1.00
C873   C     0.25075   0.48183   0.56623   0.00000  Uiso   1.00
C874   C     0.12733   0.51222   0.90614   0.00000  Uiso   1.00
C875   C     0.20496   0.64502   0.71637   0.00000  Uiso   1.00
C876   C     0.14131   0.50386   0.84962   0.00000  Uiso   1.00
C877   C     0.20531   0.35462   0.71707   0.00000  Uiso   1.00
C878   C     0.16621   0.37624   0.74895   0.00000  Uiso   1.00
C879   C     0.12675   0.35506   0.77997   0.00000  Uiso   1.00
C880   C     0.12718   0.64551   0.78041   0.00000  Uiso   1.00
C881   C     0.16664   0.62385   0.74917   0.00000  Uiso   1.00
C882   C     0.30553   0.53434   0.76595   0.00000  Uiso   1.00
C883   C     0.02017   0.53246   0.77110   0.00000  Uiso   1.00
C884   C     0.02926   0.46701   0.73043   0.00000  Uiso   1.00
C885   C     0.31298   0.46659   0.73166   0.00000  Uiso   1.00
C886   C     0.16653   0.42085   0.74966   0.00000  Uiso   1.00
C887   C     0.19204   0.49850   0.65060   0.00000  Uiso   1.00
C888   C     0.26241   0.48073   0.51281   0.00000  Uiso   1.00
C889   C     0.20501   0.49511   0.59466   0.00000  Uiso   1.00
C890   C     0.07844   0.51758   0.93216   0.00000  Uiso   1.00
C891   C     0.06325   0.52290   0.98545   0.00000  Uiso   1.00
C892   C     0.09614   0.51543   0.51399   0.00000  Uiso   1.00
Cu893  Cu    0.11978   0.49999   0.75000   0.00000  Uiso   1.00
Cu894  Cu    0.21355   0.50001   0.75000   0.00000  Uiso   1.00
H895   H     0.27767   0.47324   0.58516   0.00000  Uiso   1.00
H896   H     0.09632   0.37171   0.80460   0.00000  Uiso   1.00
H897   H     0.09716   0.62933   0.80552   0.00000  Uiso   1.00
H898   H     0.29838   0.43965   0.71665   0.00000  Uiso   1.00
H899   H     0.28196   0.50171   0.91591   0.00000  Uiso   1.00
H900   H     0.29831   0.47151   0.99092   0.00000  Uiso   1.00
H901   H     0.08185   0.51308   0.55495   0.00000  Uiso   1.00
N902   N     0.04931   0.49999   0.74999   0.00000  Uiso   1.00
N903   N     0.28402   0.50002   0.75000   0.00000  Uiso   1.00
O904   O     0.12708   0.56011   0.75001   0.00000  Uiso   1.00
O905   O     0.20627   0.56012   0.75001   0.00000  Uiso   1.00
O906   O     0.10775   0.49998   0.82549   0.00000  Uiso   1.00
O907   O     0.18694   0.49999   0.82549   0.00000  Uiso   1.00
O908   O     0.12706   0.43988   0.75000   0.00000  Uiso   1.00
O909   O     0.20625   0.43989   0.75000   0.00000  Uiso   1.00
O910   O     0.14640   0.50001   0.67451   0.00000  Uiso   1.00
O911   O     0.22559   0.50002   0.67451   0.00000  Uiso   1.00
H912   H     0.23545   0.37093   0.69209   0.00000  Uiso   1.00
O913   O     0.28082   0.57115   0.77746   0.00000  Uiso   1.00
C914   C     0.30221   0.60040   0.73982   0.00000  Uiso   1.00
H915   H     0.29981   0.58988   0.70111   0.00000  Uiso   1.00
H916   H     0.00697   0.60742   0.73815   0.00000  Uiso   1.00
H917   H     0.28269   0.63006   0.75032   0.00000  Uiso   1.00
O918   O     0.03934   0.56518   0.79310   0.00000  Uiso   1.00
C919   C     0.01383   0.57109   0.84523   0.00000  Uiso   1.00
H920   H     0.03855   0.58526   0.86586   0.00000  Uiso   1.00
H921   H     0.00062   0.54166   0.86436   0.00000  Uiso   1.00
H922   H     0.31703   0.59300   0.84911   0.00000  Uiso   1.00
H923   H     0.05134   0.44054   0.71419   0.00000  Uiso   1.00
H924   H     0.13505   0.51405   0.59282   0.00000  Uiso   1.00
H925   H     0.05166   0.51829   0.91111   0.00000  Uiso   1.00
O926   O     0.01490   0.53123   0.50817   0.00000  Uiso   1.00
C927   C     0.00860   0.56081   0.54880   0.00000  Uiso   1.00
H928   H     0.03540   0.58655   0.53950   0.00000  Uiso   1.00
H929   H     0.00960   0.54572   0.58494   0.00000  Uiso   1.00
H930   H     0.30565   0.57469   0.55570   0.00000  Uiso   1.00
O931   O     0.22978   0.54635   0.87241   0.00000  Uiso   1.00
C932   C     0.20978   0.58625   0.88605   0.00000  Uiso   1.00
H933   H     0.23079   0.60897   0.85858   0.00000  Uiso   1.00
H934   H     0.21151   0.59654   0.92515   0.00000  Uiso   1.00
H935   H     0.17211   0.58738   0.88333   0.00000  Uiso   1.00
H936   H     0.23414   0.62838   0.68991   0.00000  Uiso   1.00
C937   C     0.50016   0.57918   0.74972   0.00000  Uiso   1.00
C938   C     0.47909   0.51045   0.98925   0.00000  Uiso   1.00
C939   C     0.49495   0.51393   0.93516   0.00000  Uiso   1.00
C940   C     0.51397   0.50247   0.51608   0.00000  Uiso   1.00
C941   C     0.56214   0.49377   0.98783   0.00000  Uiso   1.00
C942   C     0.57742   0.50288   0.93598   0.00000  Uiso   1.00
C943   C     0.54501   0.51966   0.91252   0.00000  Uiso   1.00
C944   C     0.50322   0.50397   0.56971   0.00000  Uiso   1.00
C945   C     0.58409   0.48183   0.56623   0.00000  Uiso   1.00
C946   C     0.46066   0.51222   0.90614   0.00000  Uiso   1.00
C947   C     0.53829   0.64502   0.71637   0.00000  Uiso   1.00
C948   C     0.47465   0.50386   0.84962   0.00000  Uiso   1.00
C949   C     0.53865   0.35462   0.71707   0.00000  Uiso   1.00
C950   C     0.49955   0.37624   0.74895   0.00000  Uiso   1.00
C951   C     0.46008   0.35506   0.77997   0.00000  Uiso   1.00
C952   C     0.46051   0.64551   0.78041   0.00000  Uiso   1.00
C953   C     0.49997   0.62385   0.74917   0.00000  Uiso   1.00
C954   C     0.63886   0.53434   0.76595   0.00000  Uiso   1.00
C955   C     0.35350   0.53246   0.77110   0.00000  Uiso   1.00
C956   C     0.36260   0.46701   0.73043   0.00000  Uiso   1.00
C957   C     0.64632   0.46659   0.73166   0.00000  Uiso   1.00
C958   C     0.49986   0.42085   0.74966   0.00000  Uiso   1.00
C959   C     0.52537   0.49850   0.65060   0.00000  Uiso   1.00
C960   C     0.59574   0.48073   0.51281   0.00000  Uiso   1.00
C961   C     0.53835   0.49511   0.59466   0.00000  Uiso   1.00
C962   C     0.41177   0.51758   0.93216   0.00000  Uiso   1.00
C963   C     0.39659   0.52290   0.98545   0.00000  Uiso   1.00
C964   C     0.42947   0.51543   0.51399   0.00000  Uiso   1.00
Cu965  Cu    0.45311   0.49999   0.75000   0.00000  Uiso   1.00
Cu966  Cu    0.54689   0.50001   0.75000   0.00000  Uiso   1.00
H967   H     0.61100   0.47324   0.58516   0.00000  Uiso   1.00
H968   H     0.42965   0.37171   0.80460   0.00000  Uiso   1.00
H969   H     0.43049   0.62933   0.80552   0.00000  Uiso   1.00
H970   H     0.63171   0.43965   0.71665   0.00000  Uiso   1.00
H971   H     0.61529   0.50171   0.91591   0.00000  Uiso   1.00
H972   H     0.63165   0.47151   0.99092   0.00000  Uiso   1.00
H973   H     0.41518   0.51308   0.55495   0.00000  Uiso   1.00
N974   N     0.38265   0.49999   0.74999   0.00000  Uiso   1.00
N975   N     0.61735   0.50002   0.75000   0.00000  Uiso   1.00
O976   O     0.46042   0.56011   0.75001   0.00000  Uiso   1.00
O977   O     0.53961   0.56012   0.75001   0.00000  Uiso   1.00
O978   O     0.44108   0.49998   0.82549   0.00000  Uiso   1.00
O979   O     0.52027   0.49999   0.82549   0.00000  Uiso   1.00
O980   O     0.46039   0.43988   0.75000   0.00000  Uiso   1.00
O981   O     0.53958   0.43989   0.75000   0.00000  Uiso   1.00
O982   O     0.47973   0.50001   0.67451   0.00000  Uiso   1.00
O983   O     0.55892   0.50002   0.67451   0.00000  Uiso   1.00
H984   H     0.56878   0.37093   0.69209   0.00000  Uiso   1.00
O985   O     0.61415   0.57115   0.77746   0.00000  Uiso   1.00
C986   C     0.63554   0.60040   0.73982   0.00000  Uiso   1.00
H987   H     0.63314   0.58988   0.70111   0.00000  Uiso   1.00
H988   H     0.34031   0.60742   0.73815   0.00000  Uiso   1.00
H989   H     0.61603   0.63006   0.75032   0.00000  Uiso   1.00
O990   O     0.37267   0.56518   0.79310   0.00000  Uiso   1.00
C991   C     0.34716   0.57109   0.84523   0.00000  Uiso   1.00
H992   H     0.37188   0.58526   0.86586   0.00000  Uiso   1.00
H993   H     0.33395   0.54166   0.86436   0.00000  Uiso   1.00
H994   H     0.65036   0.59300   0.84911   0.00000  Uiso   1.00
H995   H     0.38467   0.44054   0.71419   0.00000  Uiso   1.00
H996   H     0.46839   0.51405   0.59282   0.00000  Uiso   1.00
H997   H     0.38499   0.51829   0.91111   0.00000  Uiso   1.00
O998   O     0.34824   0.53123   0.50817   0.00000  Uiso   1.00
C999   C     0.34194   0.56081   0.54880   0.00000  Uiso   1.00
H1000  H     0.36873   0.58655   0.53950   0.00000  Uiso   1.00
H1001  H     0.34293   0.54572   0.58494   0.00000  Uiso   1.00
H1002  H     0.63898   0.57469   0.55570   0.00000  Uiso   1.00
O1003  O     0.56311   0.54635   0.87241   0.00000  Uiso   1.00
C1004  C     0.54312   0.58625   0.88605   0.00000  Uiso   1.00
H1005  H     0.56413   0.60897   0.85858   0.00000  Uiso   1.00
H1006  H     0.54484   0.59654   0.92515   0.00000  Uiso   1.00
H1007  H     0.50544   0.58738   0.88333   0.00000  Uiso   1.00
H1008  H     0.56748   0.62838   0.68991   0.00000  Uiso   1.00
C1009  C     0.83350   0.57918   0.74972   0.00000  Uiso   1.00
C1010  C     0.81243   0.51045   0.98925   0.00000  Uiso   1.00
C1011  C     0.82828   0.51393   0.93516   0.00000  Uiso   1.00
C1012  C     0.84731   0.50247   0.51608   0.00000  Uiso   1.00
C1013  C     0.89547   0.49377   0.98783   0.00000  Uiso   1.00
C1014  C     0.91075   0.50288   0.93598   0.00000  Uiso   1.00
C1015  C     0.87834   0.51966   0.91252   0.00000  Uiso   1.00
C1016  C     0.83655   0.50397   0.56971   0.00000  Uiso   1.00
C1017  C     0.91742   0.48183   0.56623   0.00000  Uiso   1.00
C1018  C     0.79399   0.51222   0.90614   0.00000  Uiso   1.00
C1019  C     0.87163   0.64502   0.71637   0.00000  Uiso   1.00
C1020  C     0.80798   0.50386   0.84962   0.00000  Uiso   1.00
C1021  C     0.87198   0.35462   0.71707   0.00000  Uiso   1.00
C1022  C     0.83288   0.37624   0.74895   0.00000  Uiso   1.00
C1023  C     0.79342   0.35506   0.77997   0.00000  Uiso   1.00
C1024  C     0.79385   0.64551   0.78041   0.00000  Uiso   1.00
C1025  C     0.83331   0.62385   0.74917   0.00000  Uiso   1.00
C1026  C     0.97220   0.53434   0.76595   0.00000  Uiso   1.00
C1027  C     0.68683   0.53246   0.77110   0.00000  Uiso   1.00
C1028  C     0.69593   0.46701   0.73043   0.00000  Uiso   1.00
C1029  C     0.97965   0.46659   0.73166   0.00000  Uiso   1.00
C1030  C     0.83319   0.42085   0.74966   0.00000  Uiso   1.00
C1031  C     0.85870   0.49850   0.65060   0.00000  Uiso   1.00
C1032  C     0.92908   0.48073   0.51281   0.00000  Uiso   1.00
C1033  C     0.87168   0.49511   0.59466   0.00000  Uiso   1.00
C1034  C     0.74510   0.51758   0.93216   0.00000  Uiso   1.00
C1035  C     0.72992   0.52290   0.98545   0.00000  Uiso   1.00
C1036  C     0.76281   0.51543   0.51399   0.00000  Uiso   1.00
Cu1037 Cu    0.78645   0.49999   0.75000   0.00000  Uiso   1.00
Cu1038 Cu    0.88022   0.50001   0.75000   0.00000  Uiso   1.00
H1039  H     0.94433   0.47324   0.58516   0.00000  Uiso   1.00
H1040  H     0.76299   0.37171   0.80460   0.00000  Uiso   1.00
H1041  H     0.76382   0.62933   0.80552   0.00000  Uiso   1.00
H1042  H     0.96504   0.43965   0.71665   0.00000  Uiso   1.00
H1043  H     0.94862   0.50171   0.91591   0.00000  Uiso   1.00
H1044  H     0.96498   0.47151   0.99092   0.00000  Uiso   1.00
H1045  H     0.74851   0.51308   0.55495   0.00000  Uiso   1.00
N1046  N     0.71598   0.49999   0.74999   0.00000  Uiso   1.00
N1047  N     0.95069   0.50002   0.75000   0.00000  Uiso   1.00
O1048  O     0.79375   0.56011   0.75001   0.00000  Uiso   1.00
O1049  O     0.87294   0.56012   0.75001   0.00000  Uiso   1.00
O1050  O     0.77441   0.49998   0.82549   0.00000  Uiso   1.00
O1051  O     0.85360   0.49999   0.82549   0.00000  Uiso   1.00
O1052  O     0.79373   0.43988   0.75000   0.00000  Uiso   1.00
O1053  O     0.87292   0.43989   0.75000   0.00000  Uiso   1.00
O1054  O     0.81306   0.50001   0.67451   0.00000  Uiso   1.00
O1055  O     0.89225   0.50002   0.67451   0.00000  Uiso   1.00
H1056  H     0.90211   0.37093   0.69209   0.00000  Uiso   1.00
O1057  O     0.94749   0.57115   0.77746   0.00000  Uiso   1.00
C1058  C     0.96887   0.60040   0.73982   0.00000  Uiso   1.00
H1059  H     0.96647   0.58988   0.70111   0.00000  Uiso   1.00
H1060  H     0.67364   0.60742   0.73815   0.00000  Uiso   1.00
H1061  H     0.94936   0.63006   0.75032   0.00000  Uiso   1.00
O1062  O     0.70601   0.56518   0.79310   0.00000  Uiso   1.00
C1063  C     0.68050   0.57109   0.84523   0.00000  Uiso   1.00
H1064  H     0.70521   0.58526   0.86586   0.00000  Uiso   1.00
H1065  H     0.66728   0.54166   0.86436   0.00000  Uiso   1.00
H1066  H     0.98369   0.59300   0.84911   0.00000  Uiso   1.00
H1067  H     0.71800   0.44054   0.71419   0.00000  Uiso   1.00
H1068  H     0.80172   0.51405   0.59282   0.00000  Uiso   1.00
H1069  H     0.71832   0.51829   0.91111   0.00000  Uiso   1.00
O1070  O     0.68157   0.53123   0.50817   0.00000  Uiso   1.00
C1071  C     0.67527   0.56081   0.54880   0.00000  Uiso   1.00
H1072  H     0.70206   0.58655   0.53950   0.00000  Uiso   1.00
H1073  H     0.67627   0.54572   0.58494   0.00000  Uiso   1.00
H1074  H     0.97232   0.57469   0.55570   0.00000  Uiso   1.00
O1075  O     0.89644   0.54635   0.87241   0.00000  Uiso   1.00
C1076  C     0.87645   0.58625   0.88605   0.00000  Uiso   1.00
H1077  H     0.89746   0.60897   0.85858   0.00000  Uiso   1.00
H1078  H     0.87818   0.59654   0.92515   0.00000  Uiso   1.00
H1079  H     0.83878   0.58738   0.88333   0.00000  Uiso   1.00
H1080  H     0.90081   0.62838   0.68991   0.00000  Uiso   1.00
C1081  C     0.16683   0.91251   0.74972   0.00000  Uiso   1.00
C1082  C     0.14576   0.84379   0.98925   0.00000  Uiso   1.00
C1083  C     0.16161   0.84726   0.93516   0.00000  Uiso   1.00
C1084  C     0.18064   0.83581   0.51608   0.00000  Uiso   1.00
C1085  C     0.22881   0.82710   0.98783   0.00000  Uiso   1.00
C1086  C     0.24408   0.83622   0.93598   0.00000  Uiso   1.00
C1087  C     0.21168   0.85299   0.91252   0.00000  Uiso   1.00
C1088  C     0.16988   0.83730   0.56971   0.00000  Uiso   1.00
C1089  C     0.25075   0.81516   0.56623   0.00000  Uiso   1.00
C1090  C     0.12733   0.84555   0.90614   0.00000  Uiso   1.00
C1091  C     0.20496   0.97836   0.71637   0.00000  Uiso   1.00
C1092  C     0.14131   0.83720   0.84962   0.00000  Uiso   1.00
C1093  C     0.20531   0.68795   0.71707   0.00000  Uiso   1.00
C1094  C     0.16621   0.70957   0.74895   0.00000  Uiso   1.00
C1095  C     0.12675   0.68840   0.77997   0.00000  Uiso   1.00
C1096  C     0.12718   0.97884   0.78041   0.00000  Uiso   1.00
C1097  C     0.16664   0.95718   0.74917   0.00000  Uiso   1.00
C1098  C     0.30553   0.86768   0.76595   0.00000  Uiso   1.00
C1099  C     0.02017   0.86580   0.77110   0.00000  Uiso   1.00
C1100  C     0.02926   0.80035   0.73043   0.00000  Uiso   1.00
C1101  C     0.31298   0.79992   0.73166   0.00000  Uiso   1.00
C1102  C     0.16653   0.75419   0.74966   0.00000  Uiso   1.00
C1103  C     0.19204   0.83183   0.65060   0.00000  Uiso   1.00
C1104  C     0.26241   0.81407   0.51281   0.00000  Uiso   1.00
C1105  C     0.20501   0.82844   0.59466   0.00000  Uiso   1.00
C1106  C     0.07844   0.85091   0.93216   0.00000  Uiso   1.00
C1107  C     0.06325   0.85623   0.98545   0.00000  Uiso   1.00
C1108  C     0.09614   0.84876   0.51399   0.00000  Uiso   1.00
Cu1109 Cu    0.11978   0.83333   0.75000   0.00000  Uiso   1.00
Cu1110 Cu    0.21355   0.83334   0.75000   0.00000  Uiso   1.00
H1111  H     0.27767   0.80657   0.58516   0.00000  Uiso   1.00
H1112  H     0.09632   0.70504   0.80460   0.00000  Uiso   1.00
H1113  H     0.09716   0.96267   0.80552   0.00000  Uiso   1.00
H1114  H     0.29838   0.77299   0.71665   0.00000  Uiso   1.00
H1115  H     0.28196   0.83505   0.91591   0.00000  Uiso   1.00
H1116  H     0.29831   0.80484   0.99092   0.00000  Uiso   1.00
H1117  H     0.08185   0.84642   0.55495   0.00000  Uiso   1.00
N1118  N     0.04931   0.83332   0.74999   0.00000  Uiso   1.00
N1119  N     0.28402   0.83335   0.75000   0.00000  Uiso   1.00
O1120  O     0.12708   0.89345   0.75001   0.00000  Uiso   1.00
O1121  O     0.20627   0.89346   0.75001   0.00000  Uiso   1.00
O1122  O     0.10775   0.83332   0.82549   0.00000  Uiso   1.00
O1123  O     0.18694   0.83333   0.82549   0.00000  Uiso   1.00
O1124  O     0.12706   0.77321   0.75000   0.00000  Uiso   1.00
O1125  O     0.20625   0.77322   0.75000   0.00000  Uiso   1.00
O1126  O     0.14640   0.83334   0.67451   0.00000  Uiso   1.00
O1127  O     0.22559   0.83335   0.67451   0.00000  Uiso   1.00
H1128  H     0.23545   0.70426   0.69209   0.00000  Uiso   1.00
O1129  O     0.28082   0.90448   0.77746   0.00000  Uiso   1.00
C1130  C     0.30221   0.93374   0.73982   0.00000  Uiso   1.00
H1131  H     0.29981   0.92322   0.70111   0.00000  Uiso   1.00
H1132  H     0.00697   0.94075   0.73815   0.00000  Uiso   1.00
H1133  H     0.28269   0.96340   0.75032   0.00000  Uiso   1.00
O1134  O     0.03934   0.89851   0.79310   0.00000  Uiso   1.00
C1135  C     0.01383   0.90442   0.84523   0.00000  Uiso   1.00
H1136  H     0.03855   0.91860   0.86586   0.00000  Uiso   1.00
H1137  H     0.00062   0.87499   0.86436   0.00000  Uiso   1.00
H1138  H     0.31703   0.92633   0.84911   0.00000  Uiso   1.00
H1139  H     0.05134   0.77387   0.71419   0.00000  Uiso   1.00
H1140  H     0.13505   0.84738   0.59282   0.00000  Uiso   1.00
H1141  H     0.05166   0.85162   0.91111   0.00000  Uiso   1.00
O1142  O     0.01490   0.86456   0.50817   0.00000  Uiso   1.00
C1143  C     0.00860   0.89414   0.54880   0.00000  Uiso   1.00
H1144  H     0.03540   0.91988   0.53950   0.00000  Uiso   1.00
H1145  H     0.00960   0.87905   0.58494   0.00000  Uiso   1.00
H1146  H     0.30565   0.90802   0.55570   0.00000  Uiso   1.00
O1147  O     0.22978   0.87968   0.87241   0.00000  Uiso   1.00
C1148  C     0.20978   0.91958   0.88605   0.00000  Uiso   1.00
H1149  H     0.23079   0.94230   0.85858   0.00000  Uiso   1.00
H1150  H     0.21151   0.92987   0.92515   0.00000  Uiso   1.00
H1151  H     0.17211   0.92071   0.88333   0.00000  Uiso   1.00
H1152  H     0.23414   0.96171   0.68991   0.00000  Uiso   1.00
C1153  C     0.50016   0.91251   0.74972   0.00000  Uiso   1.00
C1154  C     0.47909   0.84379   0.98925   0.00000  Uiso   1.00
C1155  C     0.49495   0.84726   0.93516   0.00000  Uiso   1.00
C1156  C     0.51397   0.83581   0.51608   0.00000  Uiso   1.00
C1157  C     0.56214   0.82710   0.98783   0.00000  Uiso   1.00
C1158  C     0.57742   0.83622   0.93598   0.00000  Uiso   1.00
C1159  C     0.54501   0.85299   0.91252   0.00000  Uiso   1.00
C1160  C     0.50322   0.83730   0.56971   0.00000  Uiso   1.00
C1161  C     0.58409   0.81516   0.56623   0.00000  Uiso   1.00
C1162  C     0.46066   0.84555   0.90614   0.00000  Uiso   1.00
C1163  C     0.53829   0.97836   0.71637   0.00000  Uiso   1.00
C1164  C     0.47465   0.83720   0.84962   0.00000  Uiso   1.00
C1165  C     0.53865   0.68795   0.71707   0.00000  Uiso   1.00
C1166  C     0.49955   0.70957   0.74895   0.00000  Uiso   1.00
C1167  C     0.46008   0.68840   0.77997   0.00000  Uiso   1.00
C1168  C     0.46051   0.97884   0.78041   0.00000  Uiso   1.00
C1169  C     0.49997   0.95718   0.74917   0.00000  Uiso   1.00
C1170  C     0.63886   0.86768   0.76595   0.00000  Uiso   1.00
C1171  C     0.35350   0.86580   0.77110   0.00000  Uiso   1.00
C1172  C     0.36260   0.80035   0.73043   0.00000  Uiso   1.00
C1173  C     0.64632   0.79992   0.73166   0.00000  Uiso   1.00
C1174  C     0.49986   0.75419   0.74966   0.00000  Uiso   1.00
C1175  C     0.52537   0.83183   0.65060   0.00000  Uiso   1.00
C1176  C     0.59574   0.81407   0.51281   0.00000  Uiso   1.00
C1177  C     0.53835   0.82844   0.59466   0.00000  Uiso   1.00
C1178  C     0.41177   0.85091   0.93216   0.00000  Uiso   1.00
C1179  C     0.39659   0.85623   0.98545   0.00000  Uiso   1.00
C1180  C     0.42947   0.84876   0.51399   0.00000  Uiso   1.00
Cu1181 Cu    0.45311   0.83333   0.75000   0.00000  Uiso   1.00
Cu1182 Cu    0.54689   0.83334   0.75000   0.00000  Uiso   1.00
H1183  H     0.61100   0.80657   0.58516   0.00000  Uiso   1.00
H1184  H     0.42965   0.70504   0.80460   0.00000  Uiso   1.00
H1185  H     0.43049   0.96267   0.80552   0.00000  Uiso   1.00
H1186  H     0.63171   0.77299   0.71665   0.00000  Uiso   1.00
H1187  H     0.61529   0.83505   0.91591   0.00000  Uiso   1.00
H1188  H     0.63165   0.80484   0.99092   0.00000  Uiso   1.00
H1189  H     0.41518   0.84642   0.55495   0.00000  Uiso   1.00
N1190  N     0.38265   0.83332   0.74999   0.00000  Uiso   1.00
N1191  N     0.61735   0.83335   0.75000   0.00000  Uiso   1.00
O1192  O     0.46042   0.89345   0.75001   0.00000  Uiso   1.00
O1193  O     0.53961   0.89346   0.75001   0.00000  Uiso   1.00
O1194  O     0.44108   0.83332   0.82549   0.00000  Uiso   1.00
O1195  O     0.52027   0.83333   0.82549   0.00000  Uiso   1.00
O1196  O     0.46039   0.77321   0.75000   0.00000  Uiso   1.00
O1197  O     0.53958   0.77322   0.75000   0.00000  Uiso   1.00
O1198  O     0.47973   0.83334   0.67451   0.00000  Uiso   1.00
O1199  O     0.55892   0.83335   0.67451   0.00000  Uiso   1.00
H1200  H     0.56878   0.70426   0.69209   0.00000  Uiso   1.00
O1201  O     0.61415   0.90448   0.77746   0.00000  Uiso   1.00
C1202  C     0.63554   0.93374   0.73982   0.00000  Uiso   1.00
H1203  H     0.63314   0.92322   0.70111   0.00000  Uiso   1.00
H1204  H     0.34031   0.94075   0.73815   0.00000  Uiso   1.00
H1205  H     0.61603   0.96340   0.75032   0.00000  Uiso   1.00
O1206  O     0.37267   0.89851   0.79310   0.00000  Uiso   1.00
C1207  C     0.34716   0.90442   0.84523   0.00000  Uiso   1.00
H1208  H     0.37188   0.91860   0.86586   0.00000  Uiso   1.00
H1209  H     0.33395   0.87499   0.86436   0.00000  Uiso   1.00
H1210  H     0.65036   0.92633   0.84911   0.00000  Uiso   1.00
H1211  H     0.38467   0.77387   0.71419   0.00000  Uiso   1.00
H1212  H     0.46839   0.84738   0.59282   0.00000  Uiso   1.00
H1213  H     0.38499   0.85162   0.91111   0.00000  Uiso   1.00
O1214  O     0.34824   0.86456   0.50817   0.00000  Uiso   1.00
C1215  C     0.34194   0.89414   0.54880   0.00000  Uiso   1.00
H1216  H     0.36873   0.91988   0.53950   0.00000  Uiso   1.00
H1217  H     0.34293   0.87905   0.58494   0.00000  Uiso   1.00
H1218  H     0.63898   0.90802   0.55570   0.00000  Uiso   1.00
O1219  O     0.56311   0.87968   0.87241   0.00000  Uiso   1.00
C1220  C     0.54312   0.91958   0.88605   0.00000  Uiso   1.00
H1221  H     0.56413   0.94230   0.85858   0.00000  Uiso   1.00
H1222  H     0.54484   0.92987   0.92515   0.00000  Uiso   1.00
H1223  H     0.50544   0.92071   0.88333   0.00000  Uiso   1.00
H1224  H     0.56748   0.96171   0.68991   0.00000  Uiso   1.00
C1225  C     0.83350   0.91251   0.74972   0.00000  Uiso   1.00
C1226  C     0.81243   0.84379   0.98925   0.00000  Uiso   1.00
C1227  C     0.82828   0.84726   0.93516   0.00000  Uiso   1.00
C1228  C     0.84731   0.83581   0.51608   0.00000  Uiso   1.00
C1229  C     0.89547   0.82710   0.98783   0.00000  Uiso   1.00
C1230  C     0.91075   0.83622   0.93598   0.00000  Uiso   1.00
C1231  C     0.87834   0.85299   0.91252   0.00000  Uiso   1.00
C1232  C     0.83655   0.83730   0.56971   0.00000  Uiso   1.00
C1233  C     0.91742   0.81516   0.56623   0.00000  Uiso   1.00
C1234  C     0.79399   0.84555   0.90614   0.00000  Uiso   1.00
C1235  C     0.87163   0.97836   0.71637   0.00000  Uiso   1.00
C1236  C     0.80798   0.83720   0.84962   0.00000  Uiso   1.00
C1237  C     0.87198   0.68795   0.71707   0.00000  Uiso   1.00
C1238  C     0.83288   0.70957   0.74895   0.00000  Uiso   1.00
C1239  C     0.79342   0.68840   0.77997   0.00000  Uiso   1.00
C1240  C     0.79385   0.97884   0.78041   0.00000  Uiso   1.00
C1241  C     0.83331   0.95718   0.74917   0.00000  Uiso   1.00
C1242  C     0.97220   0.86768   0.76595   0.00000  Uiso   1.00
C1243  C     0.68683   0.86580   0.77110   0.00000  Uiso   1.00
C1244  C     0.69593   0.80035   0.73043   0.00000  Uiso   1.00
C1245  C     0.97965   0.79992   0.73166   0.00000  Uiso   1.00
C1246  C     0.83319   0.75419   0.74966   0.00000  Uiso   1.00
C1247  C     0.85870   0.83183   0.65060   0.00000  Uiso   1.00
C1248  C     0.92908   0.81407   0.51281   0.00000  Uiso   1.00
C1249  C     0.87168   0.82844   0.59466   0.00000  Uiso   1.00
C1250  C     0.74510   0.85091   0.93216   0.00000  Uiso   1.00
C1251  C     0.72992   0.85623   0.98545   0.00000  Uiso   1.00
C1252  C     0.76281   0.84876   0.51399   0.00000  Uiso   1.00
Cu1253 Cu    0.78645   0.83333   0.75000   0.00000  Uiso   1.00
Cu1254 Cu    0.88022   0.83334   0.75000   0.00000  Uiso   1.00
H1255  H     0.94433   0.80657   0.58516   0.00000  Uiso   1.00
H1256  H     0.76299   0.70504   0.80460   0.00000  Uiso   1.00
H1257  H     0.76382   0.96267   0.80552   0.00000  Uiso   1.00
H1258  H     0.96504   0.77299   0.71665   0.00000  Uiso   1.00
H1259  H     0.94862   0.83505   0.91591   0.00000  Uiso   1.00
H1260  H     0.96498   0.80484   0.99092   0.00000  Uiso   1.00
H1261  H     0.74851   0.84642   0.55495   0.00000  Uiso   1.00
N1262  N     0.71598   0.83332   0.74999   0.00000  Uiso   1.00
N1263  N     0.95069   0.83335   0.75000   0.00000  Uiso   1.00
O1264  O     0.79375   0.89345   0.75001   0.00000  Uiso   1.00
O1265  O     0.87294   0.89346   0.75001   0.00000  Uiso   1.00
O1266  O     0.77441   0.83332   0.82549   0.00000  Uiso   1.00
O1267  O     0.85360   0.83333   0.82549   0.00000  Uiso   1.00
O1268  O     0.79373   0.77321   0.75000   0.00000  Uiso   1.00
O1269  O     0.87292   0.77322   0.75000   0.00000  Uiso   1.00
O1270  O     0.81306   0.83334   0.67451   0.00000  Uiso   1.00
O1271  O     0.89225   0.83335   0.67451   0.00000  Uiso   1.00
H1272  H     0.90211   0.70426   0.69209   0.00000  Uiso   1.00
O1273  O     0.94749   0.90448   0.77746   0.00000  Uiso   1.00
C1274  C     0.96887   0.93374   0.73982   0.00000  Uiso   1.00
H1275  H     0.96647   0.92322   0.70111   0.00000  Uiso   1.00
H1276  H     0.67364   0.94075   0.73815   0.00000  Uiso   1.00
H1277  H     0.94936   0.96340   0.75032   0.00000  Uiso   1.00
O1278  O     0.70601   0.89851   0.79310   0.00000  Uiso   1.00
C1279  C     0.68050   0.90442   0.84523   0.00000  Uiso   1.00
H1280  H     0.70521   0.91860   0.86586   0.00000  Uiso   1.00
H1281  H     0.66728   0.87499   0.86436   0.00000  Uiso   1.00
H1282  H     0.98369   0.92633   0.84911   0.00000  Uiso   1.00
H1283  H     0.71800   0.77387   0.71419   0.00000  Uiso   1.00
H1284  H     0.80172   0.84738   0.59282   0.00000  Uiso   1.00
H1285  H     0.71832   0.85162   0.91111   0.00000  Uiso   1.00
O1286  O     0.68157   0.86456   0.50817   0.00000  Uiso   1.00
C1287  C     0.67527   0.89414   0.54880   0.00000  Uiso   1.00
H1288  H     0.70206   0.91988   0.53950   0.00000  Uiso   1.00
H1289  H     0.67627   0.87905   0.58494   0.00000  Uiso   1.00
H1290  H     0.97232   0.90802   0.55570   0.00000  Uiso   1.00
O1291  O     0.89644   0.87968   0.87241   0.00000  Uiso   1.00
C1292  C     0.87645   0.91958   0.88605   0.00000  Uiso   1.00
H1293  H     0.89746   0.94230   0.85858   0.00000  Uiso   1.00
H1294  H     0.87818   0.92987   0.92515   0.00000  Uiso   1.00
H1295  H     0.83878   0.92071   0.88333   0.00000  Uiso   1.00
H1296  H     0.90081   0.96171   0.68991   0.00000  Uiso   1.00
loop_
_geom_bond_atom_site_label_1
_geom_bond_atom_site_label_2
_geom_bond_distance
_geom_bond_site_symmetry_2
_ccdc_geom_bond_type
C1     C17     1.443   .     S
C1     O41     1.302   .     A
C1     O40     1.294   .     A
C2     C3      1.415   .     A
C2     C652    1.423   .     S
C2     C676    1.413   .     S
C3     C10     1.422   .     A
C3     C7      1.418   .     A
C4     C8      1.397   .     A
C4     C650    1.423   1_554 S
C4     C653    1.417   1_554 S
C5     C6      1.388   .     A
C5     C652    1.417   .     S
C5     C672    1.399   .     S
C6     C7      1.388   .     A
C6     H35     1.079   .     S
C7     O67     1.385   .     S
C8     H60     1.076   .     S
C8     C25     1.399   .     A
C9     C24     1.390   .     A
C9     C25     1.398   .     A
C9     H31     1.083   .     S
C10    C26     1.403   .     A
C10    C12     1.488   .     S
C11    C17     1.397   .     A
C11    H72     1.081   .     S
C11    C229    1.386   .     S
C12    O43     1.304   .     A
C12    O42     1.312   .     A
C13    H48     1.084   .     S
C13    C14     1.399   .     A
C13    C443    1.386   1_545 S
C14    C22     1.441   .     S
C14    C15     1.398   .     A
C15    H32     1.084   .     S
C15    C448    1.386   1_545 S
C16    H33     1.081   .     S
C16    C17     1.399   .     A
C16    C231    1.386   .     S
C18    N39     1.382   .     A
C18    O49     1.377   .     S
C18    C91     1.431   .     S
C19    N38     1.363   .     A
C19    O54     1.384   .     S
C19    C162    1.431   1_455 S
C20    N38     1.370   .     A
C20    H59     1.081   .     S
C20    C165    1.423   1_455 S
C21    H34     1.081   .     S
C21    N39     1.369   .     A
C21    C92     1.423   .     S
C22    O45     1.297   .     A
C22    O44     1.298   .     A
C23    C25     1.457   .     S
C23    O47     1.304   .     A
C23    O46     1.299   .     A
C24    C653    1.399   1_554 S
C24    H684    1.083   1_554 S
C26    C27     1.393   .     A
C26    H61     1.080   .     S
C27    C676    1.405   .     S
C27    O710    1.387   .     S
C28    H37     1.075   .     S
C28    C650    1.413   1_554 S
C28    C675    1.405   1_554 S
Cu29   N38     2.034   .     S
Cu29   O46     1.974   .     S
Cu29   Cu30    2.706   .     S
Cu29   O44     1.955   .     S
Cu29   O42     1.975   .     S
Cu29   O40     1.951   .     S
Cu30   O45     1.951   .     S
Cu30   O41     1.955   .     S
Cu30   N39     2.034   .     S
Cu30   O43     1.974   .     S
Cu30   O47     1.975   .     S
H36    C672    1.083   .     S
O49    C50     1.414   .     S
C50    H53     1.107   .     S
C50    H51     1.113   .     S
C50    H124    1.109   .     S
H52    C194    1.109   1_455 S
O54    C55     1.409   .     S
C55    H56     1.109   .     S
C55    H57     1.107   .     S
C55    H202    1.108   1_455 S
H58    C127    1.108   .     S
O62    C63     1.412   .     S
O62    C675    1.387   1_554 S
C63    H65     1.111   .     S
C63    H64     1.114   .     S
C63    H210    1.109   1_455 S
H66    C135    1.109   .     S
O67    C68     1.416   .     S
C68    H71     1.111   .     S
C68    H70     1.115   .     S
C68    H69     1.108   .     S
C73    C89     1.443   .     S
C73    O113    1.302   .     A
C73    O112    1.294   .     A
C74    C75     1.415   .     A
C74    C724    1.423   .     S
C74    C748    1.413   .     S
C75    C82     1.422   .     A
C75    C79     1.418   .     A
C76    C80     1.397   .     A
C76    C722    1.423   1_554 S
C76    C725    1.417   1_554 S
C77    C78     1.388   .     A
C77    C724    1.417   .     S
C77    C744    1.399   .     S
C78    C79     1.388   .     A
C78    H107    1.079   .     S
C79    O139    1.385   .     S
C80    H132    1.076   .     S
C80    C97     1.399   .     A
C81    C96     1.390   .     A
C81    C97     1.398   .     A
C81    H103    1.083   .     S
C82    C98     1.403   .     A
C82    C84     1.488   .     S
C83    C89     1.397   .     A
C83    H144    1.081   .     S
C83    C301    1.386   .     S
C84    O115    1.304   .     A
C84    O114    1.312   .     A
C85    H120    1.084   .     S
C85    C86     1.399   .     A
C85    C515    1.386   1_545 S
C86    C94     1.441   .     S
C86    C87     1.398   .     A
C87    H104    1.084   .     S
C87    C520    1.386   1_545 S
C88    H105    1.081   .     S
C88    C89     1.399   .     A
C88    C303    1.386   .     S
C90    N111    1.382   .     A
C90    O121    1.377   .     S
C90    C163    1.431   .     S
C91    N110    1.363   .     A
C91    O126    1.384   .     S
C92    N110    1.370   .     A
C92    H131    1.081   .     S
C93    H106    1.081   .     S
C93    N111    1.369   .     A
C93    C164    1.423   .     S
C94    O117    1.297   .     A
C94    O116    1.298   .     A
C95    C97     1.457   .     S
C95    O119    1.304   .     A
C95    O118    1.299   .     A
C96    C725    1.399   1_554 S
C96    H756    1.083   1_554 S
C98    C99     1.393   .     A
C98    H133    1.080   .     S
C99    C748    1.405   .     S
C99    O782    1.387   .     S
C100   H109    1.075   .     S
C100   C722    1.413   1_554 S
C100   C747    1.405   1_554 S
Cu101  N110    2.034   .     S
Cu101  O118    1.974   .     S
Cu101  Cu102   2.706   .     S
Cu101  O116    1.955   .     S
Cu101  O114    1.975   .     S
Cu101  O112    1.951   .     S
Cu102  O117    1.951   .     S
Cu102  O113    1.955   .     S
Cu102  N111    2.034   .     S
Cu102  O115    1.974   .     S
Cu102  O119    1.975   .     S
H108   C744    1.083   .     S
O121   C122    1.414   .     S
C122   H125    1.107   .     S
C122   H123    1.113   .     S
C122   H196    1.109   .     S
O126   C127    1.409   .     S
C127   H128    1.109   .     S
C127   H129    1.107   .     S
H130   C199    1.108   .     S
O134   C135    1.412   .     S
O134   C747    1.387   1_554 S
C135   H137    1.111   .     S
C135   H136    1.114   .     S
H138   C207    1.109   .     S
O139   C140    1.416   .     S
C140   H143    1.111   .     S
C140   H142    1.115   .     S
C140   H141    1.108   .     S
C145   C161    1.443   .     S
C145   O185    1.302   .     A
C145   O184    1.294   .     A
C146   C147    1.415   .     A
C146   C796    1.423   .     S
C146   C820    1.413   .     S
C147   C154    1.422   .     A
C147   C151    1.418   .     A
C148   C152    1.397   .     A
C148   C794    1.423   1_554 S
C148   C797    1.417   1_554 S
C149   C150    1.388   .     A
C149   C796    1.417   .     S
C149   C816    1.399   .     S
C150   C151    1.388   .     A
C150   H179    1.079   .     S
C151   O211    1.385   .     S
C152   H204    1.076   .     S
C152   C169    1.399   .     A
C153   C168    1.390   .     A
C153   C169    1.398   .     A
C153   H175    1.083   .     S
C154   C170    1.403   .     A
C154   C156    1.488   .     S
C155   C161    1.397   .     A
C155   H216    1.081   .     S
C155   C373    1.386   .     S
C156   O187    1.304   .     A
C156   O186    1.312   .     A
C157   H192    1.084   .     S
C157   C158    1.399   .     A
C157   C587    1.386   1_545 S
C158   C166    1.441   .     S
C158   C159    1.398   .     A
C159   H176    1.084   .     S
C159   C592    1.386   1_545 S
C160   H177    1.081   .     S
C160   C161    1.399   .     A
C160   C375    1.386   .     S
C162   N183    1.382   .     A
C162   O193    1.377   .     S
C162   C19     1.431   1_655 S
C163   N182    1.363   .     A
C163   O198    1.384   .     S
C164   N182    1.370   .     A
C164   H203    1.081   .     S
C165   H178    1.081   .     S
C165   N183    1.369   .     A
C165   C20     1.423   1_655 S
C166   O189    1.297   .     A
C166   O188    1.298   .     A
C167   C169    1.457   .     S
C167   O191    1.304   .     A
C167   O190    1.299   .     A
C168   C797    1.399   1_554 S
C168   H828    1.083   1_554 S
C170   C171    1.393   .     A
C170   H205    1.080   .     S
C171   C820    1.405   .     S
C171   O854    1.387   .     S
C172   H181    1.075   .     S
C172   C794    1.413   1_554 S
C172   C819    1.405   1_554 S
Cu173  N182    2.034   .     S
Cu173  O190    1.974   .     S
Cu173  Cu174   2.706   .     S
Cu173  O188    1.955   .     S
Cu173  O186    1.975   .     S
Cu173  O184    1.951   .     S
Cu174  O189    1.951   .     S
Cu174  O185    1.955   .     S
Cu174  N183    2.034   .     S
Cu174  O187    1.974   .     S
Cu174  O191    1.975   .     S
H180   C816    1.083   .     S
O193   C194    1.414   .     S
C194   H197    1.107   .     S
C194   H195    1.113   .     S
C194   H52     1.109   1_655 S
O198   C199    1.409   .     S
C199   H200    1.109   .     S
C199   H201    1.107   .     S
H202   C55     1.108   1_655 S
O206   C207    1.412   .     S
O206   C819    1.387   1_554 S
C207   H209    1.111   .     S
C207   H208    1.114   .     S
H210   C63     1.109   1_655 S
O211   C212    1.416   .     S
C212   H215    1.111   .     S
C212   H214    1.115   .     S
C212   H213    1.108   .     S
C217   C233    1.443   .     S
C217   O257    1.302   .     A
C217   O256    1.294   .     A
C218   C219    1.415   .     A
C218   C868    1.423   .     S
C218   C892    1.413   .     S
C219   C226    1.422   .     A
C219   C223    1.418   .     A
C220   C224    1.397   .     A
C220   C866    1.423   1_554 S
C220   C869    1.417   1_554 S
C221   C222    1.388   .     A
C221   C868    1.417   .     S
C221   C888    1.399   .     S
C222   C223    1.388   .     A
C222   H251    1.079   .     S
C223   O283    1.385   .     S
C224   H276    1.076   .     S
C224   C241    1.399   .     A
C225   C240    1.390   .     A
C225   C241    1.398   .     A
C225   H247    1.083   .     S
C226   C242    1.403   .     A
C226   C228    1.488   .     S
C227   C233    1.397   .     A
C227   H288    1.081   .     S
C227   C445    1.386   .     S
C228   O259    1.304   .     A
C228   O258    1.312   .     A
C229   H264    1.084   .     S
C229   C230    1.399   .     A
C230   C238    1.441   .     S
C230   C231    1.398   .     A
C231   H248    1.084   .     S
C232   H249    1.081   .     S
C232   C233    1.399   .     A
C232   C447    1.386   .     S
C234   N255    1.382   .     A
C234   O265    1.377   .     S
C234   C307    1.431   .     S
C235   N254    1.363   .     A
C235   O270    1.384   .     S
C235   C378    1.431   1_455 S
C236   N254    1.370   .     A
C236   H275    1.081   .     S
C236   C381    1.423   1_455 S
C237   H250    1.081   .     S
C237   N255    1.369   .     A
C237   C308    1.423   .     S
C238   O261    1.297   .     A
C238   O260    1.298   .     A
C239   C241    1.457   .     S
C239   O263    1.304   .     A
C239   O262    1.299   .     A
C240   C869    1.399   1_554 S
C240   H900    1.083   1_554 S
C242   C243    1.393   .     A
C242   H277    1.080   .     S
C243   C892    1.405   .     S
C243   O926    1.387   .     S
C244   H253    1.075   .     S
C244   C866    1.413   1_554 S
C244   C891    1.405   1_554 S
Cu245  N254    2.034   .     S
Cu245  O262    1.974   .     S
Cu245  Cu246   2.706   .     S
Cu245  O260    1.955   .     S
Cu245  O258    1.975   .     S
Cu245  O256    1.951   .     S
Cu246  O261    1.951   .     S
Cu246  O257    1.955   .     S
Cu246  N255    2.034   .     S
Cu246  O259    1.974   .     S
Cu246  O263    1.975   .     S
H252   C888    1.083   .     S
O265   C266    1.414   .     S
C266   H269    1.107   .     S
C266   H267    1.113   .     S
C266   H340    1.109   .     S
H268   C410    1.109   1_455 S
O270   C271    1.409   .     S
C271   H272    1.109   .     S
C271   H273    1.107   .     S
C271   H418    1.108   1_455 S
H274   C343    1.108   .     S
O278   C279    1.412   .     S
O278   C891    1.387   1_554 S
C279   H281    1.111   .     S
C279   H280    1.114   .     S
C279   H426    1.109   1_455 S
H282   C351    1.109   .     S
O283   C284    1.416   .     S
C284   H287    1.111   .     S
C284   H286    1.115   .     S
C284   H285    1.108   .     S
C289   C305    1.443   .     S
C289   O329    1.302   .     A
C289   O328    1.294   .     A
C290   C291    1.415   .     A
C290   C940    1.423   .     S
C290   C964    1.413   .     S
C291   C298    1.422   .     A
C291   C295    1.418   .     A
C292   C296    1.397   .     A
C292   C938    1.423   1_554 S
C292   C941    1.417   1_554 S
C293   C294    1.388   .     A
C293   C940    1.417   .     S
C293   C960    1.399   .     S
C294   C295    1.388   .     A
C294   H323    1.079   .     S
C295   O355    1.385   .     S
C296   H348    1.076   .     S
C296   C313    1.399   .     A
C297   C312    1.390   .     A
C297   C313    1.398   .     A
C297   H319    1.083   .     S
C298   C314    1.403   .     A
C298   C300    1.488   .     S
C299   C305    1.397   .     A
C299   H360    1.081   .     S
C299   C517    1.386   .     S
C300   O331    1.304   .     A
C300   O330    1.312   .     A
C301   H336    1.084   .     S
C301   C302    1.399   .     A
C302   C310    1.441   .     S
C302   C303    1.398   .     A
C303   H320    1.084   .     S
C304   H321    1.081   .     S
C304   C305    1.399   .     A
C304   C519    1.386   .     S
C306   N327    1.382   .     A
C306   O337    1.377   .     S
C306   C379    1.431   .     S
C307   N326    1.363   .     A
C307   O342    1.384   .     S
C308   N326    1.370   .     A
C308   H347    1.081   .     S
C309   H322    1.081   .     S
C309   N327    1.369   .     A
C309   C380    1.423   .     S
C310   O333    1.297   .     A
C310   O332    1.298   .     A
C311   C313    1.457   .     S
C311   O335    1.304   .     A
C311   O334    1.299   .     A
C312   C941    1.399   1_554 S
C312   H972    1.083   1_554 S
C314   C315    1.393   .     A
C314   H349    1.080   .     S
C315   C964    1.405   .     S
C315   O998    1.387   .     S
C316   H325    1.075   .     S
C316   C938    1.413   1_554 S
C316   C963    1.405   1_554 S
Cu317  N326    2.034   .     S
Cu317  O334    1.974   .     S
Cu317  Cu318   2.706   .     S
Cu317  O332    1.955   .     S
Cu317  O330    1.975   .     S
Cu317  O328    1.951   .     S
Cu318  O333    1.951   .     S
Cu318  O329    1.955   .     S
Cu318  N327    2.034   .     S
Cu318  O331    1.974   .     S
Cu318  O335    1.975   .     S
H324   C960    1.083   .     S
O337   C338    1.414   .     S
C338   H341    1.107   .     S
C338   H339    1.113   .     S
C338   H412    1.109   .     S
O342   C343    1.409   .     S
C343   H344    1.109   .     S
C343   H345    1.107   .     S
H346   C415    1.108   .     S
O350   C351    1.412   .     S
O350   C963    1.387   1_554 S
C351   H353    1.111   .     S
C351   H352    1.114   .     S
H354   C423    1.109   .     S
O355   C356    1.416   .     S
C356   H359    1.111   .     S
C356   H358    1.115   .     S
C356   H357    1.108   .     S
C361   C377    1.443   .     S
C361   O401    1.302   .     A
C361   O400    1.294   .     A
C362   C363    1.415   .     A
C362   C1012   1.423   .     S
C362   C1036   1.413   .     S
C363   C370    1.422   .     A
C363   C367    1.418   .     A
C364   C368    1.397   .     A
C364   C1010   1.423   1_554 S
C364   C1013   1.417   1_554 S
C365   C366    1.388   .     A
C365   C1012   1.417   .     S
C365   C1032   1.399   .     S
C366   C367    1.388   .     A
C366   H395    1.079   .     S
C367   O427    1.385   .     S
C368   H420    1.076   .     S
C368   C385    1.399   .     A
C369   C384    1.390   .     A
C369   C385    1.398   .     A
C369   H391    1.083   .     S
C370   C386    1.403   .     A
C370   C372    1.488   .     S
C371   C377    1.397   .     A
C371   H432    1.081   .     S
C371   C589    1.386   .     S
C372   O403    1.304   .     A
C372   O402    1.312   .     A
C373   H408    1.084   .     S
C373   C374    1.399   .     A
C374   C382    1.441   .     S
C374   C375    1.398   .     A
C375   H392    1.084   .     S
C376   H393    1.081   .     S
C376   C377    1.399   .     A
C376   C591    1.386   .     S
C378   N399    1.382   .     A
C378   O409    1.377   .     S
C378   C235    1.431   1_655 S
C379   N398    1.363   .     A
C379   O414    1.384   .     S
C380   N398    1.370   .     A
C380   H419    1.081   .     S
C381   H394    1.081   .     S
C381   N399    1.369   .     A
C381   C236    1.423   1_655 S
C382   O405    1.297   .     A
C382   O404    1.298   .     A
C383   C385    1.457   .     S
C383   O407    1.304   .     A
C383   O406    1.299   .     A
C384   C1013   1.399   1_554 S
C384   H1044   1.083   1_554 S
C386   C387    1.393   .     A
C386   H421    1.080   .     S
C387   C1036   1.405   .     S
C387   O1070   1.387   .     S
C388   H397    1.075   .     S
C388   C1010   1.413   1_554 S
C388   C1035   1.405   1_554 S
Cu389  N398    2.034   .     S
Cu389  O406    1.974   .     S
Cu389  Cu390   2.706   .     S
Cu389  O404    1.955   .     S
Cu389  O402    1.975   .     S
Cu389  O400    1.951   .     S
Cu390  O405    1.951   .     S
Cu390  O401    1.955   .     S
Cu390  N399    2.034   .     S
Cu390  O403    1.974   .     S
Cu390  O407    1.975   .     S
H396   C1032   1.083   .     S
O409   C410    1.414   .     S
C410   H413    1.107   .     S
C410   H411    1.113   .     S
C410   H268    1.109   1_655 S
O414   C415    1.409   .     S
C415   H416    1.109   .     S
C415   H417    1.107   .     S
H418   C271    1.108   1_655 S
O422   C423    1.412   .     S
O422   C1035   1.387   1_554 S
C423   H425    1.111   .     S
C423   H424    1.114   .     S
H426   C279    1.109   1_655 S
O427   C428    1.416   .     S
C428   H431    1.111   .     S
C428   H430    1.115   .     S
C428   H429    1.108   .     S
C433   C449    1.443   .     S
C433   O473    1.302   .     A
C433   O472    1.294   .     A
C434   C435    1.415   .     A
C434   C1084   1.423   .     S
C434   C1108   1.413   .     S
C435   C442    1.422   .     A
C435   C439    1.418   .     A
C436   C440    1.397   .     A
C436   C1082   1.423   1_554 S
C436   C1085   1.417   1_554 S
C437   C438    1.388   .     A
C437   C1084   1.417   .     S
C437   C1104   1.399   .     S
C438   C439    1.388   .     A
C438   H467    1.079   .     S
C439   O499    1.385   .     S
C440   H492    1.076   .     S
C440   C457    1.399   .     A
C441   C456    1.390   .     A
C441   C457    1.398   .     A
C441   H463    1.083   .     S
C442   C458    1.403   .     A
C442   C444    1.488   .     S
C443   C449    1.397   .     A
C443   H504    1.081   .     S
C443   C13     1.386   1_565 S
C444   O475    1.304   .     A
C444   O474    1.312   .     A
C445   H480    1.084   .     S
C445   C446    1.399   .     A
C446   C454    1.441   .     S
C446   C447    1.398   .     A
C447   H464    1.084   .     S
C448   H465    1.081   .     S
C448   C449    1.399   .     A
C448   C15     1.386   1_565 S
C450   N471    1.382   .     A
C450   O481    1.377   .     S
C450   C523    1.431   .     S
C451   N470    1.363   .     A
C451   O486    1.384   .     S
C451   C594    1.431   1_455 S
C452   N470    1.370   .     A
C452   H491    1.081   .     S
C452   C597    1.423   1_455 S
C453   H466    1.081   .     S
C453   N471    1.369   .     A
C453   C524    1.423   .     S
C454   O477    1.297   .     A
C454   O476    1.298   .     A
C455   C457    1.457   .     S
C455   O479    1.304   .     A
C455   O478    1.299   .     A
C456   C1085   1.399   1_554 S
C456   H1116   1.083   1_554 S
C458   C459    1.393   .     A
C458   H493    1.080   .     S
C459   C1108   1.405   .     S
C459   O1142   1.387   .     S
C460   H469    1.075   .     S
C460   C1082   1.413   1_554 S
C460   C1107   1.405   1_554 S
Cu461  N470    2.034   .     S
Cu461  O478    1.974   .     S
Cu461  Cu462   2.706   .     S
Cu461  O476    1.955   .     S
Cu461  O474    1.975   .     S
Cu461  O472    1.951   .     S
Cu462  O477    1.951   .     S
Cu462  O473    1.955   .     S
Cu462  N471    2.034   .     S
Cu462  O475    1.974   .     S
Cu462  O479    1.975   .     S
H468   C1104   1.083   .     S
O481   C482    1.414   .     S
C482   H485    1.107   .     S
C482   H483    1.113   .     S
C482   H556    1.109   .     S
H484   C626    1.109   1_455 S
O486   C487    1.409   .     S
C487   H488    1.109   .     S
C487   H489    1.107   .     S
C487   H634    1.108   1_455 S
H490   C559    1.108   .     S
O494   C495    1.412   .     S
O494   C1107   1.387   1_554 S
C495   H497    1.111   .     S
C495   H496    1.114   .     S
C495   H642    1.109   1_455 S
H498   C567    1.109   .     S
O499   C500    1.416   .     S
C500   H503    1.111   .     S
C500   H502    1.115   .     S
C500   H501    1.108   .     S
C505   C521    1.443   .     S
C505   O545    1.302   .     A
C505   O544    1.294   .     A
C506   C507    1.415   .     A
C506   C1156   1.423   .     S
C506   C1180   1.413   .     S
C507   C514    1.422   .     A
C507   C511    1.418   .     A
C508   C512    1.397   .     A
C508   C1154   1.423   1_554 S
C508   C1157   1.417   1_554 S
C509   C510    1.388   .     A
C509   C1156   1.417   .     S
C509   C1176   1.399   .     S
C510   C511    1.388   .     A
C510   H539    1.079   .     S
C511   O571    1.385   .     S
C512   H564    1.076   .     S
C512   C529    1.399   .     A
C513   C528    1.390   .     A
C513   C529    1.398   .     A
C513   H535    1.083   .     S
C514   C530    1.403   .     A
C514   C516    1.488   .     S
C515   C521    1.397   .     A
C515   H576    1.081   .     S
C515   C85     1.386   1_565 S
C516   O547    1.304   .     A
C516   O546    1.312   .     A
C517   H552    1.084   .     S
C517   C518    1.399   .     A
C518   C526    1.441   .     S
C518   C519    1.398   .     A
C519   H536    1.084   .     S
C520   H537    1.081   .     S
C520   C521    1.399   .     A
C520   C87     1.386   1_565 S
C522   N543    1.382   .     A
C522   O553    1.377   .     S
C522   C595    1.431   .     S
C523   N542    1.363   .     A
C523   O558    1.384   .     S
C524   N542    1.370   .     A
C524   H563    1.081   .     S
C525   H538    1.081   .     S
C525   N543    1.369   .     A
C525   C596    1.423   .     S
C526   O549    1.297   .     A
C526   O548    1.298   .     A
C527   C529    1.457   .     S
C527   O551    1.304   .     A
C527   O550    1.299   .     A
C528   C1157   1.399   1_554 S
C528   H1188   1.083   1_554 S
C530   C531    1.393   .     A
C530   H565    1.080   .     S
C531   C1180   1.405   .     S
C531   O1214   1.387   .     S
C532   H541    1.075   .     S
C532   C1154   1.413   1_554 S
C532   C1179   1.405   1_554 S
Cu533  N542    2.034   .     S
Cu533  O550    1.974   .     S
Cu533  Cu534   2.706   .     S
Cu533  O548    1.955   .     S
Cu533  O546    1.975   .     S
Cu533  O544    1.951   .     S
Cu534  O549    1.951   .     S
Cu534  O545    1.955   .     S
Cu534  N543    2.034   .     S
Cu534  O547    1.974   .     S
Cu534  O551    1.975   .     S
H540   C1176   1.083   .     S
O553   C554    1.414   .     S
C554   H557    1.107   .     S
C554   H555    1.113   .     S
C554   H628    1.109   .     S
O558   C559    1.409   .     S
C559   H560    1.109   .     S
C559   H561    1.107   .     S
H562   C631    1.108   .     S
O566   C567    1.412   .     S
O566   C1179   1.387   1_554 S
C567   H569    1.111   .     S
C567   H568    1.114   .     S
H570   C639    1.109   .     S
O571   C572    1.416   .     S
C572   H575    1.111   .     S
C572   H574    1.115   .     S
C572   H573    1.108   .     S
C577   C593    1.443   .     S
C577   O617    1.302   .     A
C577   O616    1.294   .     A
C578   C579    1.415   .     A
C578   C1228   1.423   .     S
C578   C1252   1.413   .     S
C579   C586    1.422   .     A
C579   C583    1.418   .     A
C580   C584    1.397   .     A
C580   C1226   1.423   1_554 S
C580   C1229   1.417   1_554 S
C581   C582    1.388   .     A
C581   C1228   1.417   .     S
C581   C1248   1.399   .     S
C582   C583    1.388   .     A
C582   H611    1.079   .     S
C583   O643    1.385   .     S
C584   H636    1.076   .     S
C584   C601    1.399   .     A
C585   C600    1.390   .     A
C585   C601    1.398   .     A
C585   H607    1.083   .     S
C586   C602    1.403   .     A
C586   C588    1.488   .     S
C587   C593    1.397   .     A
C587   H648    1.081   .     S
C587   C157    1.386   1_565 S
C588   O619    1.304   .     A
C588   O618    1.312   .     A
C589   H624    1.084   .     S
C589   C590    1.399   .     A
C590   C598    1.441   .     S
C590   C591    1.398   .     A
C591   H608    1.084   .     S
C592   H609    1.081   .     S
C592   C593    1.399   .     A
C592   C159    1.386   1_565 S
C594   N615    1.382   .     A
C594   O625    1.377   .     S
C594   C451    1.431   1_655 S
C595   N614    1.363   .     A
C595   O630    1.384   .     S
C596   N614    1.370   .     A
C596   H635    1.081   .     S
C597   H610    1.081   .     S
C597   N615    1.369   .     A
C597   C452    1.423   1_655 S
C598   O621    1.297   .     A
C598   O620    1.298   .     A
C599   C601    1.457   .     S
C599   O623    1.304   .     A
C599   O622    1.299   .     A
C600   C1229   1.399   1_554 S
C600   H1260   1.083   1_554 S
C602   C603    1.393   .     A
C602   H637    1.080   .     S
C603   C1252   1.405   .     S
C603   O1286   1.387   .     S
C604   H613    1.075   .     S
C604   C1226   1.413   1_554 S
C604   C1251   1.405   1_554 S
Cu605  N614    2.034   .     S
Cu605  O622    1.974   .     S
Cu605  Cu606   2.706   .     S
Cu605  O620    1.955   .     S
Cu605  O618    1.975   .     S
Cu605  O616    1.951   .     S
Cu606  O621    1.951   .     S
Cu606  O617    1.955   .     S
Cu606  N615    2.034   .     S
Cu606  O619    1.974   .     S
Cu606  O623    1.975   .     S
H612   C1248   1.083   .     S
O625   C626    1.414   .     S
C626   H629    1.107   .     S
C626   H627    1.113   .     S
C626   H484    1.109   1_655 S
O630   C631    1.409   .     S
C631   H632    1.109   .     S
C631   H633    1.107   .     S
H634   C487    1.108   1_655 S
O638   C639    1.412   .     S
O638   C1251   1.387   1_554 S
C639   H641    1.111   .     S
C639   H640    1.114   .     S
H642   C495    1.109   1_655 S
O643   C644    1.416   .     S
C644   H647    1.111   .     S
C644   H646    1.115   .     S
C644   H645    1.108   .     S
C649   C665    1.443   .     S
C649   O689    1.302   .     A
C649   O688    1.294   .     A
C650   C651    1.415   .     A
C650   C4      1.423   1_556 S
C650   C28     1.413   1_556 S
C651   C658    1.422   .     A
C651   C655    1.418   .     A
C652   C656    1.397   .     A
C653   C654    1.388   .     A
C653   C4      1.417   1_556 S
C653   C24     1.399   1_556 S
C654   C655    1.388   .     A
C654   H683    1.079   .     S
C655   O715    1.385   .     S
C656   H708    1.076   .     S
C656   C673    1.399   .     A
C657   C672    1.390   .     A
C657   C673    1.398   .     A
C657   H679    1.083   .     S
C658   C674    1.403   .     A
C658   C660    1.488   .     S
C659   C665    1.397   .     A
C659   H720    1.081   .     S
C659   C877    1.386   .     S
C660   O691    1.304   .     A
C660   O690    1.312   .     A
C661   H696    1.084   .     S
C661   C662    1.399   .     A
C661   C1091   1.386   1_545 S
C662   C670    1.441   .     S
C662   C663    1.398   .     A
C663   H680    1.084   .     S
C663   C1096   1.386   1_545 S
C664   H681    1.081   .     S
C664   C665    1.399   .     A
C664   C879    1.386   .     S
C666   N687    1.382   .     A
C666   O697    1.377   .     S
C666   C739    1.431   .     S
C667   N686    1.363   .     A
C667   O702    1.384   .     S
C667   C810    1.431   1_455 S
C668   N686    1.370   .     A
C668   H707    1.081   .     S
C668   C813    1.423   1_455 S
C669   H682    1.081   .     S
C669   N687    1.369   .     A
C669   C740    1.423   .     S
C670   O693    1.297   .     A
C670   O692    1.298   .     A
C671   C673    1.457   .     S
C671   O695    1.304   .     A
C671   O694    1.299   .     A
C674   C675    1.393   .     A
C674   H709    1.080   .     S
C675   C28     1.405   1_556 S
C675   O62     1.387   1_556 S
C676   H685    1.075   .     S
Cu677  N686    2.034   .     S
Cu677  O694    1.974   .     S
Cu677  Cu678   2.706   .     S
Cu677  O692    1.955   .     S
Cu677  O690    1.975   .     S
Cu677  O688    1.951   .     S
Cu678  O693    1.951   .     S
Cu678  O689    1.955   .     S
Cu678  N687    2.034   .     S
Cu678  O691    1.974   .     S
Cu678  O695    1.975   .     S
H684   C24     1.083   1_556 S
O697   C698    1.414   .     S
C698   H701    1.107   .     S
C698   H699    1.113   .     S
C698   H772    1.109   .     S
H700   C842    1.109   1_455 S
O702   C703    1.409   .     S
C703   H704    1.109   .     S
C703   H705    1.107   .     S
C703   H850    1.108   1_455 S
H706   C775    1.108   .     S
O710   C711    1.412   .     S
C711   H713    1.111   .     S
C711   H712    1.114   .     S
C711   H858    1.109   1_455 S
H714   C783    1.109   .     S
O715   C716    1.416   .     S
C716   H719    1.111   .     S
C716   H718    1.115   .     S
C716   H717    1.108   .     S
C721   C737    1.443   .     S
C721   O761    1.302   .     A
C721   O760    1.294   .     A
C722   C723    1.415   .     A
C722   C76     1.423   1_556 S
C722   C100    1.413   1_556 S
C723   C730    1.422   .     A
C723   C727    1.418   .     A
C724   C728    1.397   .     A
C725   C726    1.388   .     A
C725   C76     1.417   1_556 S
C725   C96     1.399   1_556 S
C726   C727    1.388   .     A
C726   H755    1.079   .     S
C727   O787    1.385   .     S
C728   H780    1.076   .     S
C728   C745    1.399   .     A
C729   C744    1.390   .     A
C729   C745    1.398   .     A
C729   H751    1.083   .     S
C730   C746    1.403   .     A
C730   C732    1.488   .     S
C731   C737    1.397   .     A
C731   H792    1.081   .     S
C731   C949    1.386   .     S
C732   O763    1.304   .     A
C732   O762    1.312   .     A
C733   H768    1.084   .     S
C733   C734    1.399   .     A
C733   C1163   1.386   1_545 S
C734   C742    1.441   .     S
C734   C735    1.398   .     A
C735   H752    1.084   .     S
C735   C1168   1.386   1_545 S
C736   H753    1.081   .     S
C736   C737    1.399   .     A
C736   C951    1.386   .     S
C738   N759    1.382   .     A
C738   O769    1.377   .     S
C738   C811    1.431   .     S
C739   N758    1.363   .     A
C739   O774    1.384   .     S
C740   N758    1.370   .     A
C740   H779    1.081   .     S
C741   H754    1.081   .     S
C741   N759    1.369   .     A
C741   C812    1.423   .     S
C742   O765    1.297   .     A
C742   O764    1.298   .     A
C743   C745    1.457   .     S
C743   O767    1.304   .     A
C743   O766    1.299   .     A
C746   C747    1.393   .     A
C746   H781    1.080   .     S
C747   C100    1.405   1_556 S
C747   O134    1.387   1_556 S
C748   H757    1.075   .     S
Cu749  N758    2.034   .     S
Cu749  O766    1.974   .     S
Cu749  Cu750   2.706   .     S
Cu749  O764    1.955   .     S
Cu749  O762    1.975   .     S
Cu749  O760    1.951   .     S
Cu750  O765    1.951   .     S
Cu750  O761    1.955   .     S
Cu750  N759    2.034   .     S
Cu750  O763    1.974   .     S
Cu750  O767    1.975   .     S
H756   C96     1.083   1_556 S
O769   C770    1.414   .     S
C770   H773    1.107   .     S
C770   H771    1.113   .     S
C770   H844    1.109   .     S
O774   C775    1.409   .     S
C775   H776    1.109   .     S
C775   H777    1.107   .     S
H778   C847    1.108   .     S
O782   C783    1.412   .     S
C783   H785    1.111   .     S
C783   H784    1.114   .     S
H786   C855    1.109   .     S
O787   C788    1.416   .     S
C788   H791    1.111   .     S
C788   H790    1.115   .     S
C788   H789    1.108   .     S
C793   C809    1.443   .     S
C793   O833    1.302   .     A
C793   O832    1.294   .     A
C794   C795    1.415   .     A
C794   C148    1.423   1_556 S
C794   C172    1.413   1_556 S
C795   C802    1.422   .     A
C795   C799    1.418   .     A
C796   C800    1.397   .     A
C797   C798    1.388   .     A
C797   C148    1.417   1_556 S
C797   C168    1.399   1_556 S
C798   C799    1.388   .     A
C798   H827    1.079   .     S
C799   O859    1.385   .     S
C800   H852    1.076   .     S
C800   C817    1.399   .     A
C801   C816    1.390   .     A
C801   C817    1.398   .     A
C801   H823    1.083   .     S
C802   C818    1.403   .     A
C802   C804    1.488   .     S
C803   C809    1.397   .     A
C803   H864    1.081   .     S
C803   C1021   1.386   .     S
C804   O835    1.304   .     A
C804   O834    1.312   .     A
C805   H840    1.084   .     S
C805   C806    1.399   .     A
C805   C1235   1.386   1_545 S
C806   C814    1.441   .     S
C806   C807    1.398   .     A
C807   H824    1.084   .     S
C807   C1240   1.386   1_545 S
C808   H825    1.081   .     S
C808   C809    1.399   .     A
C808   C1023   1.386   .     S
C810   N831    1.382   .     A
C810   O841    1.377   .     S
C810   C667    1.431   1_655 S
C811   N830    1.363   .     A
C811   O846    1.384   .     S
C812   N830    1.370   .     A
C812   H851    1.081   .     S
C813   H826    1.081   .     S
C813   N831    1.369   .     A
C813   C668    1.423   1_655 S
C814   O837    1.297   .     A
C814   O836    1.298   .     A
C815   C817    1.457   .     S
C815   O839    1.304   .     A
C815   O838    1.299   .     A
C818   C819    1.393   .     A
C818   H853    1.080   .     S
C819   C172    1.405   1_556 S
C819   O206    1.387   1_556 S
C820   H829    1.075   .     S
Cu821  N830    2.034   .     S
Cu821  O838    1.974   .     S
Cu821  Cu822   2.706   .     S
Cu821  O836    1.955   .     S
Cu821  O834    1.975   .     S
Cu821  O832    1.951   .     S
Cu822  O837    1.951   .     S
Cu822  O833    1.955   .     S
Cu822  N831    2.034   .     S
Cu822  O835    1.974   .     S
Cu822  O839    1.975   .     S
H828   C168    1.083   1_556 S
O841   C842    1.414   .     S
C842   H845    1.107   .     S
C842   H843    1.113   .     S
C842   H700    1.109   1_655 S
O846   C847    1.409   .     S
C847   H848    1.109   .     S
C847   H849    1.107   .     S
H850   C703    1.108   1_655 S
O854   C855    1.412   .     S
C855   H857    1.111   .     S
C855   H856    1.114   .     S
H858   C711    1.109   1_655 S
O859   C860    1.416   .     S
C860   H863    1.111   .     S
C860   H862    1.115   .     S
C860   H861    1.108   .     S
C865   C881    1.443   .     S
C865   O905    1.302   .     A
C865   O904    1.294   .     A
C866   C867    1.415   .     A
C866   C220    1.423   1_556 S
C866   C244    1.413   1_556 S
C867   C874    1.422   .     A
C867   C871    1.418   .     A
C868   C872    1.397   .     A
C869   C870    1.388   .     A
C869   C220    1.417   1_556 S
C869   C240    1.399   1_556 S
C870   C871    1.388   .     A
C870   H899    1.079   .     S
C871   O931    1.385   .     S
C872   H924    1.076   .     S
C872   C889    1.399   .     A
C873   C888    1.390   .     A
C873   C889    1.398   .     A
C873   H895    1.083   .     S
C874   C890    1.403   .     A
C874   C876    1.488   .     S
C875   C881    1.397   .     A
C875   H936    1.081   .     S
C875   C1093   1.386   .     S
C876   O907    1.304   .     A
C876   O906    1.312   .     A
C877   H912    1.084   .     S
C877   C878    1.399   .     A
C878   C886    1.441   .     S
C878   C879    1.398   .     A
C879   H896    1.084   .     S
C880   H897    1.081   .     S
C880   C881    1.399   .     A
C880   C1095   1.386   .     S
C882   N903    1.382   .     A
C882   O913    1.377   .     S
C882   C955    1.431   .     S
C883   N902    1.363   .     A
C883   O918    1.384   .     S
C883   C1026   1.431   1_455 S
C884   N902    1.370   .     A
C884   H923    1.081   .     S
C884   C1029   1.423   1_455 S
C885   H898    1.081   .     S
C885   N903    1.369   .     A
C885   C956    1.423   .     S
C886   O909    1.297   .     A
C886   O908    1.298   .     A
C887   C889    1.457   .     S
C887   O911    1.304   .     A
C887   O910    1.299   .     A
C890   C891    1.393   .     A
C890   H925    1.080   .     S
C891   C244    1.405   1_556 S
C891   O278    1.387   1_556 S
C892   H901    1.075   .     S
Cu893  N902    2.034   .     S
Cu893  O910    1.974   .     S
Cu893  Cu894   2.706   .     S
Cu893  O908    1.955   .     S
Cu893  O906    1.975   .     S
Cu893  O904    1.951   .     S
Cu894  O909    1.951   .     S
Cu894  O905    1.955   .     S
Cu894  N903    2.034   .     S
Cu894  O907    1.974   .     S
Cu894  O911    1.975   .     S
H900   C240    1.083   1_556 S
O913   C914    1.414   .     S
C914   H917    1.107   .     S
C914   H915    1.113   .     S
C914   H988    1.109   .     S
H916   C1058   1.109   1_455 S
O918   C919    1.409   .     S
C919   H920    1.109   .     S
C919   H921    1.107   .     S
C919   H1066   1.108   1_455 S
H922   C991    1.108   .     S
O926   C927    1.412   .     S
C927   H929    1.111   .     S
C927   H928    1.114   .     S
C927   H1074   1.109   1_455 S
H930   C999    1.109   .     S
O931   C932    1.416   .     S
C932   H935    1.111   .     S
C932   H934    1.115   .     S
C932   H933    1.108   .     S
C937   C953    1.443   .     S
C937   O977    1.302   .     A
C937   O976    1.294   .     A
C938   C939    1.415   .     A
C938   C292    1.423   1_556 S
C938   C316    1.413   1_556 S
C939   C946    1.422   .     A
C939   C943    1.418   .     A
C940   C944    1.397   .     A
C941   C942    1.388   .     A
C941   C292    1.417   1_556 S
C941   C312    1.399   1_556 S
C942   C943    1.388   .     A
C942   H971    1.079   .     S
C943   O1003   1.385   .     S
C944   H996    1.076   .     S
C944   C961    1.399   .     A
C945   C960    1.390   .     A
C945   C961    1.398   .     A
C945   H967    1.083   .     S
C946   C962    1.403   .     A
C946   C948    1.488   .     S
C947   C953    1.397   .     A
C947   H1008   1.081   .     S
C947   C1165   1.386   .     S
C948   O979    1.304   .     A
C948   O978    1.312   .     A
C949   H984    1.084   .     S
C949   C950    1.399   .     A
C950   C958    1.441   .     S
C950   C951    1.398   .     A
C951   H968    1.084   .     S
C952   H969    1.081   .     S
C952   C953    1.399   .     A
C952   C1167   1.386   .     S
C954   N975    1.382   .     A
C954   O985    1.377   .     S
C954   C1027   1.431   .     S
C955   N974    1.363   .     A
C955   O990    1.384   .     S
C956   N974    1.370   .     A
C956   H995    1.081   .     S
C957   H970    1.081   .     S
C957   N975    1.369   .     A
C957   C1028   1.423   .     S
C958   O981    1.297   .     A
C958   O980    1.298   .     A
C959   C961    1.457   .     S
C959   O983    1.304   .     A
C959   O982    1.299   .     A
C962   C963    1.393   .     A
C962   H997    1.080   .     S
C963   C316    1.405   1_556 S
C963   O350    1.387   1_556 S
C964   H973    1.075   .     S
Cu965  N974    2.034   .     S
Cu965  O982    1.974   .     S
Cu965  Cu966   2.706   .     S
Cu965  O980    1.955   .     S
Cu965  O978    1.975   .     S
Cu965  O976    1.951   .     S
Cu966  O981    1.951   .     S
Cu966  O977    1.955   .     S
Cu966  N975    2.034   .     S
Cu966  O979    1.974   .     S
Cu966  O983    1.975   .     S
H972   C312    1.083   1_556 S
O985   C986    1.414   .     S
C986   H989    1.107   .     S
C986   H987    1.113   .     S
C986   H1060   1.109   .     S
O990   C991    1.409   .     S
C991   H992    1.109   .     S
C991   H993    1.107   .     S
H994   C1063   1.108   .     S
O998   C999    1.412   .     S
C999   H1001   1.111   .     S
C999   H1000   1.114   .     S
H1002  C1071   1.109   .     S
O1003  C1004   1.416   .     S
C1004  H1007   1.111   .     S
C1004  H1006   1.115   .     S
C1004  H1005   1.108   .     S
C1009  C1025   1.443   .     S
C1009  O1049   1.302   .     A
C1009  O1048   1.294   .     A
C1010  C1011   1.415   .     A
C1010  C364    1.423   1_556 S
C1010  C388    1.413   1_556 S
C1011  C1018   1.422   .     A
C1011  C1015   1.418   .     A
C1012  C1016   1.397   .     A
C1013  C1014   1.388   .     A
C1013  C364    1.417   1_556 S
C1013  C384    1.399   1_556 S
C1014  C1015   1.388   .     A
C1014  H1043   1.079   .     S
C1015  O1075   1.385   .     S
C1016  H1068   1.076   .     S
C1016  C1033   1.399   .     A
C1017  C1032   1.390   .     A
C1017  C1033   1.398   .     A
C1017  H1039   1.083   .     S
C1018  C1034   1.403   .     A
C1018  C1020   1.488   .     S
C1019  C1025   1.397   .     A
C1019  H1080   1.081   .     S
C1019  C1237   1.386   .     S
C1020  O1051   1.304   .     A
C1020  O1050   1.312   .     A
C1021  H1056   1.084   .     S
C1021  C1022   1.399   .     A
C1022  C1030   1.441   .     S
C1022  C1023   1.398   .     A
C1023  H1040   1.084   .     S
C1024  H1041   1.081   .     S
C1024  C1025   1.399   .     A
C1024  C1239   1.386   .     S
C1026  N1047   1.382   .     A
C1026  O1057   1.377   .     S
C1026  C883    1.431   1_655 S
C1027  N1046   1.363   .     A
C1027  O1062   1.384   .     S
C1028  N1046   1.370   .     A
C1028  H1067   1.081   .     S
C1029  H1042   1.081   .     S
C1029  N1047   1.369   .     A
C1029  C884    1.423   1_655 S
C1030  O1053   1.297   .     A
C1030  O1052   1.298   .     A
C1031  C1033   1.457   .     S
C1031  O1055   1.304   .     A
C1031  O1054   1.299   .     A
C1034  C1035   1.393   .     A
C1034  H1069   1.080   .     S
C1035  C388    1.405   1_556 S
C1035  O422    1.387   1_556 S
C1036  H1045   1.075   .     S
Cu1037 N1046   2.034   .     S
Cu1037 O1054   1.974   .     S
Cu1037 Cu1038  2.706   .     S
Cu1037 O1052   1.955   .     S
Cu1037 O1050   1.975   .     S
Cu1037 O1048   1.951   .     S
Cu1038 O1053   1.951   .     S
Cu1038 O1049   1.955   .     S
Cu1038 N1047   2.034   .     S
Cu1038 O1051   1.974   .     S
Cu1038 O1055   1.975   .     S
H1044  C384    1.083   1_556 S
O1057  C1058   1.414   .     S
C1058  H1061   1.107   .     S
C1058  H1059   1.113   .     S
C1058  H916    1.109   1_655 S
O1062  C1063   1.409   .     S
C1063  H1064   1.109   .     S
C1063  H1065   1.107   .     S
H1066  C919    1.108   1_655 S
O1070  C1071   1.412   .     S
C1071  H1073   1.111   .     S
C1071  H1072   1.114   .     S
H1074  C927    1.109   1_655 S
O1075  C1076   1.416   .     S
C1076  H1079   1.111   .     S
C1076  H1078   1.115   .     S
C1076  H1077   1.108   .     S
C1081  C1097   1.443   .     S
C1081  O1121   1.302   .     A
C1081  O1120   1.294   .     A
C1082  C1083   1.415   .     A
C1082  C436    1.423   1_556 S
C1082  C460    1.413   1_556 S
C1083  C1090   1.422   .     A
C1083  C1087   1.418   .     A
C1084  C1088   1.397   .     A
C1085  C1086   1.388   .     A
C1085  C436    1.417   1_556 S
C1085  C456    1.399   1_556 S
C1086  C1087   1.388   .     A
C1086  H1115   1.079   .     S
C1087  O1147   1.385   .     S
C1088  H1140   1.076   .     S
C1088  C1105   1.399   .     A
C1089  C1104   1.390   .     A
C1089  C1105   1.398   .     A
C1089  H1111   1.083   .     S
C1090  C1106   1.403   .     A
C1090  C1092   1.488   .     S
C1091  C1097   1.397   .     A
C1091  H1152   1.081   .     S
C1091  C661    1.386   1_565 S
C1092  O1123   1.304   .     A
C1092  O1122   1.312   .     A
C1093  H1128   1.084   .     S
C1093  C1094   1.399   .     A
C1094  C1102   1.441   .     S
C1094  C1095   1.398   .     A
C1095  H1112   1.084   .     S
C1096  H1113   1.081   .     S
C1096  C1097   1.399   .     A
C1096  C663    1.386   1_565 S
C1098  N1119   1.382   .     A
C1098  O1129   1.377   .     S
C1098  C1171   1.431   .     S
C1099  N1118   1.363   .     A
C1099  O1134   1.384   .     S
C1099  C1242   1.431   1_455 S
C1100  N1118   1.370   .     A
C1100  H1139   1.081   .     S
C1100  C1245   1.423   1_455 S
C1101  H1114   1.081   .     S
C1101  N1119   1.369   .     A
C1101  C1172   1.423   .     S
C1102  O1125   1.297   .     A
C1102  O1124   1.298   .     A
C1103  C1105   1.457   .     S
C1103  O1127   1.304   .     A
C1103  O1126   1.299   .     A
C1106  C1107   1.393   .     A
C1106  H1141   1.080   .     S
C1107  C460    1.405   1_556 S
C1107  O494    1.387   1_556 S
C1108  H1117   1.075   .     S
Cu1109 N1118   2.034   .     S
Cu1109 O1126   1.974   .     S
Cu1109 Cu1110  2.706   .     S
Cu1109 O1124   1.955   .     S
Cu1109 O1122   1.975   .     S
Cu1109 O1120   1.951   .     S
Cu1110 O1125   1.951   .     S
Cu1110 O1121   1.955   .     S
Cu1110 N1119   2.034   .     S
Cu1110 O1123   1.974   .     S
Cu1110 O1127   1.975   .     S
H1116  C456    1.083   1_556 S
O1129  C1130   1.414   .     S
C1130  H1133   1.107   .     S
C1130  H1131   1.113   .     S
C1130  H1204   1.109   .     S
H1132  C1274   1.109   1_455 S
O1134  C1135   1.409   .     S
C1135  H1136   1.109   .     S
C1135  H1137   1.107   .     S
C1135  H1282   1.108   1_455 S
H1138  C1207   1.108   .     S
O1142  C1143   1.412   .     S
C1143  H1145   1.111   .     S
C1143  H1144   1.114   .     S
C1143  H1290   1.109   1_455 S
H1146  C1215   1.109   .     S
O1147  C1148   1.416   .     S
C1148  H1151   1.111   .     S
C1148  H1150   1.115   .     S
C1148  H1149   1.108   .     S
C1153  C1169   1.443   .     S
C1153  O1193   1.302   .     A
C1153  O1192   1.294   .     A
C1154  C1155   1.415   .     A
C1154  C508    1.423   1_556 S
C1154  C532    1.413   1_556 S
C1155  C1162   1.422   .     A
C1155  C1159   1.418   .     A
C1156  C1160   1.397   .     A
C1157  C1158   1.388   .     A
C1157  C508    1.417   1_556 S
C1157  C528    1.399   1_556 S
C1158  C1159   1.388   .     A
C1158  H1187   1.079   .     S
C1159  O1219   1.385   .     S
C1160  H1212   1.076   .     S
C1160  C1177   1.399   .     A
C1161  C1176   1.390   .     A
C1161  C1177   1.398   .     A
C1161  H1183   1.083   .     S
C1162  C1178   1.403   .     A
C1162  C1164   1.488   .     S
C1163  C1169   1.397   .     A
C1163  H1224   1.081   .     S
C1163  C733    1.386   1_565 S
C1164  O1195   1.304   .     A
C1164  O1194   1.312   .     A
C1165  H1200   1.084   .     S
C1165  C1166   1.399   .     A
C1166  C1174   1.441   .     S
C1166  C1167   1.398   .     A
C1167  H1184   1.084   .     S
C1168  H1185   1.081   .     S
C1168  C1169   1.399   .     A
C1168  C735    1.386   1_565 S
C1170  N1191   1.382   .     A
C1170  O1201   1.377   .     S
C1170  C1243   1.431   .     S
C1171  N1190   1.363   .     A
C1171  O1206   1.384   .     S
C1172  N1190   1.370   .     A
C1172  H1211   1.081   .     S
C1173  H1186   1.081   .     S
C1173  N1191   1.369   .     A
C1173  C1244   1.423   .     S
C1174  O1197   1.297   .     A
C1174  O1196   1.298   .     A
C1175  C1177   1.457   .     S
C1175  O1199   1.304   .     A
C1175  O1198   1.299   .     A
C1178  C1179   1.393   .     A
C1178  H1213   1.080   .     S
C1179  C532    1.405   1_556 S
C1179  O566    1.387   1_556 S
C1180  H1189   1.075   .     S
Cu1181 N1190   2.034   .     S
Cu1181 O1198   1.974   .     S
Cu1181 Cu1182  2.706   .     S
Cu1181 O1196   1.955   .     S
Cu1181 O1194   1.975   .     S
Cu1181 O1192   1.951   .     S
Cu1182 O1197   1.951   .     S
Cu1182 O1193   1.955   .     S
Cu1182 N1191   2.034   .     S
Cu1182 O1195   1.974   .     S
Cu1182 O1199   1.975   .     S
H1188  C528    1.083   1_556 S
O1201  C1202   1.414   .     S
C1202  H1205   1.107   .     S
C1202  H1203   1.113   .     S
C1202  H1276   1.109   .     S
O1206  C1207   1.409   .     S
C1207  H1208   1.109   .     S
C1207  H1209   1.107   .     S
H1210  C1279   1.108   .     S
O1214  C1215   1.412   .     S
C1215  H1217   1.111   .     S
C1215  H1216   1.114   .     S
H1218  C1287   1.109   .     S
O1219  C1220   1.416   .     S
C1220  H1223   1.111   .     S
C1220  H1222   1.115   .     S
C1220  H1221   1.108   .     S
C1225  C1241   1.443   .     S
C1225  O1265   1.302   .     A
C1225  O1264   1.294   .     A
C1226  C1227   1.415   .     A
C1226  C580    1.423   1_556 S
C1226  C604    1.413   1_556 S
C1227  C1234   1.422   .     A
C1227  C1231   1.418   .     A
C1228  C1232   1.397   .     A
C1229  C1230   1.388   .     A
C1229  C580    1.417   1_556 S
C1229  C600    1.399   1_556 S
C1230  C1231   1.388   .     A
C1230  H1259   1.079   .     S
C1231  O1291   1.385   .     S
C1232  H1284   1.076   .     S
C1232  C1249   1.399   .     A
C1233  C1248   1.390   .     A
C1233  C1249   1.398   .     A
C1233  H1255   1.083   .     S
C1234  C1250   1.403   .     A
C1234  C1236   1.488   .     S
C1235  C1241   1.397   .     A
C1235  H1296   1.081   .     S
C1235  C805    1.386   1_565 S
C1236  O1267   1.304   .     A
C1236  O1266   1.312   .     A
C1237  H1272   1.084   .     S
C1237  C1238   1.399   .     A
C1238  C1246   1.441   .     S
C1238  C1239   1.398   .     A
C1239  H1256   1.084   .     S
C1240  H1257   1.081   .     S
C1240  C1241   1.399   .     A
C1240  C807    1.386   1_565 S
C1242  N1263   1.382   .     A
C1242  O1273   1.377   .     S
C1242  C1099   1.431   1_655 S
C1243  N1262   1.363   .     A
C1243  O1278   1.384   .     S
C1244  N1262   1.370   .     A
C1244  H1283   1.081   .     S
C1245  H1258   1.081   .     S
C1245  N1263   1.369   .     A
C1245  C1100   1.423   1_655 S
C1246  O1269   1.297   .     A
C1246  O1268   1.298   .     A
C1247  C1249   1.457   .     S
C1247  O1271   1.304   .     A
C1247  O1270   1.299   .     A
C1250  C1251   1.393   .     A
C1250  H1285   1.080   .     S
C1251  C604    1.405   1_556 S
C1251  O638    1.387   1_556 S
C1252  H1261   1.075   .     S
Cu1253 N1262   2.034   .     S
Cu1253 O1270   1.974   .     S
Cu1253 Cu1254  2.706   .     S
Cu1253 O1268   1.955   .     S
Cu1253 O1266   1.975   .     S
Cu1253 O1264   1.951   .     S
Cu1254 O1269   1.951   .     S
Cu1254 O1265   1.955   .     S
Cu1254 N1263   2.034   .     S
Cu1254 O1267   1.974   .     S
Cu1254 O1271   1.975   .     S
H1260  C600    1.083   1_556 S
O1273  C1274   1.414   .     S
C1274  H1277   1.107   .     S
C1274  H1275   1.113   .     S
C1274  H1132   1.109   1_655 S
O1278  C1279   1.409   .     S
C1279  H1280   1.109   .     S
C1279  H1281   1.107   .     S
H1282  C1135   1.108   1_655 S
O1286  C1287   1.412   .     S
C1287  H1289   1.111   .     S
C1287  H1288   1.114   .     S
H1290  C1143   1.109   1_655 S
O1291  C1292   1.416   .     S
C1292  H1295   1.111   .     S
C1292  H1294   1.115   .     S
C1292  H1293   1.108   .     S
