data_str_m2_o1_o10_pcu_sym.64
_audit_creation_date              2020-01-03
_audit_creation_method            'Materials Studio'
_symmetry_space_group_name_H-M    'P1'
_symmetry_Int_Tables_number       1
_symmetry_cell_setting            triclinic
loop_
_symmetry_equiv_pos_as_xyz
  x,y,z
_cell_length_a                    26.2735
_cell_length_b                    32.3149
_cell_length_c                    28.8378
_cell_angle_alpha                 88.7025
_cell_angle_beta                  96.6484
_cell_angle_gamma                 93.0009
loop_
_atom_site_label
_atom_site_type_symbol
_atom_site_fract_x
_atom_site_fract_y
_atom_site_fract_z
_atom_site_U_iso_or_equiv
_atom_site_adp_type
_atom_site_occupancy
C1     C     0.16768   0.08759   0.16710   0.00000  Uiso   1.00
C2     C     0.20208   0.02114   0.19974   0.00000  Uiso   1.00
C3     C     0.16461   0.29036   0.16605   0.00000  Uiso   1.00
C4     C     0.16846   0.04297   0.16739   0.00000  Uiso   1.00
C5     C     0.13997   0.13680   0.02373   0.00000  Uiso   1.00
C6     C     0.19316   0.19665   0.30960   0.00000  Uiso   1.00
C7     C     0.13943   0.13599   0.30791   0.00000  Uiso   1.00
C8     C     0.19410   0.19720   0.02544   0.00000  Uiso   1.00
C9     C     0.16558   0.24574   0.16625   0.00000  Uiso   1.00
C10    C     0.06828   0.16576   0.15525   0.00000  Uiso   1.00
C11    C     0.26505   0.16764   0.17807   0.00000  Uiso   1.00
C12    C     0.01378   0.15813   0.15113   0.00000  Uiso   1.00
C13    C     0.31955   0.17528   0.18219   0.00000  Uiso   1.00
C14    C     0.13407   0.02175   0.13436   0.00000  Uiso   1.00
C15    C     0.19889   0.31158   0.19917   0.00000  Uiso   1.00
C16    C     0.13079   0.31218   0.13387   0.00000  Uiso   1.00
Cu17   Cu    0.16667   0.16667   0.21355   0.00000  Uiso   1.00
Cu18   Cu    0.16667   0.16666   0.11978   0.00000  Uiso   1.00
H19    H     0.10842   0.03862   0.10957   0.00000  Uiso   1.00
H20    H     0.20841   0.30413   0.06375   0.00000  Uiso   1.00
H21    H     0.22457   0.29471   0.22396   0.00000  Uiso   1.00
H22    H     0.11969   0.11291   0.04216   0.00000  Uiso   1.00
H23    H     0.21342   0.22061   0.29124   0.00000  Uiso   1.00
H24    H     0.02026   0.07213   0.07143   0.00000  Uiso   1.00
H25    H     0.31320   0.26136   0.26183   0.00000  Uiso   1.00
H26    H     0.08720   0.26414   0.11213   0.00000  Uiso   1.00
H27    H     0.24590   0.06909   0.22140   0.00000  Uiso   1.00
H28    H     0.06140   0.06846   0.22030   0.00000  Uiso   1.00
N29    N     0.16668   0.16668   0.28403   0.00000  Uiso   1.00
N30    N     0.16665   0.16666   0.04931   0.00000  Uiso   1.00
O31    O     0.16666   0.10655   0.20625   0.00000  Uiso   1.00
O32    O     0.29543   0.13921   0.06759   0.00000  Uiso   1.00
O33    O     0.03694   0.09206   0.09477   0.00000  Uiso   1.00
O34    O     0.03784   0.19395   0.26582   0.00000  Uiso   1.00
O35    O     0.04833   0.24374   0.20156   0.00000  Uiso   1.00
O36    O     0.29645   0.24125   0.23873   0.00000  Uiso   1.00
O37    O     0.09353   0.29331   0.10242   0.00000  Uiso   1.00
O38    O     0.23925   0.04000   0.23128   0.00000  Uiso   1.00
O39    O     0.14563   0.05857   0.27946   0.00000  Uiso   1.00
O40    O     0.06956   0.07289   0.31552   0.00000  Uiso   1.00
O41    O     0.07236   0.09682   0.23097   0.00000  Uiso   1.00
O42    O     0.16667   0.22678   0.12709   0.00000  Uiso   1.00
O43    O     0.25771   0.23461   0.09759   0.00000  Uiso   1.00
O44    O     0.26717   0.25795   0.01873   0.00000  Uiso   1.00
O45    O     0.18697   0.27898   0.05409   0.00000  Uiso   1.00
O46    O     0.16666   0.10654   0.12706   0.00000  Uiso   1.00
O47    O     0.16667   0.22679   0.20628   0.00000  Uiso   1.00
O48    O     0.09161   0.16667   0.19712   0.00000  Uiso   1.00
O49    O     0.24172   0.16666   0.13621   0.00000  Uiso   1.00
O50    O     0.09161   0.16666   0.11793   0.00000  Uiso   1.00
O51    O     0.24172   0.16667   0.21540   0.00000  Uiso   1.00
O52    O     0.28512   0.08956   0.13202   0.00000  Uiso   1.00
S53    S     0.32223   0.11904   0.11049   0.00000  Uiso   1.00
S54    S     0.01113   0.21425   0.22297   0.00000  Uiso   1.00
S55    S     0.10655   0.09030   0.28313   0.00000  Uiso   1.00
S56    S     0.22881   0.24191   0.05054   0.00000  Uiso   1.00
C57    C     0.50101   0.08759   0.16710   0.00000  Uiso   1.00
C58    C     0.53542   0.02114   0.19974   0.00000  Uiso   1.00
C59    C     0.49794   0.29036   0.16605   0.00000  Uiso   1.00
C60    C     0.50179   0.04297   0.16739   0.00000  Uiso   1.00
C61    C     0.47331   0.13680   0.02373   0.00000  Uiso   1.00
C62    C     0.52649   0.19665   0.30960   0.00000  Uiso   1.00
C63    C     0.47276   0.13599   0.30791   0.00000  Uiso   1.00
C64    C     0.52744   0.19720   0.02544   0.00000  Uiso   1.00
C65    C     0.49891   0.24574   0.16625   0.00000  Uiso   1.00
C66    C     0.40161   0.16576   0.15525   0.00000  Uiso   1.00
C67    C     0.59838   0.16764   0.17807   0.00000  Uiso   1.00
C68    C     0.34712   0.15813   0.15113   0.00000  Uiso   1.00
C69    C     0.65288   0.17528   0.18219   0.00000  Uiso   1.00
C70    C     0.46741   0.02175   0.13436   0.00000  Uiso   1.00
C71    C     0.53222   0.31158   0.19917   0.00000  Uiso   1.00
C72    C     0.46413   0.31218   0.13387   0.00000  Uiso   1.00
Cu73   Cu    0.50000   0.16667   0.21355   0.00000  Uiso   1.00
Cu74   Cu    0.50000   0.16666   0.11978   0.00000  Uiso   1.00
H75    H     0.44175   0.03862   0.10957   0.00000  Uiso   1.00
H76    H     0.54174   0.30413   0.06375   0.00000  Uiso   1.00
H77    H     0.55790   0.29471   0.22396   0.00000  Uiso   1.00
H78    H     0.45303   0.11291   0.04216   0.00000  Uiso   1.00
H79    H     0.54676   0.22061   0.29124   0.00000  Uiso   1.00
H80    H     0.35360   0.07213   0.07143   0.00000  Uiso   1.00
H81    H     0.64653   0.26136   0.26183   0.00000  Uiso   1.00
H82    H     0.42053   0.26414   0.11213   0.00000  Uiso   1.00
H83    H     0.57923   0.06909   0.22140   0.00000  Uiso   1.00
H84    H     0.39473   0.06846   0.22030   0.00000  Uiso   1.00
N85    N     0.50001   0.16668   0.28403   0.00000  Uiso   1.00
N86    N     0.49999   0.16666   0.04931   0.00000  Uiso   1.00
O87    O     0.50000   0.10655   0.20625   0.00000  Uiso   1.00
O88    O     0.62876   0.13921   0.06759   0.00000  Uiso   1.00
O89    O     0.37027   0.09206   0.09477   0.00000  Uiso   1.00
O90    O     0.37117   0.19395   0.26582   0.00000  Uiso   1.00
O91    O     0.38166   0.24374   0.20156   0.00000  Uiso   1.00
O92    O     0.62978   0.24125   0.23873   0.00000  Uiso   1.00
O93    O     0.42687   0.29331   0.10242   0.00000  Uiso   1.00
O94    O     0.57258   0.04000   0.23128   0.00000  Uiso   1.00
O95    O     0.47897   0.05857   0.27946   0.00000  Uiso   1.00
O96    O     0.40289   0.07289   0.31552   0.00000  Uiso   1.00
O97    O     0.40569   0.09682   0.23097   0.00000  Uiso   1.00
O98    O     0.50000   0.22678   0.12709   0.00000  Uiso   1.00
O99    O     0.59105   0.23461   0.09759   0.00000  Uiso   1.00
O100   O     0.60050   0.25795   0.01873   0.00000  Uiso   1.00
O101   O     0.52030   0.27898   0.05409   0.00000  Uiso   1.00
O102   O     0.50000   0.10654   0.12706   0.00000  Uiso   1.00
O103   O     0.50000   0.22679   0.20628   0.00000  Uiso   1.00
O104   O     0.42495   0.16667   0.19712   0.00000  Uiso   1.00
O105   O     0.57505   0.16666   0.13621   0.00000  Uiso   1.00
O106   O     0.42494   0.16666   0.11793   0.00000  Uiso   1.00
O107   O     0.57506   0.16667   0.21540   0.00000  Uiso   1.00
O108   O     0.61845   0.08956   0.13202   0.00000  Uiso   1.00
S109   S     0.65556   0.11904   0.11049   0.00000  Uiso   1.00
S110   S     0.34446   0.21425   0.22297   0.00000  Uiso   1.00
S111   S     0.43989   0.09030   0.28313   0.00000  Uiso   1.00
S112   S     0.56214   0.24191   0.05054   0.00000  Uiso   1.00
C113   C     0.83435   0.08759   0.16710   0.00000  Uiso   1.00
C114   C     0.86875   0.02114   0.19974   0.00000  Uiso   1.00
C115   C     0.83127   0.29036   0.16605   0.00000  Uiso   1.00
C116   C     0.83512   0.04297   0.16739   0.00000  Uiso   1.00
C117   C     0.80664   0.13680   0.02373   0.00000  Uiso   1.00
C118   C     0.85983   0.19665   0.30960   0.00000  Uiso   1.00
C119   C     0.80609   0.13599   0.30791   0.00000  Uiso   1.00
C120   C     0.86077   0.19720   0.02544   0.00000  Uiso   1.00
C121   C     0.83224   0.24574   0.16625   0.00000  Uiso   1.00
C122   C     0.73495   0.16576   0.15525   0.00000  Uiso   1.00
C123   C     0.93172   0.16764   0.17807   0.00000  Uiso   1.00
C124   C     0.68045   0.15813   0.15113   0.00000  Uiso   1.00
C125   C     0.98621   0.17528   0.18219   0.00000  Uiso   1.00
C126   C     0.80074   0.02175   0.13436   0.00000  Uiso   1.00
C127   C     0.86555   0.31158   0.19917   0.00000  Uiso   1.00
C128   C     0.79746   0.31218   0.13387   0.00000  Uiso   1.00
Cu129  Cu    0.83333   0.16667   0.21355   0.00000  Uiso   1.00
Cu130  Cu    0.83333   0.16666   0.11978   0.00000  Uiso   1.00
H131   H     0.77509   0.03862   0.10957   0.00000  Uiso   1.00
H132   H     0.87507   0.30413   0.06375   0.00000  Uiso   1.00
H133   H     0.89123   0.29471   0.22396   0.00000  Uiso   1.00
H134   H     0.78636   0.11291   0.04216   0.00000  Uiso   1.00
H135   H     0.88009   0.22061   0.29124   0.00000  Uiso   1.00
H136   H     0.68693   0.07213   0.07143   0.00000  Uiso   1.00
H137   H     0.97987   0.26136   0.26183   0.00000  Uiso   1.00
H138   H     0.75386   0.26414   0.11213   0.00000  Uiso   1.00
H139   H     0.91256   0.06909   0.22140   0.00000  Uiso   1.00
H140   H     0.72806   0.06846   0.22030   0.00000  Uiso   1.00
N141   N     0.83335   0.16668   0.28403   0.00000  Uiso   1.00
N142   N     0.83332   0.16666   0.04931   0.00000  Uiso   1.00
O143   O     0.83333   0.10655   0.20625   0.00000  Uiso   1.00
O144   O     0.96210   0.13921   0.06759   0.00000  Uiso   1.00
O145   O     0.70360   0.09206   0.09477   0.00000  Uiso   1.00
O146   O     0.70451   0.19395   0.26582   0.00000  Uiso   1.00
O147   O     0.71499   0.24374   0.20156   0.00000  Uiso   1.00
O148   O     0.96312   0.24125   0.23873   0.00000  Uiso   1.00
O149   O     0.76020   0.29331   0.10242   0.00000  Uiso   1.00
O150   O     0.90592   0.04000   0.23128   0.00000  Uiso   1.00
O151   O     0.81230   0.05857   0.27946   0.00000  Uiso   1.00
O152   O     0.73622   0.07289   0.31552   0.00000  Uiso   1.00
O153   O     0.73902   0.09682   0.23097   0.00000  Uiso   1.00
O154   O     0.83334   0.22678   0.12709   0.00000  Uiso   1.00
O155   O     0.92438   0.23461   0.09759   0.00000  Uiso   1.00
O156   O     0.93383   0.25795   0.01873   0.00000  Uiso   1.00
O157   O     0.85363   0.27898   0.05409   0.00000  Uiso   1.00
O158   O     0.83333   0.10654   0.12706   0.00000  Uiso   1.00
O159   O     0.83334   0.22679   0.20628   0.00000  Uiso   1.00
O160   O     0.75828   0.16667   0.19712   0.00000  Uiso   1.00
O161   O     0.90839   0.16666   0.13621   0.00000  Uiso   1.00
O162   O     0.75828   0.16666   0.11793   0.00000  Uiso   1.00
O163   O     0.90839   0.16667   0.21540   0.00000  Uiso   1.00
O164   O     0.95179   0.08956   0.13202   0.00000  Uiso   1.00
S165   S     0.98890   0.11904   0.11049   0.00000  Uiso   1.00
S166   S     0.67780   0.21425   0.22297   0.00000  Uiso   1.00
S167   S     0.77322   0.09030   0.28313   0.00000  Uiso   1.00
S168   S     0.89548   0.24191   0.05054   0.00000  Uiso   1.00
C169   C     0.16768   0.42092   0.16710   0.00000  Uiso   1.00
C170   C     0.20208   0.35447   0.19974   0.00000  Uiso   1.00
C171   C     0.16461   0.62369   0.16605   0.00000  Uiso   1.00
C172   C     0.16846   0.37630   0.16739   0.00000  Uiso   1.00
C173   C     0.13997   0.47013   0.02373   0.00000  Uiso   1.00
C174   C     0.19316   0.52998   0.30960   0.00000  Uiso   1.00
C175   C     0.13943   0.46932   0.30791   0.00000  Uiso   1.00
C176   C     0.19410   0.53053   0.02544   0.00000  Uiso   1.00
C177   C     0.16558   0.57908   0.16625   0.00000  Uiso   1.00
C178   C     0.06828   0.49909   0.15525   0.00000  Uiso   1.00
C179   C     0.26505   0.50098   0.17807   0.00000  Uiso   1.00
C180   C     0.01378   0.49146   0.15113   0.00000  Uiso   1.00
C181   C     0.31955   0.50861   0.18219   0.00000  Uiso   1.00
C182   C     0.13407   0.35508   0.13436   0.00000  Uiso   1.00
C183   C     0.19889   0.64491   0.19917   0.00000  Uiso   1.00
C184   C     0.13079   0.64551   0.13387   0.00000  Uiso   1.00
Cu185  Cu    0.16667   0.50001   0.21355   0.00000  Uiso   1.00
Cu186  Cu    0.16667   0.49999   0.11978   0.00000  Uiso   1.00
H187   H     0.10842   0.37195   0.10957   0.00000  Uiso   1.00
H188   H     0.20841   0.63747   0.06375   0.00000  Uiso   1.00
H189   H     0.22457   0.62804   0.22396   0.00000  Uiso   1.00
H190   H     0.11969   0.44624   0.04216   0.00000  Uiso   1.00
H191   H     0.21342   0.55394   0.29124   0.00000  Uiso   1.00
H192   H     0.02026   0.40547   0.07143   0.00000  Uiso   1.00
H193   H     0.31320   0.59469   0.26183   0.00000  Uiso   1.00
H194   H     0.08720   0.59747   0.11213   0.00000  Uiso   1.00
H195   H     0.24590   0.40242   0.22140   0.00000  Uiso   1.00
H196   H     0.06140   0.40179   0.22030   0.00000  Uiso   1.00
N197   N     0.16668   0.50001   0.28403   0.00000  Uiso   1.00
N198   N     0.16665   0.49999   0.04931   0.00000  Uiso   1.00
O199   O     0.16666   0.43989   0.20625   0.00000  Uiso   1.00
O200   O     0.29543   0.47254   0.06759   0.00000  Uiso   1.00
O201   O     0.03694   0.42539   0.09477   0.00000  Uiso   1.00
O202   O     0.03784   0.52729   0.26582   0.00000  Uiso   1.00
O203   O     0.04833   0.57707   0.20156   0.00000  Uiso   1.00
O204   O     0.29645   0.57458   0.23873   0.00000  Uiso   1.00
O205   O     0.09353   0.62664   0.10242   0.00000  Uiso   1.00
O206   O     0.23925   0.37333   0.23128   0.00000  Uiso   1.00
O207   O     0.14563   0.39191   0.27946   0.00000  Uiso   1.00
O208   O     0.06956   0.40622   0.31552   0.00000  Uiso   1.00
O209   O     0.07236   0.43015   0.23097   0.00000  Uiso   1.00
O210   O     0.16667   0.56011   0.12709   0.00000  Uiso   1.00
O211   O     0.25771   0.56794   0.09759   0.00000  Uiso   1.00
O212   O     0.26717   0.59129   0.01873   0.00000  Uiso   1.00
O213   O     0.18697   0.61231   0.05409   0.00000  Uiso   1.00
O214   O     0.16666   0.43988   0.12706   0.00000  Uiso   1.00
O215   O     0.16667   0.56012   0.20628   0.00000  Uiso   1.00
O216   O     0.09161   0.50000   0.19712   0.00000  Uiso   1.00
O217   O     0.24172   0.50000   0.13621   0.00000  Uiso   1.00
O218   O     0.09161   0.49999   0.11793   0.00000  Uiso   1.00
O219   O     0.24172   0.50001   0.21540   0.00000  Uiso   1.00
O220   O     0.28512   0.42290   0.13202   0.00000  Uiso   1.00
S221   S     0.32223   0.45238   0.11049   0.00000  Uiso   1.00
S222   S     0.01113   0.54758   0.22297   0.00000  Uiso   1.00
S223   S     0.10655   0.42364   0.28313   0.00000  Uiso   1.00
S224   S     0.22881   0.57525   0.05054   0.00000  Uiso   1.00
C225   C     0.50101   0.42092   0.16710   0.00000  Uiso   1.00
C226   C     0.53542   0.35447   0.19974   0.00000  Uiso   1.00
C227   C     0.49794   0.62369   0.16605   0.00000  Uiso   1.00
C228   C     0.50179   0.37630   0.16739   0.00000  Uiso   1.00
C229   C     0.47331   0.47013   0.02373   0.00000  Uiso   1.00
C230   C     0.52649   0.52998   0.30960   0.00000  Uiso   1.00
C231   C     0.47276   0.46932   0.30791   0.00000  Uiso   1.00
C232   C     0.52744   0.53053   0.02544   0.00000  Uiso   1.00
C233   C     0.49891   0.57908   0.16625   0.00000  Uiso   1.00
C234   C     0.40161   0.49909   0.15525   0.00000  Uiso   1.00
C235   C     0.59838   0.50098   0.17807   0.00000  Uiso   1.00
C236   C     0.34712   0.49146   0.15113   0.00000  Uiso   1.00
C237   C     0.65288   0.50861   0.18219   0.00000  Uiso   1.00
C238   C     0.46741   0.35508   0.13436   0.00000  Uiso   1.00
C239   C     0.53222   0.64491   0.19917   0.00000  Uiso   1.00
C240   C     0.46413   0.64551   0.13387   0.00000  Uiso   1.00
Cu241  Cu    0.50000   0.50001   0.21355   0.00000  Uiso   1.00
Cu242  Cu    0.50000   0.49999   0.11978   0.00000  Uiso   1.00
H243   H     0.44175   0.37195   0.10957   0.00000  Uiso   1.00
H244   H     0.54174   0.63747   0.06375   0.00000  Uiso   1.00
H245   H     0.55790   0.62804   0.22396   0.00000  Uiso   1.00
H246   H     0.45303   0.44624   0.04216   0.00000  Uiso   1.00
H247   H     0.54676   0.55394   0.29124   0.00000  Uiso   1.00
H248   H     0.35360   0.40547   0.07143   0.00000  Uiso   1.00
H249   H     0.64653   0.59469   0.26183   0.00000  Uiso   1.00
H250   H     0.42053   0.59747   0.11213   0.00000  Uiso   1.00
H251   H     0.57923   0.40242   0.22140   0.00000  Uiso   1.00
H252   H     0.39473   0.40179   0.22030   0.00000  Uiso   1.00
N253   N     0.50001   0.50001   0.28403   0.00000  Uiso   1.00
N254   N     0.49999   0.49999   0.04931   0.00000  Uiso   1.00
O255   O     0.50000   0.43989   0.20625   0.00000  Uiso   1.00
O256   O     0.62876   0.47254   0.06759   0.00000  Uiso   1.00
O257   O     0.37027   0.42539   0.09477   0.00000  Uiso   1.00
O258   O     0.37117   0.52729   0.26582   0.00000  Uiso   1.00
O259   O     0.38166   0.57707   0.20156   0.00000  Uiso   1.00
O260   O     0.62978   0.57458   0.23873   0.00000  Uiso   1.00
O261   O     0.42687   0.62664   0.10242   0.00000  Uiso   1.00
O262   O     0.57258   0.37333   0.23128   0.00000  Uiso   1.00
O263   O     0.47897   0.39191   0.27946   0.00000  Uiso   1.00
O264   O     0.40289   0.40622   0.31552   0.00000  Uiso   1.00
O265   O     0.40569   0.43015   0.23097   0.00000  Uiso   1.00
O266   O     0.50000   0.56011   0.12709   0.00000  Uiso   1.00
O267   O     0.59105   0.56794   0.09759   0.00000  Uiso   1.00
O268   O     0.60050   0.59129   0.01873   0.00000  Uiso   1.00
O269   O     0.52030   0.61231   0.05409   0.00000  Uiso   1.00
O270   O     0.50000   0.43988   0.12706   0.00000  Uiso   1.00
O271   O     0.50000   0.56012   0.20628   0.00000  Uiso   1.00
O272   O     0.42495   0.50000   0.19712   0.00000  Uiso   1.00
O273   O     0.57505   0.50000   0.13621   0.00000  Uiso   1.00
O274   O     0.42494   0.49999   0.11793   0.00000  Uiso   1.00
O275   O     0.57506   0.50001   0.21540   0.00000  Uiso   1.00
O276   O     0.61845   0.42290   0.13202   0.00000  Uiso   1.00
S277   S     0.65556   0.45238   0.11049   0.00000  Uiso   1.00
S278   S     0.34446   0.54758   0.22297   0.00000  Uiso   1.00
S279   S     0.43989   0.42364   0.28313   0.00000  Uiso   1.00
S280   S     0.56214   0.57525   0.05054   0.00000  Uiso   1.00
C281   C     0.83435   0.42092   0.16710   0.00000  Uiso   1.00
C282   C     0.86875   0.35447   0.19974   0.00000  Uiso   1.00
C283   C     0.83127   0.62369   0.16605   0.00000  Uiso   1.00
C284   C     0.83512   0.37630   0.16739   0.00000  Uiso   1.00
C285   C     0.80664   0.47013   0.02373   0.00000  Uiso   1.00
C286   C     0.85983   0.52998   0.30960   0.00000  Uiso   1.00
C287   C     0.80609   0.46932   0.30791   0.00000  Uiso   1.00
C288   C     0.86077   0.53053   0.02544   0.00000  Uiso   1.00
C289   C     0.83224   0.57908   0.16625   0.00000  Uiso   1.00
C290   C     0.73495   0.49909   0.15525   0.00000  Uiso   1.00
C291   C     0.93172   0.50098   0.17807   0.00000  Uiso   1.00
C292   C     0.68045   0.49146   0.15113   0.00000  Uiso   1.00
C293   C     0.98621   0.50861   0.18219   0.00000  Uiso   1.00
C294   C     0.80074   0.35508   0.13436   0.00000  Uiso   1.00
C295   C     0.86555   0.64491   0.19917   0.00000  Uiso   1.00
C296   C     0.79746   0.64551   0.13387   0.00000  Uiso   1.00
Cu297  Cu    0.83333   0.50001   0.21355   0.00000  Uiso   1.00
Cu298  Cu    0.83333   0.49999   0.11978   0.00000  Uiso   1.00
H299   H     0.77509   0.37195   0.10957   0.00000  Uiso   1.00
H300   H     0.87507   0.63747   0.06375   0.00000  Uiso   1.00
H301   H     0.89123   0.62804   0.22396   0.00000  Uiso   1.00
H302   H     0.78636   0.44624   0.04216   0.00000  Uiso   1.00
H303   H     0.88009   0.55394   0.29124   0.00000  Uiso   1.00
H304   H     0.68693   0.40547   0.07143   0.00000  Uiso   1.00
H305   H     0.97987   0.59469   0.26183   0.00000  Uiso   1.00
H306   H     0.75386   0.59747   0.11213   0.00000  Uiso   1.00
H307   H     0.91256   0.40242   0.22140   0.00000  Uiso   1.00
H308   H     0.72806   0.40179   0.22030   0.00000  Uiso   1.00
N309   N     0.83335   0.50001   0.28403   0.00000  Uiso   1.00
N310   N     0.83332   0.49999   0.04931   0.00000  Uiso   1.00
O311   O     0.83333   0.43989   0.20625   0.00000  Uiso   1.00
O312   O     0.96210   0.47254   0.06759   0.00000  Uiso   1.00
O313   O     0.70360   0.42539   0.09477   0.00000  Uiso   1.00
O314   O     0.70451   0.52729   0.26582   0.00000  Uiso   1.00
O315   O     0.71499   0.57707   0.20156   0.00000  Uiso   1.00
O316   O     0.96312   0.57458   0.23873   0.00000  Uiso   1.00
O317   O     0.76020   0.62664   0.10242   0.00000  Uiso   1.00
O318   O     0.90592   0.37333   0.23128   0.00000  Uiso   1.00
O319   O     0.81230   0.39191   0.27946   0.00000  Uiso   1.00
O320   O     0.73622   0.40622   0.31552   0.00000  Uiso   1.00
O321   O     0.73902   0.43015   0.23097   0.00000  Uiso   1.00
O322   O     0.83334   0.56011   0.12709   0.00000  Uiso   1.00
O323   O     0.92438   0.56794   0.09759   0.00000  Uiso   1.00
O324   O     0.93383   0.59129   0.01873   0.00000  Uiso   1.00
O325   O     0.85363   0.61231   0.05409   0.00000  Uiso   1.00
O326   O     0.83333   0.43988   0.12706   0.00000  Uiso   1.00
O327   O     0.83334   0.56012   0.20628   0.00000  Uiso   1.00
O328   O     0.75828   0.50000   0.19712   0.00000  Uiso   1.00
O329   O     0.90839   0.50000   0.13621   0.00000  Uiso   1.00
O330   O     0.75828   0.49999   0.11793   0.00000  Uiso   1.00
O331   O     0.90839   0.50001   0.21540   0.00000  Uiso   1.00
O332   O     0.95179   0.42290   0.13202   0.00000  Uiso   1.00
S333   S     0.98890   0.45238   0.11049   0.00000  Uiso   1.00
S334   S     0.67780   0.54758   0.22297   0.00000  Uiso   1.00
S335   S     0.77322   0.42364   0.28313   0.00000  Uiso   1.00
S336   S     0.89548   0.57525   0.05054   0.00000  Uiso   1.00
C337   C     0.16768   0.75425   0.16710   0.00000  Uiso   1.00
C338   C     0.20208   0.68781   0.19974   0.00000  Uiso   1.00
C339   C     0.16461   0.95702   0.16605   0.00000  Uiso   1.00
C340   C     0.16846   0.70963   0.16739   0.00000  Uiso   1.00
C341   C     0.13997   0.80346   0.02373   0.00000  Uiso   1.00
C342   C     0.19316   0.86332   0.30960   0.00000  Uiso   1.00
C343   C     0.13943   0.80266   0.30791   0.00000  Uiso   1.00
C344   C     0.19410   0.86386   0.02544   0.00000  Uiso   1.00
C345   C     0.16558   0.91241   0.16625   0.00000  Uiso   1.00
C346   C     0.06828   0.83243   0.15525   0.00000  Uiso   1.00
C347   C     0.26505   0.83431   0.17807   0.00000  Uiso   1.00
C348   C     0.01378   0.82480   0.15113   0.00000  Uiso   1.00
C349   C     0.31955   0.84194   0.18219   0.00000  Uiso   1.00
C350   C     0.13407   0.68841   0.13436   0.00000  Uiso   1.00
C351   C     0.19889   0.97824   0.19917   0.00000  Uiso   1.00
C352   C     0.13079   0.97885   0.13387   0.00000  Uiso   1.00
Cu353  Cu    0.16667   0.83334   0.21355   0.00000  Uiso   1.00
Cu354  Cu    0.16667   0.83333   0.11978   0.00000  Uiso   1.00
H355   H     0.10842   0.70528   0.10957   0.00000  Uiso   1.00
H356   H     0.20841   0.97080   0.06375   0.00000  Uiso   1.00
H357   H     0.22457   0.96138   0.22396   0.00000  Uiso   1.00
H358   H     0.11969   0.77958   0.04216   0.00000  Uiso   1.00
H359   H     0.21342   0.88727   0.29124   0.00000  Uiso   1.00
H360   H     0.02026   0.73880   0.07143   0.00000  Uiso   1.00
H361   H     0.31320   0.92802   0.26183   0.00000  Uiso   1.00
H362   H     0.08720   0.93080   0.11213   0.00000  Uiso   1.00
H363   H     0.24590   0.73575   0.22140   0.00000  Uiso   1.00
H364   H     0.06140   0.73513   0.22030   0.00000  Uiso   1.00
N365   N     0.16668   0.83334   0.28403   0.00000  Uiso   1.00
N366   N     0.16665   0.83332   0.04931   0.00000  Uiso   1.00
O367   O     0.16666   0.77322   0.20625   0.00000  Uiso   1.00
O368   O     0.29543   0.80587   0.06759   0.00000  Uiso   1.00
O369   O     0.03694   0.75872   0.09477   0.00000  Uiso   1.00
O370   O     0.03784   0.86062   0.26582   0.00000  Uiso   1.00
O371   O     0.04833   0.91040   0.20156   0.00000  Uiso   1.00
O372   O     0.29645   0.90792   0.23873   0.00000  Uiso   1.00
O373   O     0.09353   0.95998   0.10242   0.00000  Uiso   1.00
O374   O     0.23925   0.70666   0.23128   0.00000  Uiso   1.00
O375   O     0.14563   0.72524   0.27946   0.00000  Uiso   1.00
O376   O     0.06956   0.73956   0.31552   0.00000  Uiso   1.00
O377   O     0.07236   0.76348   0.23097   0.00000  Uiso   1.00
O378   O     0.16667   0.89345   0.12709   0.00000  Uiso   1.00
O379   O     0.25771   0.90127   0.09759   0.00000  Uiso   1.00
O380   O     0.26717   0.92462   0.01873   0.00000  Uiso   1.00
O381   O     0.18697   0.94565   0.05409   0.00000  Uiso   1.00
O382   O     0.16666   0.77321   0.12706   0.00000  Uiso   1.00
O383   O     0.16667   0.89346   0.20628   0.00000  Uiso   1.00
O384   O     0.09161   0.83334   0.19712   0.00000  Uiso   1.00
O385   O     0.24172   0.83333   0.13621   0.00000  Uiso   1.00
O386   O     0.09161   0.83333   0.11793   0.00000  Uiso   1.00
O387   O     0.24172   0.83334   0.21540   0.00000  Uiso   1.00
O388   O     0.28512   0.75623   0.13202   0.00000  Uiso   1.00
S389   S     0.32223   0.78571   0.11049   0.00000  Uiso   1.00
S390   S     0.01113   0.88091   0.22297   0.00000  Uiso   1.00
S391   S     0.10655   0.75697   0.28313   0.00000  Uiso   1.00
S392   S     0.22881   0.90858   0.05054   0.00000  Uiso   1.00
C393   C     0.50101   0.75425   0.16710   0.00000  Uiso   1.00
C394   C     0.53542   0.68781   0.19974   0.00000  Uiso   1.00
C395   C     0.49794   0.95702   0.16605   0.00000  Uiso   1.00
C396   C     0.50179   0.70963   0.16739   0.00000  Uiso   1.00
C397   C     0.47331   0.80346   0.02373   0.00000  Uiso   1.00
C398   C     0.52649   0.86332   0.30960   0.00000  Uiso   1.00
C399   C     0.47276   0.80266   0.30791   0.00000  Uiso   1.00
C400   C     0.52744   0.86386   0.02544   0.00000  Uiso   1.00
C401   C     0.49891   0.91241   0.16625   0.00000  Uiso   1.00
C402   C     0.40161   0.83243   0.15525   0.00000  Uiso   1.00
C403   C     0.59838   0.83431   0.17807   0.00000  Uiso   1.00
C404   C     0.34712   0.82480   0.15113   0.00000  Uiso   1.00
C405   C     0.65288   0.84194   0.18219   0.00000  Uiso   1.00
C406   C     0.46741   0.68841   0.13436   0.00000  Uiso   1.00
C407   C     0.53222   0.97824   0.19917   0.00000  Uiso   1.00
C408   C     0.46413   0.97885   0.13387   0.00000  Uiso   1.00
Cu409  Cu    0.50000   0.83334   0.21355   0.00000  Uiso   1.00
Cu410  Cu    0.50000   0.83333   0.11978   0.00000  Uiso   1.00
H411   H     0.44175   0.70528   0.10957   0.00000  Uiso   1.00
H412   H     0.54174   0.97080   0.06375   0.00000  Uiso   1.00
H413   H     0.55790   0.96138   0.22396   0.00000  Uiso   1.00
H414   H     0.45303   0.77958   0.04216   0.00000  Uiso   1.00
H415   H     0.54676   0.88727   0.29124   0.00000  Uiso   1.00
H416   H     0.35360   0.73880   0.07143   0.00000  Uiso   1.00
H417   H     0.64653   0.92802   0.26183   0.00000  Uiso   1.00
H418   H     0.42053   0.93080   0.11213   0.00000  Uiso   1.00
H419   H     0.57923   0.73575   0.22140   0.00000  Uiso   1.00
H420   H     0.39473   0.73513   0.22030   0.00000  Uiso   1.00
N421   N     0.50001   0.83334   0.28403   0.00000  Uiso   1.00
N422   N     0.49999   0.83332   0.04931   0.00000  Uiso   1.00
O423   O     0.50000   0.77322   0.20625   0.00000  Uiso   1.00
O424   O     0.62876   0.80587   0.06759   0.00000  Uiso   1.00
O425   O     0.37027   0.75872   0.09477   0.00000  Uiso   1.00
O426   O     0.37117   0.86062   0.26582   0.00000  Uiso   1.00
O427   O     0.38166   0.91040   0.20156   0.00000  Uiso   1.00
O428   O     0.62978   0.90792   0.23873   0.00000  Uiso   1.00
O429   O     0.42687   0.95998   0.10242   0.00000  Uiso   1.00
O430   O     0.57258   0.70666   0.23128   0.00000  Uiso   1.00
O431   O     0.47897   0.72524   0.27946   0.00000  Uiso   1.00
O432   O     0.40289   0.73956   0.31552   0.00000  Uiso   1.00
O433   O     0.40569   0.76348   0.23097   0.00000  Uiso   1.00
O434   O     0.50000   0.89345   0.12709   0.00000  Uiso   1.00
O435   O     0.59105   0.90127   0.09759   0.00000  Uiso   1.00
O436   O     0.60050   0.92462   0.01873   0.00000  Uiso   1.00
O437   O     0.52030   0.94565   0.05409   0.00000  Uiso   1.00
O438   O     0.50000   0.77321   0.12706   0.00000  Uiso   1.00
O439   O     0.50000   0.89346   0.20628   0.00000  Uiso   1.00
O440   O     0.42495   0.83334   0.19712   0.00000  Uiso   1.00
O441   O     0.57505   0.83333   0.13621   0.00000  Uiso   1.00
O442   O     0.42494   0.83333   0.11793   0.00000  Uiso   1.00
O443   O     0.57506   0.83334   0.21540   0.00000  Uiso   1.00
O444   O     0.61845   0.75623   0.13202   0.00000  Uiso   1.00
S445   S     0.65556   0.78571   0.11049   0.00000  Uiso   1.00
S446   S     0.34446   0.88091   0.22297   0.00000  Uiso   1.00
S447   S     0.43989   0.75697   0.28313   0.00000  Uiso   1.00
S448   S     0.56214   0.90858   0.05054   0.00000  Uiso   1.00
C449   C     0.83435   0.75425   0.16710   0.00000  Uiso   1.00
C450   C     0.86875   0.68781   0.19974   0.00000  Uiso   1.00
C451   C     0.83127   0.95702   0.16605   0.00000  Uiso   1.00
C452   C     0.83512   0.70963   0.16739   0.00000  Uiso   1.00
C453   C     0.80664   0.80346   0.02373   0.00000  Uiso   1.00
C454   C     0.85983   0.86332   0.30960   0.00000  Uiso   1.00
C455   C     0.80609   0.80266   0.30791   0.00000  Uiso   1.00
C456   C     0.86077   0.86386   0.02544   0.00000  Uiso   1.00
C457   C     0.83224   0.91241   0.16625   0.00000  Uiso   1.00
C458   C     0.73495   0.83243   0.15525   0.00000  Uiso   1.00
C459   C     0.93172   0.83431   0.17807   0.00000  Uiso   1.00
C460   C     0.68045   0.82480   0.15113   0.00000  Uiso   1.00
C461   C     0.98621   0.84194   0.18219   0.00000  Uiso   1.00
C462   C     0.80074   0.68841   0.13436   0.00000  Uiso   1.00
C463   C     0.86555   0.97824   0.19917   0.00000  Uiso   1.00
C464   C     0.79746   0.97885   0.13387   0.00000  Uiso   1.00
Cu465  Cu    0.83333   0.83334   0.21355   0.00000  Uiso   1.00
Cu466  Cu    0.83333   0.83333   0.11978   0.00000  Uiso   1.00
H467   H     0.77509   0.70528   0.10957   0.00000  Uiso   1.00
H468   H     0.87507   0.97080   0.06375   0.00000  Uiso   1.00
H469   H     0.89123   0.96138   0.22396   0.00000  Uiso   1.00
H470   H     0.78636   0.77958   0.04216   0.00000  Uiso   1.00
H471   H     0.88009   0.88727   0.29124   0.00000  Uiso   1.00
H472   H     0.68693   0.73880   0.07143   0.00000  Uiso   1.00
H473   H     0.97987   0.92802   0.26183   0.00000  Uiso   1.00
H474   H     0.75386   0.93080   0.11213   0.00000  Uiso   1.00
H475   H     0.91256   0.73575   0.22140   0.00000  Uiso   1.00
H476   H     0.72806   0.73513   0.22030   0.00000  Uiso   1.00
N477   N     0.83335   0.83334   0.28403   0.00000  Uiso   1.00
N478   N     0.83332   0.83332   0.04931   0.00000  Uiso   1.00
O479   O     0.83333   0.77322   0.20625   0.00000  Uiso   1.00
O480   O     0.96210   0.80587   0.06759   0.00000  Uiso   1.00
O481   O     0.70360   0.75872   0.09477   0.00000  Uiso   1.00
O482   O     0.70451   0.86062   0.26582   0.00000  Uiso   1.00
O483   O     0.71499   0.91040   0.20156   0.00000  Uiso   1.00
O484   O     0.96312   0.90792   0.23873   0.00000  Uiso   1.00
O485   O     0.76020   0.95998   0.10242   0.00000  Uiso   1.00
O486   O     0.90592   0.70666   0.23128   0.00000  Uiso   1.00
O487   O     0.81230   0.72524   0.27946   0.00000  Uiso   1.00
O488   O     0.73622   0.73956   0.31552   0.00000  Uiso   1.00
O489   O     0.73902   0.76348   0.23097   0.00000  Uiso   1.00
O490   O     0.83334   0.89345   0.12709   0.00000  Uiso   1.00
O491   O     0.92438   0.90127   0.09759   0.00000  Uiso   1.00
O492   O     0.93383   0.92462   0.01873   0.00000  Uiso   1.00
O493   O     0.85363   0.94565   0.05409   0.00000  Uiso   1.00
O494   O     0.83333   0.77321   0.12706   0.00000  Uiso   1.00
O495   O     0.83334   0.89346   0.20628   0.00000  Uiso   1.00
O496   O     0.75828   0.83334   0.19712   0.00000  Uiso   1.00
O497   O     0.90839   0.83333   0.13621   0.00000  Uiso   1.00
O498   O     0.75828   0.83333   0.11793   0.00000  Uiso   1.00
O499   O     0.90839   0.83334   0.21540   0.00000  Uiso   1.00
O500   O     0.95179   0.75623   0.13202   0.00000  Uiso   1.00
S501   S     0.98890   0.78571   0.11049   0.00000  Uiso   1.00
S502   S     0.67780   0.88091   0.22297   0.00000  Uiso   1.00
S503   S     0.77322   0.75697   0.28313   0.00000  Uiso   1.00
S504   S     0.89548   0.90858   0.05054   0.00000  Uiso   1.00
C505   C     0.16768   0.08759   0.50043   0.00000  Uiso   1.00
C506   C     0.20208   0.02114   0.53307   0.00000  Uiso   1.00
C507   C     0.16461   0.29036   0.49939   0.00000  Uiso   1.00
C508   C     0.16846   0.04297   0.50073   0.00000  Uiso   1.00
C509   C     0.13997   0.13680   0.35706   0.00000  Uiso   1.00
C510   C     0.19316   0.19665   0.64293   0.00000  Uiso   1.00
C511   C     0.13943   0.13599   0.64124   0.00000  Uiso   1.00
C512   C     0.19410   0.19720   0.35878   0.00000  Uiso   1.00
C513   C     0.16558   0.24574   0.49958   0.00000  Uiso   1.00
C514   C     0.06828   0.16576   0.48859   0.00000  Uiso   1.00
C515   C     0.26505   0.16764   0.51141   0.00000  Uiso   1.00
C516   C     0.01378   0.15813   0.48447   0.00000  Uiso   1.00
C517   C     0.31955   0.17528   0.51553   0.00000  Uiso   1.00
C518   C     0.13407   0.02175   0.46769   0.00000  Uiso   1.00
C519   C     0.19889   0.31158   0.53251   0.00000  Uiso   1.00
C520   C     0.13079   0.31218   0.46720   0.00000  Uiso   1.00
Cu521  Cu    0.16667   0.16667   0.54689   0.00000  Uiso   1.00
Cu522  Cu    0.16667   0.16666   0.45311   0.00000  Uiso   1.00
H523   H     0.10842   0.03862   0.44290   0.00000  Uiso   1.00
H524   H     0.20841   0.30413   0.39708   0.00000  Uiso   1.00
H525   H     0.22457   0.29471   0.55729   0.00000  Uiso   1.00
H526   H     0.11969   0.11291   0.37549   0.00000  Uiso   1.00
H527   H     0.21342   0.22061   0.62457   0.00000  Uiso   1.00
H528   H     0.02026   0.07213   0.40477   0.00000  Uiso   1.00
H529   H     0.31320   0.26136   0.59516   0.00000  Uiso   1.00
H530   H     0.08720   0.26414   0.44546   0.00000  Uiso   1.00
H531   H     0.24590   0.06909   0.55474   0.00000  Uiso   1.00
H532   H     0.06140   0.06846   0.55363   0.00000  Uiso   1.00
N533   N     0.16668   0.16668   0.61736   0.00000  Uiso   1.00
N534   N     0.16665   0.16666   0.38264   0.00000  Uiso   1.00
O535   O     0.16666   0.10655   0.53958   0.00000  Uiso   1.00
O536   O     0.29543   0.13921   0.40093   0.00000  Uiso   1.00
O537   O     0.03694   0.09206   0.42810   0.00000  Uiso   1.00
O538   O     0.03784   0.19395   0.59915   0.00000  Uiso   1.00
O539   O     0.04833   0.24374   0.53489   0.00000  Uiso   1.00
O540   O     0.29645   0.24125   0.57207   0.00000  Uiso   1.00
O541   O     0.09353   0.29331   0.43576   0.00000  Uiso   1.00
O542   O     0.23925   0.04000   0.56462   0.00000  Uiso   1.00
O543   O     0.14563   0.05857   0.61279   0.00000  Uiso   1.00
O544   O     0.06956   0.07289   0.64885   0.00000  Uiso   1.00
O545   O     0.07236   0.09682   0.56430   0.00000  Uiso   1.00
O546   O     0.16667   0.22678   0.46042   0.00000  Uiso   1.00
O547   O     0.25771   0.23461   0.43092   0.00000  Uiso   1.00
O548   O     0.26717   0.25795   0.35207   0.00000  Uiso   1.00
O549   O     0.18697   0.27898   0.38743   0.00000  Uiso   1.00
O550   O     0.16666   0.10654   0.46039   0.00000  Uiso   1.00
O551   O     0.16667   0.22679   0.53961   0.00000  Uiso   1.00
O552   O     0.09161   0.16667   0.53046   0.00000  Uiso   1.00
O553   O     0.24172   0.16666   0.46954   0.00000  Uiso   1.00
O554   O     0.09161   0.16666   0.45127   0.00000  Uiso   1.00
O555   O     0.24172   0.16667   0.54873   0.00000  Uiso   1.00
O556   O     0.28512   0.08956   0.46536   0.00000  Uiso   1.00
S557   S     0.32223   0.11904   0.44382   0.00000  Uiso   1.00
S558   S     0.01113   0.21425   0.55630   0.00000  Uiso   1.00
S559   S     0.10655   0.09030   0.61647   0.00000  Uiso   1.00
S560   S     0.22881   0.24191   0.38388   0.00000  Uiso   1.00
C561   C     0.50101   0.08759   0.50043   0.00000  Uiso   1.00
C562   C     0.53542   0.02114   0.53307   0.00000  Uiso   1.00
C563   C     0.49794   0.29036   0.49939   0.00000  Uiso   1.00
C564   C     0.50179   0.04297   0.50073   0.00000  Uiso   1.00
C565   C     0.47331   0.13680   0.35706   0.00000  Uiso   1.00
C566   C     0.52649   0.19665   0.64293   0.00000  Uiso   1.00
C567   C     0.47276   0.13599   0.64124   0.00000  Uiso   1.00
C568   C     0.52744   0.19720   0.35878   0.00000  Uiso   1.00
C569   C     0.49891   0.24574   0.49958   0.00000  Uiso   1.00
C570   C     0.40161   0.16576   0.48859   0.00000  Uiso   1.00
C571   C     0.59838   0.16764   0.51141   0.00000  Uiso   1.00
C572   C     0.34712   0.15813   0.48447   0.00000  Uiso   1.00
C573   C     0.65288   0.17528   0.51553   0.00000  Uiso   1.00
C574   C     0.46741   0.02175   0.46769   0.00000  Uiso   1.00
C575   C     0.53222   0.31158   0.53251   0.00000  Uiso   1.00
C576   C     0.46413   0.31218   0.46720   0.00000  Uiso   1.00
Cu577  Cu    0.50000   0.16667   0.54689   0.00000  Uiso   1.00
Cu578  Cu    0.50000   0.16666   0.45311   0.00000  Uiso   1.00
H579   H     0.44175   0.03862   0.44290   0.00000  Uiso   1.00
H580   H     0.54174   0.30413   0.39708   0.00000  Uiso   1.00
H581   H     0.55790   0.29471   0.55729   0.00000  Uiso   1.00
H582   H     0.45303   0.11291   0.37549   0.00000  Uiso   1.00
H583   H     0.54676   0.22061   0.62457   0.00000  Uiso   1.00
H584   H     0.35360   0.07213   0.40477   0.00000  Uiso   1.00
H585   H     0.64653   0.26136   0.59516   0.00000  Uiso   1.00
H586   H     0.42053   0.26414   0.44546   0.00000  Uiso   1.00
H587   H     0.57923   0.06909   0.55474   0.00000  Uiso   1.00
H588   H     0.39473   0.06846   0.55363   0.00000  Uiso   1.00
N589   N     0.50001   0.16668   0.61736   0.00000  Uiso   1.00
N590   N     0.49999   0.16666   0.38264   0.00000  Uiso   1.00
O591   O     0.50000   0.10655   0.53958   0.00000  Uiso   1.00
O592   O     0.62876   0.13921   0.40093   0.00000  Uiso   1.00
O593   O     0.37027   0.09206   0.42810   0.00000  Uiso   1.00
O594   O     0.37117   0.19395   0.59915   0.00000  Uiso   1.00
O595   O     0.38166   0.24374   0.53489   0.00000  Uiso   1.00
O596   O     0.62978   0.24125   0.57207   0.00000  Uiso   1.00
O597   O     0.42687   0.29331   0.43576   0.00000  Uiso   1.00
O598   O     0.57258   0.04000   0.56462   0.00000  Uiso   1.00
O599   O     0.47897   0.05857   0.61279   0.00000  Uiso   1.00
O600   O     0.40289   0.07289   0.64885   0.00000  Uiso   1.00
O601   O     0.40569   0.09682   0.56430   0.00000  Uiso   1.00
O602   O     0.50000   0.22678   0.46042   0.00000  Uiso   1.00
O603   O     0.59105   0.23461   0.43092   0.00000  Uiso   1.00
O604   O     0.60050   0.25795   0.35207   0.00000  Uiso   1.00
O605   O     0.52030   0.27898   0.38743   0.00000  Uiso   1.00
O606   O     0.50000   0.10654   0.46039   0.00000  Uiso   1.00
O607   O     0.50000   0.22679   0.53961   0.00000  Uiso   1.00
O608   O     0.42495   0.16667   0.53046   0.00000  Uiso   1.00
O609   O     0.57505   0.16666   0.46954   0.00000  Uiso   1.00
O610   O     0.42494   0.16666   0.45127   0.00000  Uiso   1.00
O611   O     0.57506   0.16667   0.54873   0.00000  Uiso   1.00
O612   O     0.61845   0.08956   0.46536   0.00000  Uiso   1.00
S613   S     0.65556   0.11904   0.44382   0.00000  Uiso   1.00
S614   S     0.34446   0.21425   0.55630   0.00000  Uiso   1.00
S615   S     0.43989   0.09030   0.61647   0.00000  Uiso   1.00
S616   S     0.56214   0.24191   0.38388   0.00000  Uiso   1.00
C617   C     0.83435   0.08759   0.50043   0.00000  Uiso   1.00
C618   C     0.86875   0.02114   0.53307   0.00000  Uiso   1.00
C619   C     0.83127   0.29036   0.49939   0.00000  Uiso   1.00
C620   C     0.83512   0.04297   0.50073   0.00000  Uiso   1.00
C621   C     0.80664   0.13680   0.35706   0.00000  Uiso   1.00
C622   C     0.85983   0.19665   0.64293   0.00000  Uiso   1.00
C623   C     0.80609   0.13599   0.64124   0.00000  Uiso   1.00
C624   C     0.86077   0.19720   0.35878   0.00000  Uiso   1.00
C625   C     0.83224   0.24574   0.49958   0.00000  Uiso   1.00
C626   C     0.73495   0.16576   0.48859   0.00000  Uiso   1.00
C627   C     0.93172   0.16764   0.51141   0.00000  Uiso   1.00
C628   C     0.68045   0.15813   0.48447   0.00000  Uiso   1.00
C629   C     0.98621   0.17528   0.51553   0.00000  Uiso   1.00
C630   C     0.80074   0.02175   0.46769   0.00000  Uiso   1.00
C631   C     0.86555   0.31158   0.53251   0.00000  Uiso   1.00
C632   C     0.79746   0.31218   0.46720   0.00000  Uiso   1.00
Cu633  Cu    0.83333   0.16667   0.54689   0.00000  Uiso   1.00
Cu634  Cu    0.83333   0.16666   0.45311   0.00000  Uiso   1.00
H635   H     0.77509   0.03862   0.44290   0.00000  Uiso   1.00
H636   H     0.87507   0.30413   0.39708   0.00000  Uiso   1.00
H637   H     0.89123   0.29471   0.55729   0.00000  Uiso   1.00
H638   H     0.78636   0.11291   0.37549   0.00000  Uiso   1.00
H639   H     0.88009   0.22061   0.62457   0.00000  Uiso   1.00
H640   H     0.68693   0.07213   0.40477   0.00000  Uiso   1.00
H641   H     0.97987   0.26136   0.59516   0.00000  Uiso   1.00
H642   H     0.75386   0.26414   0.44546   0.00000  Uiso   1.00
H643   H     0.91256   0.06909   0.55474   0.00000  Uiso   1.00
H644   H     0.72806   0.06846   0.55363   0.00000  Uiso   1.00
N645   N     0.83335   0.16668   0.61736   0.00000  Uiso   1.00
N646   N     0.83332   0.16666   0.38264   0.00000  Uiso   1.00
O647   O     0.83333   0.10655   0.53958   0.00000  Uiso   1.00
O648   O     0.96210   0.13921   0.40093   0.00000  Uiso   1.00
O649   O     0.70360   0.09206   0.42810   0.00000  Uiso   1.00
O650   O     0.70451   0.19395   0.59915   0.00000  Uiso   1.00
O651   O     0.71499   0.24374   0.53489   0.00000  Uiso   1.00
O652   O     0.96312   0.24125   0.57207   0.00000  Uiso   1.00
O653   O     0.76020   0.29331   0.43576   0.00000  Uiso   1.00
O654   O     0.90592   0.04000   0.56462   0.00000  Uiso   1.00
O655   O     0.81230   0.05857   0.61279   0.00000  Uiso   1.00
O656   O     0.73622   0.07289   0.64885   0.00000  Uiso   1.00
O657   O     0.73902   0.09682   0.56430   0.00000  Uiso   1.00
O658   O     0.83334   0.22678   0.46042   0.00000  Uiso   1.00
O659   O     0.92438   0.23461   0.43092   0.00000  Uiso   1.00
O660   O     0.93383   0.25795   0.35207   0.00000  Uiso   1.00
O661   O     0.85363   0.27898   0.38743   0.00000  Uiso   1.00
O662   O     0.83333   0.10654   0.46039   0.00000  Uiso   1.00
O663   O     0.83334   0.22679   0.53961   0.00000  Uiso   1.00
O664   O     0.75828   0.16667   0.53046   0.00000  Uiso   1.00
O665   O     0.90839   0.16666   0.46954   0.00000  Uiso   1.00
O666   O     0.75828   0.16666   0.45127   0.00000  Uiso   1.00
O667   O     0.90839   0.16667   0.54873   0.00000  Uiso   1.00
O668   O     0.95179   0.08956   0.46536   0.00000  Uiso   1.00
S669   S     0.98890   0.11904   0.44382   0.00000  Uiso   1.00
S670   S     0.67780   0.21425   0.55630   0.00000  Uiso   1.00
S671   S     0.77322   0.09030   0.61647   0.00000  Uiso   1.00
S672   S     0.89548   0.24191   0.38388   0.00000  Uiso   1.00
C673   C     0.16768   0.42092   0.50043   0.00000  Uiso   1.00
C674   C     0.20208   0.35447   0.53307   0.00000  Uiso   1.00
C675   C     0.16461   0.62369   0.49939   0.00000  Uiso   1.00
C676   C     0.16846   0.37630   0.50073   0.00000  Uiso   1.00
C677   C     0.13997   0.47013   0.35706   0.00000  Uiso   1.00
C678   C     0.19316   0.52998   0.64293   0.00000  Uiso   1.00
C679   C     0.13943   0.46932   0.64124   0.00000  Uiso   1.00
C680   C     0.19410   0.53053   0.35878   0.00000  Uiso   1.00
C681   C     0.16558   0.57908   0.49958   0.00000  Uiso   1.00
C682   C     0.06828   0.49909   0.48859   0.00000  Uiso   1.00
C683   C     0.26505   0.50098   0.51141   0.00000  Uiso   1.00
C684   C     0.01378   0.49146   0.48447   0.00000  Uiso   1.00
C685   C     0.31955   0.50861   0.51553   0.00000  Uiso   1.00
C686   C     0.13407   0.35508   0.46769   0.00000  Uiso   1.00
C687   C     0.19889   0.64491   0.53251   0.00000  Uiso   1.00
C688   C     0.13079   0.64551   0.46720   0.00000  Uiso   1.00
Cu689  Cu    0.16667   0.50001   0.54689   0.00000  Uiso   1.00
Cu690  Cu    0.16667   0.49999   0.45311   0.00000  Uiso   1.00
H691   H     0.10842   0.37195   0.44290   0.00000  Uiso   1.00
H692   H     0.20841   0.63747   0.39708   0.00000  Uiso   1.00
H693   H     0.22457   0.62804   0.55729   0.00000  Uiso   1.00
H694   H     0.11969   0.44624   0.37549   0.00000  Uiso   1.00
H695   H     0.21342   0.55394   0.62457   0.00000  Uiso   1.00
H696   H     0.02026   0.40547   0.40477   0.00000  Uiso   1.00
H697   H     0.31320   0.59469   0.59516   0.00000  Uiso   1.00
H698   H     0.08720   0.59747   0.44546   0.00000  Uiso   1.00
H699   H     0.24590   0.40242   0.55474   0.00000  Uiso   1.00
H700   H     0.06140   0.40179   0.55363   0.00000  Uiso   1.00
N701   N     0.16668   0.50001   0.61736   0.00000  Uiso   1.00
N702   N     0.16665   0.49999   0.38264   0.00000  Uiso   1.00
O703   O     0.16666   0.43989   0.53958   0.00000  Uiso   1.00
O704   O     0.29543   0.47254   0.40093   0.00000  Uiso   1.00
O705   O     0.03694   0.42539   0.42810   0.00000  Uiso   1.00
O706   O     0.03784   0.52729   0.59915   0.00000  Uiso   1.00
O707   O     0.04833   0.57707   0.53489   0.00000  Uiso   1.00
O708   O     0.29645   0.57458   0.57207   0.00000  Uiso   1.00
O709   O     0.09353   0.62664   0.43576   0.00000  Uiso   1.00
O710   O     0.23925   0.37333   0.56462   0.00000  Uiso   1.00
O711   O     0.14563   0.39191   0.61279   0.00000  Uiso   1.00
O712   O     0.06956   0.40622   0.64885   0.00000  Uiso   1.00
O713   O     0.07236   0.43015   0.56430   0.00000  Uiso   1.00
O714   O     0.16667   0.56011   0.46042   0.00000  Uiso   1.00
O715   O     0.25771   0.56794   0.43092   0.00000  Uiso   1.00
O716   O     0.26717   0.59129   0.35207   0.00000  Uiso   1.00
O717   O     0.18697   0.61231   0.38743   0.00000  Uiso   1.00
O718   O     0.16666   0.43988   0.46039   0.00000  Uiso   1.00
O719   O     0.16667   0.56012   0.53961   0.00000  Uiso   1.00
O720   O     0.09161   0.50000   0.53046   0.00000  Uiso   1.00
O721   O     0.24172   0.50000   0.46954   0.00000  Uiso   1.00
O722   O     0.09161   0.49999   0.45127   0.00000  Uiso   1.00
O723   O     0.24172   0.50001   0.54873   0.00000  Uiso   1.00
O724   O     0.28512   0.42290   0.46536   0.00000  Uiso   1.00
S725   S     0.32223   0.45238   0.44382   0.00000  Uiso   1.00
S726   S     0.01113   0.54758   0.55630   0.00000  Uiso   1.00
S727   S     0.10655   0.42364   0.61647   0.00000  Uiso   1.00
S728   S     0.22881   0.57525   0.38388   0.00000  Uiso   1.00
C729   C     0.50101   0.42092   0.50043   0.00000  Uiso   1.00
C730   C     0.53542   0.35447   0.53307   0.00000  Uiso   1.00
C731   C     0.49794   0.62369   0.49939   0.00000  Uiso   1.00
C732   C     0.50179   0.37630   0.50073   0.00000  Uiso   1.00
C733   C     0.47331   0.47013   0.35706   0.00000  Uiso   1.00
C734   C     0.52649   0.52998   0.64293   0.00000  Uiso   1.00
C735   C     0.47276   0.46932   0.64124   0.00000  Uiso   1.00
C736   C     0.52744   0.53053   0.35878   0.00000  Uiso   1.00
C737   C     0.49891   0.57908   0.49958   0.00000  Uiso   1.00
C738   C     0.40161   0.49909   0.48859   0.00000  Uiso   1.00
C739   C     0.59838   0.50098   0.51141   0.00000  Uiso   1.00
C740   C     0.34712   0.49146   0.48447   0.00000  Uiso   1.00
C741   C     0.65288   0.50861   0.51553   0.00000  Uiso   1.00
C742   C     0.46741   0.35508   0.46769   0.00000  Uiso   1.00
C743   C     0.53222   0.64491   0.53251   0.00000  Uiso   1.00
C744   C     0.46413   0.64551   0.46720   0.00000  Uiso   1.00
Cu745  Cu    0.50000   0.50001   0.54689   0.00000  Uiso   1.00
Cu746  Cu    0.50000   0.49999   0.45311   0.00000  Uiso   1.00
H747   H     0.44175   0.37195   0.44290   0.00000  Uiso   1.00
H748   H     0.54174   0.63747   0.39708   0.00000  Uiso   1.00
H749   H     0.55790   0.62804   0.55729   0.00000  Uiso   1.00
H750   H     0.45303   0.44624   0.37549   0.00000  Uiso   1.00
H751   H     0.54676   0.55394   0.62457   0.00000  Uiso   1.00
H752   H     0.35360   0.40547   0.40477   0.00000  Uiso   1.00
H753   H     0.64653   0.59469   0.59516   0.00000  Uiso   1.00
H754   H     0.42053   0.59747   0.44546   0.00000  Uiso   1.00
H755   H     0.57923   0.40242   0.55474   0.00000  Uiso   1.00
H756   H     0.39473   0.40179   0.55363   0.00000  Uiso   1.00
N757   N     0.50001   0.50001   0.61736   0.00000  Uiso   1.00
N758   N     0.49999   0.49999   0.38264   0.00000  Uiso   1.00
O759   O     0.50000   0.43989   0.53958   0.00000  Uiso   1.00
O760   O     0.62876   0.47254   0.40093   0.00000  Uiso   1.00
O761   O     0.37027   0.42539   0.42810   0.00000  Uiso   1.00
O762   O     0.37117   0.52729   0.59915   0.00000  Uiso   1.00
O763   O     0.38166   0.57707   0.53489   0.00000  Uiso   1.00
O764   O     0.62978   0.57458   0.57207   0.00000  Uiso   1.00
O765   O     0.42687   0.62664   0.43576   0.00000  Uiso   1.00
O766   O     0.57258   0.37333   0.56462   0.00000  Uiso   1.00
O767   O     0.47897   0.39191   0.61279   0.00000  Uiso   1.00
O768   O     0.40289   0.40622   0.64885   0.00000  Uiso   1.00
O769   O     0.40569   0.43015   0.56430   0.00000  Uiso   1.00
O770   O     0.50000   0.56011   0.46042   0.00000  Uiso   1.00
O771   O     0.59105   0.56794   0.43092   0.00000  Uiso   1.00
O772   O     0.60050   0.59129   0.35207   0.00000  Uiso   1.00
O773   O     0.52030   0.61231   0.38743   0.00000  Uiso   1.00
O774   O     0.50000   0.43988   0.46039   0.00000  Uiso   1.00
O775   O     0.50000   0.56012   0.53961   0.00000  Uiso   1.00
O776   O     0.42495   0.50000   0.53046   0.00000  Uiso   1.00
O777   O     0.57505   0.50000   0.46954   0.00000  Uiso   1.00
O778   O     0.42494   0.49999   0.45127   0.00000  Uiso   1.00
O779   O     0.57506   0.50001   0.54873   0.00000  Uiso   1.00
O780   O     0.61845   0.42290   0.46536   0.00000  Uiso   1.00
S781   S     0.65556   0.45238   0.44382   0.00000  Uiso   1.00
S782   S     0.34446   0.54758   0.55630   0.00000  Uiso   1.00
S783   S     0.43989   0.42364   0.61647   0.00000  Uiso   1.00
S784   S     0.56214   0.57525   0.38388   0.00000  Uiso   1.00
C785   C     0.83435   0.42092   0.50043   0.00000  Uiso   1.00
C786   C     0.86875   0.35447   0.53307   0.00000  Uiso   1.00
C787   C     0.83127   0.62369   0.49939   0.00000  Uiso   1.00
C788   C     0.83512   0.37630   0.50073   0.00000  Uiso   1.00
C789   C     0.80664   0.47013   0.35706   0.00000  Uiso   1.00
C790   C     0.85983   0.52998   0.64293   0.00000  Uiso   1.00
C791   C     0.80609   0.46932   0.64124   0.00000  Uiso   1.00
C792   C     0.86077   0.53053   0.35878   0.00000  Uiso   1.00
C793   C     0.83224   0.57908   0.49958   0.00000  Uiso   1.00
C794   C     0.73495   0.49909   0.48859   0.00000  Uiso   1.00
C795   C     0.93172   0.50098   0.51141   0.00000  Uiso   1.00
C796   C     0.68045   0.49146   0.48447   0.00000  Uiso   1.00
C797   C     0.98621   0.50861   0.51553   0.00000  Uiso   1.00
C798   C     0.80074   0.35508   0.46769   0.00000  Uiso   1.00
C799   C     0.86555   0.64491   0.53251   0.00000  Uiso   1.00
C800   C     0.79746   0.64551   0.46720   0.00000  Uiso   1.00
Cu801  Cu    0.83333   0.50001   0.54689   0.00000  Uiso   1.00
Cu802  Cu    0.83333   0.49999   0.45311   0.00000  Uiso   1.00
H803   H     0.77509   0.37195   0.44290   0.00000  Uiso   1.00
H804   H     0.87507   0.63747   0.39708   0.00000  Uiso   1.00
H805   H     0.89123   0.62804   0.55729   0.00000  Uiso   1.00
H806   H     0.78636   0.44624   0.37549   0.00000  Uiso   1.00
H807   H     0.88009   0.55394   0.62457   0.00000  Uiso   1.00
H808   H     0.68693   0.40547   0.40477   0.00000  Uiso   1.00
H809   H     0.97987   0.59469   0.59516   0.00000  Uiso   1.00
H810   H     0.75386   0.59747   0.44546   0.00000  Uiso   1.00
H811   H     0.91256   0.40242   0.55474   0.00000  Uiso   1.00
H812   H     0.72806   0.40179   0.55363   0.00000  Uiso   1.00
N813   N     0.83335   0.50001   0.61736   0.00000  Uiso   1.00
N814   N     0.83332   0.49999   0.38264   0.00000  Uiso   1.00
O815   O     0.83333   0.43989   0.53958   0.00000  Uiso   1.00
O816   O     0.96210   0.47254   0.40093   0.00000  Uiso   1.00
O817   O     0.70360   0.42539   0.42810   0.00000  Uiso   1.00
O818   O     0.70451   0.52729   0.59915   0.00000  Uiso   1.00
O819   O     0.71499   0.57707   0.53489   0.00000  Uiso   1.00
O820   O     0.96312   0.57458   0.57207   0.00000  Uiso   1.00
O821   O     0.76020   0.62664   0.43576   0.00000  Uiso   1.00
O822   O     0.90592   0.37333   0.56462   0.00000  Uiso   1.00
O823   O     0.81230   0.39191   0.61279   0.00000  Uiso   1.00
O824   O     0.73622   0.40622   0.64885   0.00000  Uiso   1.00
O825   O     0.73902   0.43015   0.56430   0.00000  Uiso   1.00
O826   O     0.83334   0.56011   0.46042   0.00000  Uiso   1.00
O827   O     0.92438   0.56794   0.43092   0.00000  Uiso   1.00
O828   O     0.93383   0.59129   0.35207   0.00000  Uiso   1.00
O829   O     0.85363   0.61231   0.38743   0.00000  Uiso   1.00
O830   O     0.83333   0.43988   0.46039   0.00000  Uiso   1.00
O831   O     0.83334   0.56012   0.53961   0.00000  Uiso   1.00
O832   O     0.75828   0.50000   0.53046   0.00000  Uiso   1.00
O833   O     0.90839   0.50000   0.46954   0.00000  Uiso   1.00
O834   O     0.75828   0.49999   0.45127   0.00000  Uiso   1.00
O835   O     0.90839   0.50001   0.54873   0.00000  Uiso   1.00
O836   O     0.95179   0.42290   0.46536   0.00000  Uiso   1.00
S837   S     0.98890   0.45238   0.44382   0.00000  Uiso   1.00
S838   S     0.67780   0.54758   0.55630   0.00000  Uiso   1.00
S839   S     0.77322   0.42364   0.61647   0.00000  Uiso   1.00
S840   S     0.89548   0.57525   0.38388   0.00000  Uiso   1.00
C841   C     0.16768   0.75425   0.50043   0.00000  Uiso   1.00
C842   C     0.20208   0.68781   0.53307   0.00000  Uiso   1.00
C843   C     0.16461   0.95702   0.49939   0.00000  Uiso   1.00
C844   C     0.16846   0.70963   0.50073   0.00000  Uiso   1.00
C845   C     0.13997   0.80346   0.35706   0.00000  Uiso   1.00
C846   C     0.19316   0.86332   0.64293   0.00000  Uiso   1.00
C847   C     0.13943   0.80266   0.64124   0.00000  Uiso   1.00
C848   C     0.19410   0.86386   0.35878   0.00000  Uiso   1.00
C849   C     0.16558   0.91241   0.49958   0.00000  Uiso   1.00
C850   C     0.06828   0.83243   0.48859   0.00000  Uiso   1.00
C851   C     0.26505   0.83431   0.51141   0.00000  Uiso   1.00
C852   C     0.01378   0.82480   0.48447   0.00000  Uiso   1.00
C853   C     0.31955   0.84194   0.51553   0.00000  Uiso   1.00
C854   C     0.13407   0.68841   0.46769   0.00000  Uiso   1.00
C855   C     0.19889   0.97824   0.53251   0.00000  Uiso   1.00
C856   C     0.13079   0.97885   0.46720   0.00000  Uiso   1.00
Cu857  Cu    0.16667   0.83334   0.54689   0.00000  Uiso   1.00
Cu858  Cu    0.16667   0.83333   0.45311   0.00000  Uiso   1.00
H859   H     0.10842   0.70528   0.44290   0.00000  Uiso   1.00
H860   H     0.20841   0.97080   0.39708   0.00000  Uiso   1.00
H861   H     0.22457   0.96138   0.55729   0.00000  Uiso   1.00
H862   H     0.11969   0.77958   0.37549   0.00000  Uiso   1.00
H863   H     0.21342   0.88727   0.62457   0.00000  Uiso   1.00
H864   H     0.02026   0.73880   0.40477   0.00000  Uiso   1.00
H865   H     0.31320   0.92802   0.59516   0.00000  Uiso   1.00
H866   H     0.08720   0.93080   0.44546   0.00000  Uiso   1.00
H867   H     0.24590   0.73575   0.55474   0.00000  Uiso   1.00
H868   H     0.06140   0.73513   0.55363   0.00000  Uiso   1.00
N869   N     0.16668   0.83334   0.61736   0.00000  Uiso   1.00
N870   N     0.16665   0.83332   0.38264   0.00000  Uiso   1.00
O871   O     0.16666   0.77322   0.53958   0.00000  Uiso   1.00
O872   O     0.29543   0.80587   0.40093   0.00000  Uiso   1.00
O873   O     0.03694   0.75872   0.42810   0.00000  Uiso   1.00
O874   O     0.03784   0.86062   0.59915   0.00000  Uiso   1.00
O875   O     0.04833   0.91040   0.53489   0.00000  Uiso   1.00
O876   O     0.29645   0.90792   0.57207   0.00000  Uiso   1.00
O877   O     0.09353   0.95998   0.43576   0.00000  Uiso   1.00
O878   O     0.23925   0.70666   0.56462   0.00000  Uiso   1.00
O879   O     0.14563   0.72524   0.61279   0.00000  Uiso   1.00
O880   O     0.06956   0.73956   0.64885   0.00000  Uiso   1.00
O881   O     0.07236   0.76348   0.56430   0.00000  Uiso   1.00
O882   O     0.16667   0.89345   0.46042   0.00000  Uiso   1.00
O883   O     0.25771   0.90127   0.43092   0.00000  Uiso   1.00
O884   O     0.26717   0.92462   0.35207   0.00000  Uiso   1.00
O885   O     0.18697   0.94565   0.38743   0.00000  Uiso   1.00
O886   O     0.16666   0.77321   0.46039   0.00000  Uiso   1.00
O887   O     0.16667   0.89346   0.53961   0.00000  Uiso   1.00
O888   O     0.09161   0.83334   0.53046   0.00000  Uiso   1.00
O889   O     0.24172   0.83333   0.46954   0.00000  Uiso   1.00
O890   O     0.09161   0.83333   0.45127   0.00000  Uiso   1.00
O891   O     0.24172   0.83334   0.54873   0.00000  Uiso   1.00
O892   O     0.28512   0.75623   0.46536   0.00000  Uiso   1.00
S893   S     0.32223   0.78571   0.44382   0.00000  Uiso   1.00
S894   S     0.01113   0.88091   0.55630   0.00000  Uiso   1.00
S895   S     0.10655   0.75697   0.61647   0.00000  Uiso   1.00
S896   S     0.22881   0.90858   0.38388   0.00000  Uiso   1.00
C897   C     0.50101   0.75425   0.50043   0.00000  Uiso   1.00
C898   C     0.53542   0.68781   0.53307   0.00000  Uiso   1.00
C899   C     0.49794   0.95702   0.49939   0.00000  Uiso   1.00
C900   C     0.50179   0.70963   0.50073   0.00000  Uiso   1.00
C901   C     0.47331   0.80346   0.35706   0.00000  Uiso   1.00
C902   C     0.52649   0.86332   0.64293   0.00000  Uiso   1.00
C903   C     0.47276   0.80266   0.64124   0.00000  Uiso   1.00
C904   C     0.52744   0.86386   0.35878   0.00000  Uiso   1.00
C905   C     0.49891   0.91241   0.49958   0.00000  Uiso   1.00
C906   C     0.40161   0.83243   0.48859   0.00000  Uiso   1.00
C907   C     0.59838   0.83431   0.51141   0.00000  Uiso   1.00
C908   C     0.34712   0.82480   0.48447   0.00000  Uiso   1.00
C909   C     0.65288   0.84194   0.51553   0.00000  Uiso   1.00
C910   C     0.46741   0.68841   0.46769   0.00000  Uiso   1.00
C911   C     0.53222   0.97824   0.53251   0.00000  Uiso   1.00
C912   C     0.46413   0.97885   0.46720   0.00000  Uiso   1.00
Cu913  Cu    0.50000   0.83334   0.54689   0.00000  Uiso   1.00
Cu914  Cu    0.50000   0.83333   0.45311   0.00000  Uiso   1.00
H915   H     0.44175   0.70528   0.44290   0.00000  Uiso   1.00
H916   H     0.54174   0.97080   0.39708   0.00000  Uiso   1.00
H917   H     0.55790   0.96138   0.55729   0.00000  Uiso   1.00
H918   H     0.45303   0.77958   0.37549   0.00000  Uiso   1.00
H919   H     0.54676   0.88727   0.62457   0.00000  Uiso   1.00
H920   H     0.35360   0.73880   0.40477   0.00000  Uiso   1.00
H921   H     0.64653   0.92802   0.59516   0.00000  Uiso   1.00
H922   H     0.42053   0.93080   0.44546   0.00000  Uiso   1.00
H923   H     0.57923   0.73575   0.55474   0.00000  Uiso   1.00
H924   H     0.39473   0.73513   0.55363   0.00000  Uiso   1.00
N925   N     0.50001   0.83334   0.61736   0.00000  Uiso   1.00
N926   N     0.49999   0.83332   0.38264   0.00000  Uiso   1.00
O927   O     0.50000   0.77322   0.53958   0.00000  Uiso   1.00
O928   O     0.62876   0.80587   0.40093   0.00000  Uiso   1.00
O929   O     0.37027   0.75872   0.42810   0.00000  Uiso   1.00
O930   O     0.37117   0.86062   0.59915   0.00000  Uiso   1.00
O931   O     0.38166   0.91040   0.53489   0.00000  Uiso   1.00
O932   O     0.62978   0.90792   0.57207   0.00000  Uiso   1.00
O933   O     0.42687   0.95998   0.43576   0.00000  Uiso   1.00
O934   O     0.57258   0.70666   0.56462   0.00000  Uiso   1.00
O935   O     0.47897   0.72524   0.61279   0.00000  Uiso   1.00
O936   O     0.40289   0.73956   0.64885   0.00000  Uiso   1.00
O937   O     0.40569   0.76348   0.56430   0.00000  Uiso   1.00
O938   O     0.50000   0.89345   0.46042   0.00000  Uiso   1.00
O939   O     0.59105   0.90127   0.43092   0.00000  Uiso   1.00
O940   O     0.60050   0.92462   0.35207   0.00000  Uiso   1.00
O941   O     0.52030   0.94565   0.38743   0.00000  Uiso   1.00
O942   O     0.50000   0.77321   0.46039   0.00000  Uiso   1.00
O943   O     0.50000   0.89346   0.53961   0.00000  Uiso   1.00
O944   O     0.42495   0.83334   0.53046   0.00000  Uiso   1.00
O945   O     0.57505   0.83333   0.46954   0.00000  Uiso   1.00
O946   O     0.42494   0.83333   0.45127   0.00000  Uiso   1.00
O947   O     0.57506   0.83334   0.54873   0.00000  Uiso   1.00
O948   O     0.61845   0.75623   0.46536   0.00000  Uiso   1.00
S949   S     0.65556   0.78571   0.44382   0.00000  Uiso   1.00
S950   S     0.34446   0.88091   0.55630   0.00000  Uiso   1.00
S951   S     0.43989   0.75697   0.61647   0.00000  Uiso   1.00
S952   S     0.56214   0.90858   0.38388   0.00000  Uiso   1.00
C953   C     0.83435   0.75425   0.50043   0.00000  Uiso   1.00
C954   C     0.86875   0.68781   0.53307   0.00000  Uiso   1.00
C955   C     0.83127   0.95702   0.49939   0.00000  Uiso   1.00
C956   C     0.83512   0.70963   0.50073   0.00000  Uiso   1.00
C957   C     0.80664   0.80346   0.35706   0.00000  Uiso   1.00
C958   C     0.85983   0.86332   0.64293   0.00000  Uiso   1.00
C959   C     0.80609   0.80266   0.64124   0.00000  Uiso   1.00
C960   C     0.86077   0.86386   0.35878   0.00000  Uiso   1.00
C961   C     0.83224   0.91241   0.49958   0.00000  Uiso   1.00
C962   C     0.73495   0.83243   0.48859   0.00000  Uiso   1.00
C963   C     0.93172   0.83431   0.51141   0.00000  Uiso   1.00
C964   C     0.68045   0.82480   0.48447   0.00000  Uiso   1.00
C965   C     0.98621   0.84194   0.51553   0.00000  Uiso   1.00
C966   C     0.80074   0.68841   0.46769   0.00000  Uiso   1.00
C967   C     0.86555   0.97824   0.53251   0.00000  Uiso   1.00
C968   C     0.79746   0.97885   0.46720   0.00000  Uiso   1.00
Cu969  Cu    0.83333   0.83334   0.54689   0.00000  Uiso   1.00
Cu970  Cu    0.83333   0.83333   0.45311   0.00000  Uiso   1.00
H971   H     0.77509   0.70528   0.44290   0.00000  Uiso   1.00
H972   H     0.87507   0.97080   0.39708   0.00000  Uiso   1.00
H973   H     0.89123   0.96138   0.55729   0.00000  Uiso   1.00
H974   H     0.78636   0.77958   0.37549   0.00000  Uiso   1.00
H975   H     0.88009   0.88727   0.62457   0.00000  Uiso   1.00
H976   H     0.68693   0.73880   0.40477   0.00000  Uiso   1.00
H977   H     0.97987   0.92802   0.59516   0.00000  Uiso   1.00
H978   H     0.75386   0.93080   0.44546   0.00000  Uiso   1.00
H979   H     0.91256   0.73575   0.55474   0.00000  Uiso   1.00
H980   H     0.72806   0.73513   0.55363   0.00000  Uiso   1.00
N981   N     0.83335   0.83334   0.61736   0.00000  Uiso   1.00
N982   N     0.83332   0.83332   0.38264   0.00000  Uiso   1.00
O983   O     0.83333   0.77322   0.53958   0.00000  Uiso   1.00
O984   O     0.96210   0.80587   0.40093   0.00000  Uiso   1.00
O985   O     0.70360   0.75872   0.42810   0.00000  Uiso   1.00
O986   O     0.70451   0.86062   0.59915   0.00000  Uiso   1.00
O987   O     0.71499   0.91040   0.53489   0.00000  Uiso   1.00
O988   O     0.96312   0.90792   0.57207   0.00000  Uiso   1.00
O989   O     0.76020   0.95998   0.43576   0.00000  Uiso   1.00
O990   O     0.90592   0.70666   0.56462   0.00000  Uiso   1.00
O991   O     0.81230   0.72524   0.61279   0.00000  Uiso   1.00
O992   O     0.73622   0.73956   0.64885   0.00000  Uiso   1.00
O993   O     0.73902   0.76348   0.56430   0.00000  Uiso   1.00
O994   O     0.83334   0.89345   0.46042   0.00000  Uiso   1.00
O995   O     0.92438   0.90127   0.43092   0.00000  Uiso   1.00
O996   O     0.93383   0.92462   0.35207   0.00000  Uiso   1.00
O997   O     0.85363   0.94565   0.38743   0.00000  Uiso   1.00
O998   O     0.83333   0.77321   0.46039   0.00000  Uiso   1.00
O999   O     0.83334   0.89346   0.53961   0.00000  Uiso   1.00
O1000  O     0.75828   0.83334   0.53046   0.00000  Uiso   1.00
O1001  O     0.90839   0.83333   0.46954   0.00000  Uiso   1.00
O1002  O     0.75828   0.83333   0.45127   0.00000  Uiso   1.00
O1003  O     0.90839   0.83334   0.54873   0.00000  Uiso   1.00
O1004  O     0.95179   0.75623   0.46536   0.00000  Uiso   1.00
S1005  S     0.98890   0.78571   0.44382   0.00000  Uiso   1.00
S1006  S     0.67780   0.88091   0.55630   0.00000  Uiso   1.00
S1007  S     0.77322   0.75697   0.61647   0.00000  Uiso   1.00
S1008  S     0.89548   0.90858   0.38388   0.00000  Uiso   1.00
C1009  C     0.16768   0.08759   0.83376   0.00000  Uiso   1.00
C1010  C     0.20208   0.02114   0.86641   0.00000  Uiso   1.00
C1011  C     0.16461   0.29036   0.83272   0.00000  Uiso   1.00
C1012  C     0.16846   0.04297   0.83406   0.00000  Uiso   1.00
C1013  C     0.13997   0.13680   0.69039   0.00000  Uiso   1.00
C1014  C     0.19316   0.19665   0.97626   0.00000  Uiso   1.00
C1015  C     0.13943   0.13599   0.97457   0.00000  Uiso   1.00
C1016  C     0.19410   0.19720   0.69211   0.00000  Uiso   1.00
C1017  C     0.16558   0.24574   0.83291   0.00000  Uiso   1.00
C1018  C     0.06828   0.16576   0.82192   0.00000  Uiso   1.00
C1019  C     0.26505   0.16764   0.84474   0.00000  Uiso   1.00
C1020  C     0.01378   0.15813   0.81780   0.00000  Uiso   1.00
C1021  C     0.31955   0.17528   0.84886   0.00000  Uiso   1.00
C1022  C     0.13407   0.02175   0.80103   0.00000  Uiso   1.00
C1023  C     0.19889   0.31158   0.86584   0.00000  Uiso   1.00
C1024  C     0.13079   0.31218   0.80054   0.00000  Uiso   1.00
Cu1025 Cu    0.16667   0.16667   0.88022   0.00000  Uiso   1.00
Cu1026 Cu    0.16667   0.16666   0.78645   0.00000  Uiso   1.00
H1027  H     0.10842   0.03862   0.77623   0.00000  Uiso   1.00
H1028  H     0.20841   0.30413   0.73042   0.00000  Uiso   1.00
H1029  H     0.22457   0.29471   0.89062   0.00000  Uiso   1.00
H1030  H     0.11969   0.11291   0.70882   0.00000  Uiso   1.00
H1031  H     0.21342   0.22061   0.95790   0.00000  Uiso   1.00
H1032  H     0.02026   0.07213   0.73810   0.00000  Uiso   1.00
H1033  H     0.31320   0.26136   0.92849   0.00000  Uiso   1.00
H1034  H     0.08720   0.26414   0.77880   0.00000  Uiso   1.00
H1035  H     0.24590   0.06909   0.88807   0.00000  Uiso   1.00
H1036  H     0.06140   0.06846   0.88697   0.00000  Uiso   1.00
N1037  N     0.16668   0.16668   0.95069   0.00000  Uiso   1.00
N1038  N     0.16665   0.16666   0.71597   0.00000  Uiso   1.00
O1039  O     0.16666   0.10655   0.87291   0.00000  Uiso   1.00
O1040  O     0.29543   0.13921   0.73426   0.00000  Uiso   1.00
O1041  O     0.03694   0.09206   0.76144   0.00000  Uiso   1.00
O1042  O     0.03784   0.19395   0.93249   0.00000  Uiso   1.00
O1043  O     0.04833   0.24374   0.86822   0.00000  Uiso   1.00
O1044  O     0.29645   0.24125   0.90540   0.00000  Uiso   1.00
O1045  O     0.09353   0.29331   0.76909   0.00000  Uiso   1.00
O1046  O     0.23925   0.04000   0.89795   0.00000  Uiso   1.00
O1047  O     0.14563   0.05857   0.94613   0.00000  Uiso   1.00
O1048  O     0.06956   0.07289   0.98218   0.00000  Uiso   1.00
O1049  O     0.07236   0.09682   0.89764   0.00000  Uiso   1.00
O1050  O     0.16667   0.22678   0.79375   0.00000  Uiso   1.00
O1051  O     0.25771   0.23461   0.76426   0.00000  Uiso   1.00
O1052  O     0.26717   0.25795   0.68540   0.00000  Uiso   1.00
O1053  O     0.18697   0.27898   0.72076   0.00000  Uiso   1.00
O1054  O     0.16666   0.10654   0.79372   0.00000  Uiso   1.00
O1055  O     0.16667   0.22679   0.87294   0.00000  Uiso   1.00
O1056  O     0.09161   0.16667   0.86379   0.00000  Uiso   1.00
O1057  O     0.24172   0.16666   0.80288   0.00000  Uiso   1.00
O1058  O     0.09161   0.16666   0.78460   0.00000  Uiso   1.00
O1059  O     0.24172   0.16667   0.88207   0.00000  Uiso   1.00
O1060  O     0.28512   0.08956   0.79869   0.00000  Uiso   1.00
S1061  S     0.32223   0.11904   0.77715   0.00000  Uiso   1.00
S1062  S     0.01113   0.21425   0.88964   0.00000  Uiso   1.00
S1063  S     0.10655   0.09030   0.94980   0.00000  Uiso   1.00
S1064  S     0.22881   0.24191   0.71721   0.00000  Uiso   1.00
C1065  C     0.50101   0.08759   0.83376   0.00000  Uiso   1.00
C1066  C     0.53542   0.02114   0.86641   0.00000  Uiso   1.00
C1067  C     0.49794   0.29036   0.83272   0.00000  Uiso   1.00
C1068  C     0.50179   0.04297   0.83406   0.00000  Uiso   1.00
C1069  C     0.47331   0.13680   0.69039   0.00000  Uiso   1.00
C1070  C     0.52649   0.19665   0.97626   0.00000  Uiso   1.00
C1071  C     0.47276   0.13599   0.97457   0.00000  Uiso   1.00
C1072  C     0.52744   0.19720   0.69211   0.00000  Uiso   1.00
C1073  C     0.49891   0.24574   0.83291   0.00000  Uiso   1.00
C1074  C     0.40161   0.16576   0.82192   0.00000  Uiso   1.00
C1075  C     0.59838   0.16764   0.84474   0.00000  Uiso   1.00
C1076  C     0.34712   0.15813   0.81780   0.00000  Uiso   1.00
C1077  C     0.65288   0.17528   0.84886   0.00000  Uiso   1.00
C1078  C     0.46741   0.02175   0.80103   0.00000  Uiso   1.00
C1079  C     0.53222   0.31158   0.86584   0.00000  Uiso   1.00
C1080  C     0.46413   0.31218   0.80054   0.00000  Uiso   1.00
Cu1081 Cu    0.50000   0.16667   0.88022   0.00000  Uiso   1.00
Cu1082 Cu    0.50000   0.16666   0.78645   0.00000  Uiso   1.00
H1083  H     0.44175   0.03862   0.77623   0.00000  Uiso   1.00
H1084  H     0.54174   0.30413   0.73042   0.00000  Uiso   1.00
H1085  H     0.55790   0.29471   0.89062   0.00000  Uiso   1.00
H1086  H     0.45303   0.11291   0.70882   0.00000  Uiso   1.00
H1087  H     0.54676   0.22061   0.95790   0.00000  Uiso   1.00
H1088  H     0.35360   0.07213   0.73810   0.00000  Uiso   1.00
H1089  H     0.64653   0.26136   0.92849   0.00000  Uiso   1.00
H1090  H     0.42053   0.26414   0.77880   0.00000  Uiso   1.00
H1091  H     0.57923   0.06909   0.88807   0.00000  Uiso   1.00
H1092  H     0.39473   0.06846   0.88697   0.00000  Uiso   1.00
N1093  N     0.50001   0.16668   0.95069   0.00000  Uiso   1.00
N1094  N     0.49999   0.16666   0.71597   0.00000  Uiso   1.00
O1095  O     0.50000   0.10655   0.87291   0.00000  Uiso   1.00
O1096  O     0.62876   0.13921   0.73426   0.00000  Uiso   1.00
O1097  O     0.37027   0.09206   0.76144   0.00000  Uiso   1.00
O1098  O     0.37117   0.19395   0.93249   0.00000  Uiso   1.00
O1099  O     0.38166   0.24374   0.86822   0.00000  Uiso   1.00
O1100  O     0.62978   0.24125   0.90540   0.00000  Uiso   1.00
O1101  O     0.42687   0.29331   0.76909   0.00000  Uiso   1.00
O1102  O     0.57258   0.04000   0.89795   0.00000  Uiso   1.00
O1103  O     0.47897   0.05857   0.94613   0.00000  Uiso   1.00
O1104  O     0.40289   0.07289   0.98218   0.00000  Uiso   1.00
O1105  O     0.40569   0.09682   0.89764   0.00000  Uiso   1.00
O1106  O     0.50000   0.22678   0.79375   0.00000  Uiso   1.00
O1107  O     0.59105   0.23461   0.76426   0.00000  Uiso   1.00
O1108  O     0.60050   0.25795   0.68540   0.00000  Uiso   1.00
O1109  O     0.52030   0.27898   0.72076   0.00000  Uiso   1.00
O1110  O     0.50000   0.10654   0.79372   0.00000  Uiso   1.00
O1111  O     0.50000   0.22679   0.87294   0.00000  Uiso   1.00
O1112  O     0.42495   0.16667   0.86379   0.00000  Uiso   1.00
O1113  O     0.57505   0.16666   0.80288   0.00000  Uiso   1.00
O1114  O     0.42494   0.16666   0.78460   0.00000  Uiso   1.00
O1115  O     0.57506   0.16667   0.88207   0.00000  Uiso   1.00
O1116  O     0.61845   0.08956   0.79869   0.00000  Uiso   1.00
S1117  S     0.65556   0.11904   0.77715   0.00000  Uiso   1.00
S1118  S     0.34446   0.21425   0.88964   0.00000  Uiso   1.00
S1119  S     0.43989   0.09030   0.94980   0.00000  Uiso   1.00
S1120  S     0.56214   0.24191   0.71721   0.00000  Uiso   1.00
C1121  C     0.83435   0.08759   0.83376   0.00000  Uiso   1.00
C1122  C     0.86875   0.02114   0.86641   0.00000  Uiso   1.00
C1123  C     0.83127   0.29036   0.83272   0.00000  Uiso   1.00
C1124  C     0.83512   0.04297   0.83406   0.00000  Uiso   1.00
C1125  C     0.80664   0.13680   0.69039   0.00000  Uiso   1.00
C1126  C     0.85983   0.19665   0.97626   0.00000  Uiso   1.00
C1127  C     0.80609   0.13599   0.97457   0.00000  Uiso   1.00
C1128  C     0.86077   0.19720   0.69211   0.00000  Uiso   1.00
C1129  C     0.83224   0.24574   0.83291   0.00000  Uiso   1.00
C1130  C     0.73495   0.16576   0.82192   0.00000  Uiso   1.00
C1131  C     0.93172   0.16764   0.84474   0.00000  Uiso   1.00
C1132  C     0.68045   0.15813   0.81780   0.00000  Uiso   1.00
C1133  C     0.98621   0.17528   0.84886   0.00000  Uiso   1.00
C1134  C     0.80074   0.02175   0.80103   0.00000  Uiso   1.00
C1135  C     0.86555   0.31158   0.86584   0.00000  Uiso   1.00
C1136  C     0.79746   0.31218   0.80054   0.00000  Uiso   1.00
Cu1137 Cu    0.83333   0.16667   0.88022   0.00000  Uiso   1.00
Cu1138 Cu    0.83333   0.16666   0.78645   0.00000  Uiso   1.00
H1139  H     0.77509   0.03862   0.77623   0.00000  Uiso   1.00
H1140  H     0.87507   0.30413   0.73042   0.00000  Uiso   1.00
H1141  H     0.89123   0.29471   0.89062   0.00000  Uiso   1.00
H1142  H     0.78636   0.11291   0.70882   0.00000  Uiso   1.00
H1143  H     0.88009   0.22061   0.95790   0.00000  Uiso   1.00
H1144  H     0.68693   0.07213   0.73810   0.00000  Uiso   1.00
H1145  H     0.97987   0.26136   0.92849   0.00000  Uiso   1.00
H1146  H     0.75386   0.26414   0.77880   0.00000  Uiso   1.00
H1147  H     0.91256   0.06909   0.88807   0.00000  Uiso   1.00
H1148  H     0.72806   0.06846   0.88697   0.00000  Uiso   1.00
N1149  N     0.83335   0.16668   0.95069   0.00000  Uiso   1.00
N1150  N     0.83332   0.16666   0.71597   0.00000  Uiso   1.00
O1151  O     0.83333   0.10655   0.87291   0.00000  Uiso   1.00
O1152  O     0.96210   0.13921   0.73426   0.00000  Uiso   1.00
O1153  O     0.70360   0.09206   0.76144   0.00000  Uiso   1.00
O1154  O     0.70451   0.19395   0.93249   0.00000  Uiso   1.00
O1155  O     0.71499   0.24374   0.86822   0.00000  Uiso   1.00
O1156  O     0.96312   0.24125   0.90540   0.00000  Uiso   1.00
O1157  O     0.76020   0.29331   0.76909   0.00000  Uiso   1.00
O1158  O     0.90592   0.04000   0.89795   0.00000  Uiso   1.00
O1159  O     0.81230   0.05857   0.94613   0.00000  Uiso   1.00
O1160  O     0.73622   0.07289   0.98218   0.00000  Uiso   1.00
O1161  O     0.73902   0.09682   0.89764   0.00000  Uiso   1.00
O1162  O     0.83334   0.22678   0.79375   0.00000  Uiso   1.00
O1163  O     0.92438   0.23461   0.76426   0.00000  Uiso   1.00
O1164  O     0.93383   0.25795   0.68540   0.00000  Uiso   1.00
O1165  O     0.85363   0.27898   0.72076   0.00000  Uiso   1.00
O1166  O     0.83333   0.10654   0.79372   0.00000  Uiso   1.00
O1167  O     0.83334   0.22679   0.87294   0.00000  Uiso   1.00
O1168  O     0.75828   0.16667   0.86379   0.00000  Uiso   1.00
O1169  O     0.90839   0.16666   0.80288   0.00000  Uiso   1.00
O1170  O     0.75828   0.16666   0.78460   0.00000  Uiso   1.00
O1171  O     0.90839   0.16667   0.88207   0.00000  Uiso   1.00
O1172  O     0.95179   0.08956   0.79869   0.00000  Uiso   1.00
S1173  S     0.98890   0.11904   0.77715   0.00000  Uiso   1.00
S1174  S     0.67780   0.21425   0.88964   0.00000  Uiso   1.00
S1175  S     0.77322   0.09030   0.94980   0.00000  Uiso   1.00
S1176  S     0.89548   0.24191   0.71721   0.00000  Uiso   1.00
C1177  C     0.16768   0.42092   0.83376   0.00000  Uiso   1.00
C1178  C     0.20208   0.35447   0.86641   0.00000  Uiso   1.00
C1179  C     0.16461   0.62369   0.83272   0.00000  Uiso   1.00
C1180  C     0.16846   0.37630   0.83406   0.00000  Uiso   1.00
C1181  C     0.13997   0.47013   0.69039   0.00000  Uiso   1.00
C1182  C     0.19316   0.52998   0.97626   0.00000  Uiso   1.00
C1183  C     0.13943   0.46932   0.97457   0.00000  Uiso   1.00
C1184  C     0.19410   0.53053   0.69211   0.00000  Uiso   1.00
C1185  C     0.16558   0.57908   0.83291   0.00000  Uiso   1.00
C1186  C     0.06828   0.49909   0.82192   0.00000  Uiso   1.00
C1187  C     0.26505   0.50098   0.84474   0.00000  Uiso   1.00
C1188  C     0.01378   0.49146   0.81780   0.00000  Uiso   1.00
C1189  C     0.31955   0.50861   0.84886   0.00000  Uiso   1.00
C1190  C     0.13407   0.35508   0.80103   0.00000  Uiso   1.00
C1191  C     0.19889   0.64491   0.86584   0.00000  Uiso   1.00
C1192  C     0.13079   0.64551   0.80054   0.00000  Uiso   1.00
Cu1193 Cu    0.16667   0.50001   0.88022   0.00000  Uiso   1.00
Cu1194 Cu    0.16667   0.49999   0.78645   0.00000  Uiso   1.00
H1195  H     0.10842   0.37195   0.77623   0.00000  Uiso   1.00
H1196  H     0.20841   0.63747   0.73042   0.00000  Uiso   1.00
H1197  H     0.22457   0.62804   0.89062   0.00000  Uiso   1.00
H1198  H     0.11969   0.44624   0.70882   0.00000  Uiso   1.00
H1199  H     0.21342   0.55394   0.95790   0.00000  Uiso   1.00
H1200  H     0.02026   0.40547   0.73810   0.00000  Uiso   1.00
H1201  H     0.31320   0.59469   0.92849   0.00000  Uiso   1.00
H1202  H     0.08720   0.59747   0.77880   0.00000  Uiso   1.00
H1203  H     0.24590   0.40242   0.88807   0.00000  Uiso   1.00
H1204  H     0.06140   0.40179   0.88697   0.00000  Uiso   1.00
N1205  N     0.16668   0.50001   0.95069   0.00000  Uiso   1.00
N1206  N     0.16665   0.49999   0.71597   0.00000  Uiso   1.00
O1207  O     0.16666   0.43989   0.87291   0.00000  Uiso   1.00
O1208  O     0.29543   0.47254   0.73426   0.00000  Uiso   1.00
O1209  O     0.03694   0.42539   0.76144   0.00000  Uiso   1.00
O1210  O     0.03784   0.52729   0.93249   0.00000  Uiso   1.00
O1211  O     0.04833   0.57707   0.86822   0.00000  Uiso   1.00
O1212  O     0.29645   0.57458   0.90540   0.00000  Uiso   1.00
O1213  O     0.09353   0.62664   0.76909   0.00000  Uiso   1.00
O1214  O     0.23925   0.37333   0.89795   0.00000  Uiso   1.00
O1215  O     0.14563   0.39191   0.94613   0.00000  Uiso   1.00
O1216  O     0.06956   0.40622   0.98218   0.00000  Uiso   1.00
O1217  O     0.07236   0.43015   0.89764   0.00000  Uiso   1.00
O1218  O     0.16667   0.56011   0.79375   0.00000  Uiso   1.00
O1219  O     0.25771   0.56794   0.76426   0.00000  Uiso   1.00
O1220  O     0.26717   0.59129   0.68540   0.00000  Uiso   1.00
O1221  O     0.18697   0.61231   0.72076   0.00000  Uiso   1.00
O1222  O     0.16666   0.43988   0.79372   0.00000  Uiso   1.00
O1223  O     0.16667   0.56012   0.87294   0.00000  Uiso   1.00
O1224  O     0.09161   0.50000   0.86379   0.00000  Uiso   1.00
O1225  O     0.24172   0.50000   0.80288   0.00000  Uiso   1.00
O1226  O     0.09161   0.49999   0.78460   0.00000  Uiso   1.00
O1227  O     0.24172   0.50001   0.88207   0.00000  Uiso   1.00
O1228  O     0.28512   0.42290   0.79869   0.00000  Uiso   1.00
S1229  S     0.32223   0.45238   0.77715   0.00000  Uiso   1.00
S1230  S     0.01113   0.54758   0.88964   0.00000  Uiso   1.00
S1231  S     0.10655   0.42364   0.94980   0.00000  Uiso   1.00
S1232  S     0.22881   0.57525   0.71721   0.00000  Uiso   1.00
C1233  C     0.50101   0.42092   0.83376   0.00000  Uiso   1.00
C1234  C     0.53542   0.35447   0.86641   0.00000  Uiso   1.00
C1235  C     0.49794   0.62369   0.83272   0.00000  Uiso   1.00
C1236  C     0.50179   0.37630   0.83406   0.00000  Uiso   1.00
C1237  C     0.47331   0.47013   0.69039   0.00000  Uiso   1.00
C1238  C     0.52649   0.52998   0.97626   0.00000  Uiso   1.00
C1239  C     0.47276   0.46932   0.97457   0.00000  Uiso   1.00
C1240  C     0.52744   0.53053   0.69211   0.00000  Uiso   1.00
C1241  C     0.49891   0.57908   0.83291   0.00000  Uiso   1.00
C1242  C     0.40161   0.49909   0.82192   0.00000  Uiso   1.00
C1243  C     0.59838   0.50098   0.84474   0.00000  Uiso   1.00
C1244  C     0.34712   0.49146   0.81780   0.00000  Uiso   1.00
C1245  C     0.65288   0.50861   0.84886   0.00000  Uiso   1.00
C1246  C     0.46741   0.35508   0.80103   0.00000  Uiso   1.00
C1247  C     0.53222   0.64491   0.86584   0.00000  Uiso   1.00
C1248  C     0.46413   0.64551   0.80054   0.00000  Uiso   1.00
Cu1249 Cu    0.50000   0.50001   0.88022   0.00000  Uiso   1.00
Cu1250 Cu    0.50000   0.49999   0.78645   0.00000  Uiso   1.00
H1251  H     0.44175   0.37195   0.77623   0.00000  Uiso   1.00
H1252  H     0.54174   0.63747   0.73042   0.00000  Uiso   1.00
H1253  H     0.55790   0.62804   0.89062   0.00000  Uiso   1.00
H1254  H     0.45303   0.44624   0.70882   0.00000  Uiso   1.00
H1255  H     0.54676   0.55394   0.95790   0.00000  Uiso   1.00
H1256  H     0.35360   0.40547   0.73810   0.00000  Uiso   1.00
H1257  H     0.64653   0.59469   0.92849   0.00000  Uiso   1.00
H1258  H     0.42053   0.59747   0.77880   0.00000  Uiso   1.00
H1259  H     0.57923   0.40242   0.88807   0.00000  Uiso   1.00
H1260  H     0.39473   0.40179   0.88697   0.00000  Uiso   1.00
N1261  N     0.50001   0.50001   0.95069   0.00000  Uiso   1.00
N1262  N     0.49999   0.49999   0.71597   0.00000  Uiso   1.00
O1263  O     0.50000   0.43989   0.87291   0.00000  Uiso   1.00
O1264  O     0.62876   0.47254   0.73426   0.00000  Uiso   1.00
O1265  O     0.37027   0.42539   0.76144   0.00000  Uiso   1.00
O1266  O     0.37117   0.52729   0.93249   0.00000  Uiso   1.00
O1267  O     0.38166   0.57707   0.86822   0.00000  Uiso   1.00
O1268  O     0.62978   0.57458   0.90540   0.00000  Uiso   1.00
O1269  O     0.42687   0.62664   0.76909   0.00000  Uiso   1.00
O1270  O     0.57258   0.37333   0.89795   0.00000  Uiso   1.00
O1271  O     0.47897   0.39191   0.94613   0.00000  Uiso   1.00
O1272  O     0.40289   0.40622   0.98218   0.00000  Uiso   1.00
O1273  O     0.40569   0.43015   0.89764   0.00000  Uiso   1.00
O1274  O     0.50000   0.56011   0.79375   0.00000  Uiso   1.00
O1275  O     0.59105   0.56794   0.76426   0.00000  Uiso   1.00
O1276  O     0.60050   0.59129   0.68540   0.00000  Uiso   1.00
O1277  O     0.52030   0.61231   0.72076   0.00000  Uiso   1.00
O1278  O     0.50000   0.43988   0.79372   0.00000  Uiso   1.00
O1279  O     0.50000   0.56012   0.87294   0.00000  Uiso   1.00
O1280  O     0.42495   0.50000   0.86379   0.00000  Uiso   1.00
O1281  O     0.57505   0.50000   0.80288   0.00000  Uiso   1.00
O1282  O     0.42494   0.49999   0.78460   0.00000  Uiso   1.00
O1283  O     0.57506   0.50001   0.88207   0.00000  Uiso   1.00
O1284  O     0.61845   0.42290   0.79869   0.00000  Uiso   1.00
S1285  S     0.65556   0.45238   0.77715   0.00000  Uiso   1.00
S1286  S     0.34446   0.54758   0.88964   0.00000  Uiso   1.00
S1287  S     0.43989   0.42364   0.94980   0.00000  Uiso   1.00
S1288  S     0.56214   0.57525   0.71721   0.00000  Uiso   1.00
C1289  C     0.83435   0.42092   0.83376   0.00000  Uiso   1.00
C1290  C     0.86875   0.35447   0.86641   0.00000  Uiso   1.00
C1291  C     0.83127   0.62369   0.83272   0.00000  Uiso   1.00
C1292  C     0.83512   0.37630   0.83406   0.00000  Uiso   1.00
C1293  C     0.80664   0.47013   0.69039   0.00000  Uiso   1.00
C1294  C     0.85983   0.52998   0.97626   0.00000  Uiso   1.00
C1295  C     0.80609   0.46932   0.97457   0.00000  Uiso   1.00
C1296  C     0.86077   0.53053   0.69211   0.00000  Uiso   1.00
C1297  C     0.83224   0.57908   0.83291   0.00000  Uiso   1.00
C1298  C     0.73495   0.49909   0.82192   0.00000  Uiso   1.00
C1299  C     0.93172   0.50098   0.84474   0.00000  Uiso   1.00
C1300  C     0.68045   0.49146   0.81780   0.00000  Uiso   1.00
C1301  C     0.98621   0.50861   0.84886   0.00000  Uiso   1.00
C1302  C     0.80074   0.35508   0.80103   0.00000  Uiso   1.00
C1303  C     0.86555   0.64491   0.86584   0.00000  Uiso   1.00
C1304  C     0.79746   0.64551   0.80054   0.00000  Uiso   1.00
Cu1305 Cu    0.83333   0.50001   0.88022   0.00000  Uiso   1.00
Cu1306 Cu    0.83333   0.49999   0.78645   0.00000  Uiso   1.00
H1307  H     0.77509   0.37195   0.77623   0.00000  Uiso   1.00
H1308  H     0.87507   0.63747   0.73042   0.00000  Uiso   1.00
H1309  H     0.89123   0.62804   0.89062   0.00000  Uiso   1.00
H1310  H     0.78636   0.44624   0.70882   0.00000  Uiso   1.00
H1311  H     0.88009   0.55394   0.95790   0.00000  Uiso   1.00
H1312  H     0.68693   0.40547   0.73810   0.00000  Uiso   1.00
H1313  H     0.97987   0.59469   0.92849   0.00000  Uiso   1.00
H1314  H     0.75386   0.59747   0.77880   0.00000  Uiso   1.00
H1315  H     0.91256   0.40242   0.88807   0.00000  Uiso   1.00
H1316  H     0.72806   0.40179   0.88697   0.00000  Uiso   1.00
N1317  N     0.83335   0.50001   0.95069   0.00000  Uiso   1.00
N1318  N     0.83332   0.49999   0.71597   0.00000  Uiso   1.00
O1319  O     0.83333   0.43989   0.87291   0.00000  Uiso   1.00
O1320  O     0.96210   0.47254   0.73426   0.00000  Uiso   1.00
O1321  O     0.70360   0.42539   0.76144   0.00000  Uiso   1.00
O1322  O     0.70451   0.52729   0.93249   0.00000  Uiso   1.00
O1323  O     0.71499   0.57707   0.86822   0.00000  Uiso   1.00
O1324  O     0.96312   0.57458   0.90540   0.00000  Uiso   1.00
O1325  O     0.76020   0.62664   0.76909   0.00000  Uiso   1.00
O1326  O     0.90592   0.37333   0.89795   0.00000  Uiso   1.00
O1327  O     0.81230   0.39191   0.94613   0.00000  Uiso   1.00
O1328  O     0.73622   0.40622   0.98218   0.00000  Uiso   1.00
O1329  O     0.73902   0.43015   0.89764   0.00000  Uiso   1.00
O1330  O     0.83334   0.56011   0.79375   0.00000  Uiso   1.00
O1331  O     0.92438   0.56794   0.76426   0.00000  Uiso   1.00
O1332  O     0.93383   0.59129   0.68540   0.00000  Uiso   1.00
O1333  O     0.85363   0.61231   0.72076   0.00000  Uiso   1.00
O1334  O     0.83333   0.43988   0.79372   0.00000  Uiso   1.00
O1335  O     0.83334   0.56012   0.87294   0.00000  Uiso   1.00
O1336  O     0.75828   0.50000   0.86379   0.00000  Uiso   1.00
O1337  O     0.90839   0.50000   0.80288   0.00000  Uiso   1.00
O1338  O     0.75828   0.49999   0.78460   0.00000  Uiso   1.00
O1339  O     0.90839   0.50001   0.88207   0.00000  Uiso   1.00
O1340  O     0.95179   0.42290   0.79869   0.00000  Uiso   1.00
S1341  S     0.98890   0.45238   0.77715   0.00000  Uiso   1.00
S1342  S     0.67780   0.54758   0.88964   0.00000  Uiso   1.00
S1343  S     0.77322   0.42364   0.94980   0.00000  Uiso   1.00
S1344  S     0.89548   0.57525   0.71721   0.00000  Uiso   1.00
C1345  C     0.16768   0.75425   0.83376   0.00000  Uiso   1.00
C1346  C     0.20208   0.68781   0.86641   0.00000  Uiso   1.00
C1347  C     0.16461   0.95702   0.83272   0.00000  Uiso   1.00
C1348  C     0.16846   0.70963   0.83406   0.00000  Uiso   1.00
C1349  C     0.13997   0.80346   0.69039   0.00000  Uiso   1.00
C1350  C     0.19316   0.86332   0.97626   0.00000  Uiso   1.00
C1351  C     0.13943   0.80266   0.97457   0.00000  Uiso   1.00
C1352  C     0.19410   0.86386   0.69211   0.00000  Uiso   1.00
C1353  C     0.16558   0.91241   0.83291   0.00000  Uiso   1.00
C1354  C     0.06828   0.83243   0.82192   0.00000  Uiso   1.00
C1355  C     0.26505   0.83431   0.84474   0.00000  Uiso   1.00
C1356  C     0.01378   0.82480   0.81780   0.00000  Uiso   1.00
C1357  C     0.31955   0.84194   0.84886   0.00000  Uiso   1.00
C1358  C     0.13407   0.68841   0.80103   0.00000  Uiso   1.00
C1359  C     0.19889   0.97824   0.86584   0.00000  Uiso   1.00
C1360  C     0.13079   0.97885   0.80054   0.00000  Uiso   1.00
Cu1361 Cu    0.16667   0.83334   0.88022   0.00000  Uiso   1.00
Cu1362 Cu    0.16667   0.83333   0.78645   0.00000  Uiso   1.00
H1363  H     0.10842   0.70528   0.77623   0.00000  Uiso   1.00
H1364  H     0.20841   0.97080   0.73042   0.00000  Uiso   1.00
H1365  H     0.22457   0.96138   0.89062   0.00000  Uiso   1.00
H1366  H     0.11969   0.77958   0.70882   0.00000  Uiso   1.00
H1367  H     0.21342   0.88727   0.95790   0.00000  Uiso   1.00
H1368  H     0.02026   0.73880   0.73810   0.00000  Uiso   1.00
H1369  H     0.31320   0.92802   0.92849   0.00000  Uiso   1.00
H1370  H     0.08720   0.93080   0.77880   0.00000  Uiso   1.00
H1371  H     0.24590   0.73575   0.88807   0.00000  Uiso   1.00
H1372  H     0.06140   0.73513   0.88697   0.00000  Uiso   1.00
N1373  N     0.16668   0.83334   0.95069   0.00000  Uiso   1.00
N1374  N     0.16665   0.83332   0.71597   0.00000  Uiso   1.00
O1375  O     0.16666   0.77322   0.87291   0.00000  Uiso   1.00
O1376  O     0.29543   0.80587   0.73426   0.00000  Uiso   1.00
O1377  O     0.03694   0.75872   0.76144   0.00000  Uiso   1.00
O1378  O     0.03784   0.86062   0.93249   0.00000  Uiso   1.00
O1379  O     0.04833   0.91040   0.86822   0.00000  Uiso   1.00
O1380  O     0.29645   0.90792   0.90540   0.00000  Uiso   1.00
O1381  O     0.09353   0.95998   0.76909   0.00000  Uiso   1.00
O1382  O     0.23925   0.70666   0.89795   0.00000  Uiso   1.00
O1383  O     0.14563   0.72524   0.94613   0.00000  Uiso   1.00
O1384  O     0.06956   0.73956   0.98218   0.00000  Uiso   1.00
O1385  O     0.07236   0.76348   0.89764   0.00000  Uiso   1.00
O1386  O     0.16667   0.89345   0.79375   0.00000  Uiso   1.00
O1387  O     0.25771   0.90127   0.76426   0.00000  Uiso   1.00
O1388  O     0.26717   0.92462   0.68540   0.00000  Uiso   1.00
O1389  O     0.18697   0.94565   0.72076   0.00000  Uiso   1.00
O1390  O     0.16666   0.77321   0.79372   0.00000  Uiso   1.00
O1391  O     0.16667   0.89346   0.87294   0.00000  Uiso   1.00
O1392  O     0.09161   0.83334   0.86379   0.00000  Uiso   1.00
O1393  O     0.24172   0.83333   0.80288   0.00000  Uiso   1.00
O1394  O     0.09161   0.83333   0.78460   0.00000  Uiso   1.00
O1395  O     0.24172   0.83334   0.88207   0.00000  Uiso   1.00
O1396  O     0.28512   0.75623   0.79869   0.00000  Uiso   1.00
S1397  S     0.32223   0.78571   0.77715   0.00000  Uiso   1.00
S1398  S     0.01113   0.88091   0.88964   0.00000  Uiso   1.00
S1399  S     0.10655   0.75697   0.94980   0.00000  Uiso   1.00
S1400  S     0.22881   0.90858   0.71721   0.00000  Uiso   1.00
C1401  C     0.50101   0.75425   0.83376   0.00000  Uiso   1.00
C1402  C     0.53542   0.68781   0.86641   0.00000  Uiso   1.00
C1403  C     0.49794   0.95702   0.83272   0.00000  Uiso   1.00
C1404  C     0.50179   0.70963   0.83406   0.00000  Uiso   1.00
C1405  C     0.47331   0.80346   0.69039   0.00000  Uiso   1.00
C1406  C     0.52649   0.86332   0.97626   0.00000  Uiso   1.00
C1407  C     0.47276   0.80266   0.97457   0.00000  Uiso   1.00
C1408  C     0.52744   0.86386   0.69211   0.00000  Uiso   1.00
C1409  C     0.49891   0.91241   0.83291   0.00000  Uiso   1.00
C1410  C     0.40161   0.83243   0.82192   0.00000  Uiso   1.00
C1411  C     0.59838   0.83431   0.84474   0.00000  Uiso   1.00
C1412  C     0.34712   0.82480   0.81780   0.00000  Uiso   1.00
C1413  C     0.65288   0.84194   0.84886   0.00000  Uiso   1.00
C1414  C     0.46741   0.68841   0.80103   0.00000  Uiso   1.00
C1415  C     0.53222   0.97824   0.86584   0.00000  Uiso   1.00
C1416  C     0.46413   0.97885   0.80054   0.00000  Uiso   1.00
Cu1417 Cu    0.50000   0.83334   0.88022   0.00000  Uiso   1.00
Cu1418 Cu    0.50000   0.83333   0.78645   0.00000  Uiso   1.00
H1419  H     0.44175   0.70528   0.77623   0.00000  Uiso   1.00
H1420  H     0.54174   0.97080   0.73042   0.00000  Uiso   1.00
H1421  H     0.55790   0.96138   0.89062   0.00000  Uiso   1.00
H1422  H     0.45303   0.77958   0.70882   0.00000  Uiso   1.00
H1423  H     0.54676   0.88727   0.95790   0.00000  Uiso   1.00
H1424  H     0.35360   0.73880   0.73810   0.00000  Uiso   1.00
H1425  H     0.64653   0.92802   0.92849   0.00000  Uiso   1.00
H1426  H     0.42053   0.93080   0.77880   0.00000  Uiso   1.00
H1427  H     0.57923   0.73575   0.88807   0.00000  Uiso   1.00
H1428  H     0.39473   0.73513   0.88697   0.00000  Uiso   1.00
N1429  N     0.50001   0.83334   0.95069   0.00000  Uiso   1.00
N1430  N     0.49999   0.83332   0.71597   0.00000  Uiso   1.00
O1431  O     0.50000   0.77322   0.87291   0.00000  Uiso   1.00
O1432  O     0.62876   0.80587   0.73426   0.00000  Uiso   1.00
O1433  O     0.37027   0.75872   0.76144   0.00000  Uiso   1.00
O1434  O     0.37117   0.86062   0.93249   0.00000  Uiso   1.00
O1435  O     0.38166   0.91040   0.86822   0.00000  Uiso   1.00
O1436  O     0.62978   0.90792   0.90540   0.00000  Uiso   1.00
O1437  O     0.42687   0.95998   0.76909   0.00000  Uiso   1.00
O1438  O     0.57258   0.70666   0.89795   0.00000  Uiso   1.00
O1439  O     0.47897   0.72524   0.94613   0.00000  Uiso   1.00
O1440  O     0.40289   0.73956   0.98218   0.00000  Uiso   1.00
O1441  O     0.40569   0.76348   0.89764   0.00000  Uiso   1.00
O1442  O     0.50000   0.89345   0.79375   0.00000  Uiso   1.00
O1443  O     0.59105   0.90127   0.76426   0.00000  Uiso   1.00
O1444  O     0.60050   0.92462   0.68540   0.00000  Uiso   1.00
O1445  O     0.52030   0.94565   0.72076   0.00000  Uiso   1.00
O1446  O     0.50000   0.77321   0.79372   0.00000  Uiso   1.00
O1447  O     0.50000   0.89346   0.87294   0.00000  Uiso   1.00
O1448  O     0.42495   0.83334   0.86379   0.00000  Uiso   1.00
O1449  O     0.57505   0.83333   0.80288   0.00000  Uiso   1.00
O1450  O     0.42494   0.83333   0.78460   0.00000  Uiso   1.00
O1451  O     0.57506   0.83334   0.88207   0.00000  Uiso   1.00
O1452  O     0.61845   0.75623   0.79869   0.00000  Uiso   1.00
S1453  S     0.65556   0.78571   0.77715   0.00000  Uiso   1.00
S1454  S     0.34446   0.88091   0.88964   0.00000  Uiso   1.00
S1455  S     0.43989   0.75697   0.94980   0.00000  Uiso   1.00
S1456  S     0.56214   0.90858   0.71721   0.00000  Uiso   1.00
C1457  C     0.83435   0.75425   0.83376   0.00000  Uiso   1.00
C1458  C     0.86875   0.68781   0.86641   0.00000  Uiso   1.00
C1459  C     0.83127   0.95702   0.83272   0.00000  Uiso   1.00
C1460  C     0.83512   0.70963   0.83406   0.00000  Uiso   1.00
C1461  C     0.80664   0.80346   0.69039   0.00000  Uiso   1.00
C1462  C     0.85983   0.86332   0.97626   0.00000  Uiso   1.00
C1463  C     0.80609   0.80266   0.97457   0.00000  Uiso   1.00
C1464  C     0.86077   0.86386   0.69211   0.00000  Uiso   1.00
C1465  C     0.83224   0.91241   0.83291   0.00000  Uiso   1.00
C1466  C     0.73495   0.83243   0.82192   0.00000  Uiso   1.00
C1467  C     0.93172   0.83431   0.84474   0.00000  Uiso   1.00
C1468  C     0.68045   0.82480   0.81780   0.00000  Uiso   1.00
C1469  C     0.98621   0.84194   0.84886   0.00000  Uiso   1.00
C1470  C     0.80074   0.68841   0.80103   0.00000  Uiso   1.00
C1471  C     0.86555   0.97824   0.86584   0.00000  Uiso   1.00
C1472  C     0.79746   0.97885   0.80054   0.00000  Uiso   1.00
Cu1473 Cu    0.83333   0.83334   0.88022   0.00000  Uiso   1.00
Cu1474 Cu    0.83333   0.83333   0.78645   0.00000  Uiso   1.00
H1475  H     0.77509   0.70528   0.77623   0.00000  Uiso   1.00
H1476  H     0.87507   0.97080   0.73042   0.00000  Uiso   1.00
H1477  H     0.89123   0.96138   0.89062   0.00000  Uiso   1.00
H1478  H     0.78636   0.77958   0.70882   0.00000  Uiso   1.00
H1479  H     0.88009   0.88727   0.95790   0.00000  Uiso   1.00
H1480  H     0.68693   0.73880   0.73810   0.00000  Uiso   1.00
H1481  H     0.97987   0.92802   0.92849   0.00000  Uiso   1.00
H1482  H     0.75386   0.93080   0.77880   0.00000  Uiso   1.00
H1483  H     0.91256   0.73575   0.88807   0.00000  Uiso   1.00
H1484  H     0.72806   0.73513   0.88697   0.00000  Uiso   1.00
N1485  N     0.83335   0.83334   0.95069   0.00000  Uiso   1.00
N1486  N     0.83332   0.83332   0.71597   0.00000  Uiso   1.00
O1487  O     0.83333   0.77322   0.87291   0.00000  Uiso   1.00
O1488  O     0.96210   0.80587   0.73426   0.00000  Uiso   1.00
O1489  O     0.70360   0.75872   0.76144   0.00000  Uiso   1.00
O1490  O     0.70451   0.86062   0.93249   0.00000  Uiso   1.00
O1491  O     0.71499   0.91040   0.86822   0.00000  Uiso   1.00
O1492  O     0.96312   0.90792   0.90540   0.00000  Uiso   1.00
O1493  O     0.76020   0.95998   0.76909   0.00000  Uiso   1.00
O1494  O     0.90592   0.70666   0.89795   0.00000  Uiso   1.00
O1495  O     0.81230   0.72524   0.94613   0.00000  Uiso   1.00
O1496  O     0.73622   0.73956   0.98218   0.00000  Uiso   1.00
O1497  O     0.73902   0.76348   0.89764   0.00000  Uiso   1.00
O1498  O     0.83334   0.89345   0.79375   0.00000  Uiso   1.00
O1499  O     0.92438   0.90127   0.76426   0.00000  Uiso   1.00
O1500  O     0.93383   0.92462   0.68540   0.00000  Uiso   1.00
O1501  O     0.85363   0.94565   0.72076   0.00000  Uiso   1.00
O1502  O     0.83333   0.77321   0.79372   0.00000  Uiso   1.00
O1503  O     0.83334   0.89346   0.87294   0.00000  Uiso   1.00
O1504  O     0.75828   0.83334   0.86379   0.00000  Uiso   1.00
O1505  O     0.90839   0.83333   0.80288   0.00000  Uiso   1.00
O1506  O     0.75828   0.83333   0.78460   0.00000  Uiso   1.00
O1507  O     0.90839   0.83334   0.88207   0.00000  Uiso   1.00
O1508  O     0.95179   0.75623   0.79869   0.00000  Uiso   1.00
S1509  S     0.98890   0.78571   0.77715   0.00000  Uiso   1.00
S1510  S     0.67780   0.88091   0.88964   0.00000  Uiso   1.00
S1511  S     0.77322   0.75697   0.94980   0.00000  Uiso   1.00
S1512  S     0.89548   0.90858   0.71721   0.00000  Uiso   1.00
loop_
_geom_bond_atom_site_label_1
_geom_bond_atom_site_label_2
_geom_bond_distance
_geom_bond_site_symmetry_2
_ccdc_geom_bond_type
C1     O46     1.293   .     A
C1     C4      1.443   .     S
C1     O31     1.300   .     A
C2     C4      1.412   .     A
C2     O38     1.382   .     S
C2     C351    1.385   1_545 S
C3     C15     1.400   .     A
C3     C9      1.443   .     S
C3     C16     1.412   .     A
C4     C14     1.400   .     A
C5     H22     1.080   .     S
C5     N30     1.345   .     A
C5     C1015   1.417   1_554 S
C6     H23     1.080   .     S
C6     N29     1.345   .     A
C6     C512    1.416   .     S
C7     S55     1.791   .     S
C7     N29     1.407   .     A
C7     C509    1.417   .     S
C8     N30     1.406   .     A
C8     S56     1.789   .     S
C8     C1014   1.416   1_554 S
C9     O47     1.293   .     A
C9     O42     1.301   .     A
C10    C12     1.432   .     S
C10    O48     1.290   .     A
C10    O50     1.298   .     A
C11    C13     1.432   .     S
C11    O51     1.298   .     A
C11    O49     1.289   .     A
C12    C125    1.360   1_455 S
C12    S165    1.789   1_455 S
C13    C68     1.360   .     S
C13    S110    1.789   .     S
C14    H19     1.083   .     S
C14    C352    1.385   1_545 S
C15    H21     1.083   .     S
C15    C170    1.385   .     S
C16    O37     1.382   .     S
C16    C182    1.385   .     S
Cu17   N29     2.032   .     S
Cu17   O48     1.974   .     S
Cu17   Cu18    2.704   .     S
Cu17   O51     1.967   .     S
Cu17   O31     1.959   .     S
Cu17   O47     1.949   .     S
Cu18   N30     2.032   .     S
Cu18   O46     1.949   .     S
Cu18   O42     1.959   .     S
Cu18   O50     1.967   .     S
Cu18   O49     1.974   .     S
H20    O45     0.991   .     S
H24    O33     0.991   .     S
H25    O36     0.991   .     S
H26    O37     0.989   .     S
H27    O38     0.989   .     S
H28    O41     0.991   .     S
O32    S53     1.503   .     D
O33    S165    1.681   1_455 S
O34    S54     1.503   .     D
O35    S54     1.503   .     D
O36    S110    1.681   .     S
O39    S55     1.502   .     D
O40    S55     1.504   .     D
O41    S55     1.675   .     S
O43    S56     1.496   .     D
O44    S56     1.504   .     D
O45    S56     1.680   .     S
O52    S53     1.503   .     D
S53    O89     1.681   .     S
S53    C68     1.789   .     S
S54    O148    1.681   1_455 S
S54    C125    1.789   1_455 S
C57    O102    1.293   .     A
C57    C60     1.443   .     S
C57    O87     1.300   .     A
C58    C60     1.412   .     A
C58    O94     1.382   .     S
C58    C407    1.385   1_545 S
C59    C71     1.400   .     A
C59    C65     1.443   .     S
C59    C72     1.412   .     A
C60    C70     1.400   .     A
C61    H78     1.080   .     S
C61    N86     1.345   .     A
C61    C1071   1.417   1_554 S
C62    H79     1.080   .     S
C62    N85     1.345   .     A
C62    C568    1.416   .     S
C63    S111    1.791   .     S
C63    N85     1.407   .     A
C63    C565    1.417   .     S
C64    N86     1.406   .     A
C64    S112    1.789   .     S
C64    C1070   1.416   1_554 S
C65    O103    1.293   .     A
C65    O98     1.301   .     A
C66    C68     1.432   .     S
C66    O104    1.290   .     A
C66    O106    1.298   .     A
C67    C69     1.432   .     S
C67    O107    1.298   .     A
C67    O105    1.289   .     A
C69    C124    1.360   .     S
C69    S166    1.789   .     S
C70    H75     1.083   .     S
C70    C408    1.385   1_545 S
C71    H77     1.083   .     S
C71    C226    1.385   .     S
C72    O93     1.382   .     S
C72    C238    1.385   .     S
Cu73   N85     2.032   .     S
Cu73   O104    1.974   .     S
Cu73   Cu74    2.704   .     S
Cu73   O107    1.967   .     S
Cu73   O87     1.959   .     S
Cu73   O103    1.949   .     S
Cu74   N86     2.032   .     S
Cu74   O102    1.949   .     S
Cu74   O98     1.959   .     S
Cu74   O106    1.967   .     S
Cu74   O105    1.974   .     S
H76    O101    0.991   .     S
H80    O89     0.991   .     S
H81    O92     0.991   .     S
H82    O93     0.989   .     S
H83    O94     0.989   .     S
H84    O97     0.991   .     S
O88    S109    1.503   .     D
O90    S110    1.503   .     D
O91    S110    1.503   .     D
O92    S166    1.681   .     S
O95    S111    1.502   .     D
O96    S111    1.504   .     D
O97    S111    1.675   .     S
O99    S112    1.496   .     D
O100   S112    1.504   .     D
O101   S112    1.680   .     S
O108   S109    1.503   .     D
S109   O145    1.681   .     S
S109   C124    1.789   .     S
C113   O158    1.293   .     A
C113   C116    1.443   .     S
C113   O143    1.300   .     A
C114   C116    1.412   .     A
C114   O150    1.382   .     S
C114   C463    1.385   1_545 S
C115   C127    1.400   .     A
C115   C121    1.443   .     S
C115   C128    1.412   .     A
C116   C126    1.400   .     A
C117   H134    1.080   .     S
C117   N142    1.345   .     A
C117   C1127   1.417   1_554 S
C118   H135    1.080   .     S
C118   N141    1.345   .     A
C118   C624    1.416   .     S
C119   S167    1.791   .     S
C119   N141    1.407   .     A
C119   C621    1.417   .     S
C120   N142    1.406   .     A
C120   S168    1.789   .     S
C120   C1126   1.416   1_554 S
C121   O159    1.293   .     A
C121   O154    1.301   .     A
C122   C124    1.432   .     S
C122   O160    1.290   .     A
C122   O162    1.298   .     A
C123   C125    1.432   .     S
C123   O163    1.298   .     A
C123   O161    1.289   .     A
C125   C12     1.360   1_655 S
C125   S54     1.789   1_655 S
C126   H131    1.083   .     S
C126   C464    1.385   1_545 S
C127   H133    1.083   .     S
C127   C282    1.385   .     S
C128   O149    1.382   .     S
C128   C294    1.385   .     S
Cu129  N141    2.032   .     S
Cu129  O160    1.974   .     S
Cu129  Cu130   2.704   .     S
Cu129  O163    1.967   .     S
Cu129  O143    1.959   .     S
Cu129  O159    1.949   .     S
Cu130  N142    2.032   .     S
Cu130  O158    1.949   .     S
Cu130  O154    1.959   .     S
Cu130  O162    1.967   .     S
Cu130  O161    1.974   .     S
H132   O157    0.991   .     S
H136   O145    0.991   .     S
H137   O148    0.991   .     S
H138   O149    0.989   .     S
H139   O150    0.989   .     S
H140   O153    0.991   .     S
O144   S165    1.503   .     D
O146   S166    1.503   .     D
O147   S166    1.503   .     D
O148   S54     1.681   1_655 S
O151   S167    1.502   .     D
O152   S167    1.504   .     D
O153   S167    1.675   .     S
O155   S168    1.496   .     D
O156   S168    1.504   .     D
O157   S168    1.680   .     S
O164   S165    1.503   .     D
S165   O33     1.681   1_655 S
S165   C12     1.789   1_655 S
C169   O214    1.293   .     A
C169   C172    1.443   .     S
C169   O199    1.300   .     A
C170   C172    1.412   .     A
C170   O206    1.382   .     S
C171   C183    1.400   .     A
C171   C177    1.443   .     S
C171   C184    1.412   .     A
C172   C182    1.400   .     A
C173   H190    1.080   .     S
C173   N198    1.345   .     A
C173   C1183   1.417   1_554 S
C174   H191    1.080   .     S
C174   N197    1.345   .     A
C174   C680    1.416   .     S
C175   S223    1.791   .     S
C175   N197    1.407   .     A
C175   C677    1.417   .     S
C176   N198    1.406   .     A
C176   S224    1.789   .     S
C176   C1182   1.416   1_554 S
C177   O215    1.293   .     A
C177   O210    1.301   .     A
C178   C180    1.432   .     S
C178   O216    1.290   .     A
C178   O218    1.298   .     A
C179   C181    1.432   .     S
C179   O219    1.298   .     A
C179   O217    1.289   .     A
C180   C293    1.360   1_455 S
C180   S333    1.789   1_455 S
C181   C236    1.360   .     S
C181   S278    1.789   .     S
C182   H187    1.083   .     S
C183   H189    1.083   .     S
C183   C338    1.385   .     S
C184   O205    1.382   .     S
C184   C350    1.385   .     S
Cu185  N197    2.032   .     S
Cu185  O216    1.974   .     S
Cu185  Cu186   2.704   .     S
Cu185  O219    1.967   .     S
Cu185  O199    1.959   .     S
Cu185  O215    1.949   .     S
Cu186  N198    2.032   .     S
Cu186  O214    1.949   .     S
Cu186  O210    1.959   .     S
Cu186  O218    1.967   .     S
Cu186  O217    1.974   .     S
H188   O213    0.991   .     S
H192   O201    0.991   .     S
H193   O204    0.991   .     S
H194   O205    0.989   .     S
H195   O206    0.989   .     S
H196   O209    0.991   .     S
O200   S221    1.503   .     D
O201   S333    1.681   1_455 S
O202   S222    1.503   .     D
O203   S222    1.503   .     D
O204   S278    1.681   .     S
O207   S223    1.502   .     D
O208   S223    1.504   .     D
O209   S223    1.675   .     S
O211   S224    1.496   .     D
O212   S224    1.504   .     D
O213   S224    1.680   .     S
O220   S221    1.503   .     D
S221   O257    1.681   .     S
S221   C236    1.789   .     S
S222   O316    1.681   1_455 S
S222   C293    1.789   1_455 S
C225   O270    1.293   .     A
C225   C228    1.443   .     S
C225   O255    1.300   .     A
C226   C228    1.412   .     A
C226   O262    1.382   .     S
C227   C239    1.400   .     A
C227   C233    1.443   .     S
C227   C240    1.412   .     A
C228   C238    1.400   .     A
C229   H246    1.080   .     S
C229   N254    1.345   .     A
C229   C1239   1.417   1_554 S
C230   H247    1.080   .     S
C230   N253    1.345   .     A
C230   C736    1.416   .     S
C231   S279    1.791   .     S
C231   N253    1.407   .     A
C231   C733    1.417   .     S
C232   N254    1.406   .     A
C232   S280    1.789   .     S
C232   C1238   1.416   1_554 S
C233   O271    1.293   .     A
C233   O266    1.301   .     A
C234   C236    1.432   .     S
C234   O272    1.290   .     A
C234   O274    1.298   .     A
C235   C237    1.432   .     S
C235   O275    1.298   .     A
C235   O273    1.289   .     A
C237   C292    1.360   .     S
C237   S334    1.789   .     S
C238   H243    1.083   .     S
C239   H245    1.083   .     S
C239   C394    1.385   .     S
C240   O261    1.382   .     S
C240   C406    1.385   .     S
Cu241  N253    2.032   .     S
Cu241  O272    1.974   .     S
Cu241  Cu242   2.704   .     S
Cu241  O275    1.967   .     S
Cu241  O255    1.959   .     S
Cu241  O271    1.949   .     S
Cu242  N254    2.032   .     S
Cu242  O270    1.949   .     S
Cu242  O266    1.959   .     S
Cu242  O274    1.967   .     S
Cu242  O273    1.974   .     S
H244   O269    0.991   .     S
H248   O257    0.991   .     S
H249   O260    0.991   .     S
H250   O261    0.989   .     S
H251   O262    0.989   .     S
H252   O265    0.991   .     S
O256   S277    1.503   .     D
O258   S278    1.503   .     D
O259   S278    1.503   .     D
O260   S334    1.681   .     S
O263   S279    1.502   .     D
O264   S279    1.504   .     D
O265   S279    1.675   .     S
O267   S280    1.496   .     D
O268   S280    1.504   .     D
O269   S280    1.680   .     S
O276   S277    1.503   .     D
S277   O313    1.681   .     S
S277   C292    1.789   .     S
C281   O326    1.293   .     A
C281   C284    1.443   .     S
C281   O311    1.300   .     A
C282   C284    1.412   .     A
C282   O318    1.382   .     S
C283   C295    1.400   .     A
C283   C289    1.443   .     S
C283   C296    1.412   .     A
C284   C294    1.400   .     A
C285   H302    1.080   .     S
C285   N310    1.345   .     A
C285   C1295   1.417   1_554 S
C286   H303    1.080   .     S
C286   N309    1.345   .     A
C286   C792    1.416   .     S
C287   S335    1.791   .     S
C287   N309    1.407   .     A
C287   C789    1.417   .     S
C288   N310    1.406   .     A
C288   S336    1.789   .     S
C288   C1294   1.416   1_554 S
C289   O327    1.293   .     A
C289   O322    1.301   .     A
C290   C292    1.432   .     S
C290   O328    1.290   .     A
C290   O330    1.298   .     A
C291   C293    1.432   .     S
C291   O331    1.298   .     A
C291   O329    1.289   .     A
C293   C180    1.360   1_655 S
C293   S222    1.789   1_655 S
C294   H299    1.083   .     S
C295   H301    1.083   .     S
C295   C450    1.385   .     S
C296   O317    1.382   .     S
C296   C462    1.385   .     S
Cu297  N309    2.032   .     S
Cu297  O328    1.974   .     S
Cu297  Cu298   2.704   .     S
Cu297  O331    1.967   .     S
Cu297  O311    1.959   .     S
Cu297  O327    1.949   .     S
Cu298  N310    2.032   .     S
Cu298  O326    1.949   .     S
Cu298  O322    1.959   .     S
Cu298  O330    1.967   .     S
Cu298  O329    1.974   .     S
H300   O325    0.991   .     S
H304   O313    0.991   .     S
H305   O316    0.991   .     S
H306   O317    0.989   .     S
H307   O318    0.989   .     S
H308   O321    0.991   .     S
O312   S333    1.503   .     D
O314   S334    1.503   .     D
O315   S334    1.503   .     D
O316   S222    1.681   1_655 S
O319   S335    1.502   .     D
O320   S335    1.504   .     D
O321   S335    1.675   .     S
O323   S336    1.496   .     D
O324   S336    1.504   .     D
O325   S336    1.680   .     S
O332   S333    1.503   .     D
S333   O201    1.681   1_655 S
S333   C180    1.789   1_655 S
C337   O382    1.293   .     A
C337   C340    1.443   .     S
C337   O367    1.300   .     A
C338   C340    1.412   .     A
C338   O374    1.382   .     S
C339   C351    1.400   .     A
C339   C345    1.443   .     S
C339   C352    1.412   .     A
C340   C350    1.400   .     A
C341   H358    1.080   .     S
C341   N366    1.345   .     A
C341   C1351   1.417   1_554 S
C342   H359    1.080   .     S
C342   N365    1.345   .     A
C342   C848    1.416   .     S
C343   S391    1.791   .     S
C343   N365    1.407   .     A
C343   C845    1.417   .     S
C344   N366    1.406   .     A
C344   S392    1.789   .     S
C344   C1350   1.416   1_554 S
C345   O383    1.293   .     A
C345   O378    1.301   .     A
C346   C348    1.432   .     S
C346   O384    1.290   .     A
C346   O386    1.298   .     A
C347   C349    1.432   .     S
C347   O387    1.298   .     A
C347   O385    1.289   .     A
C348   C461    1.360   1_455 S
C348   S501    1.789   1_455 S
C349   C404    1.360   .     S
C349   S446    1.789   .     S
C350   H355    1.083   .     S
C351   H357    1.083   .     S
C351   C2      1.385   1_565 S
C352   O373    1.382   .     S
C352   C14     1.385   1_565 S
Cu353  N365    2.032   .     S
Cu353  O384    1.974   .     S
Cu353  Cu354   2.704   .     S
Cu353  O387    1.967   .     S
Cu353  O367    1.959   .     S
Cu353  O383    1.949   .     S
Cu354  N366    2.032   .     S
Cu354  O382    1.949   .     S
Cu354  O378    1.959   .     S
Cu354  O386    1.967   .     S
Cu354  O385    1.974   .     S
H356   O381    0.991   .     S
H360   O369    0.991   .     S
H361   O372    0.991   .     S
H362   O373    0.989   .     S
H363   O374    0.989   .     S
H364   O377    0.991   .     S
O368   S389    1.503   .     D
O369   S501    1.681   1_455 S
O370   S390    1.503   .     D
O371   S390    1.503   .     D
O372   S446    1.681   .     S
O375   S391    1.502   .     D
O376   S391    1.504   .     D
O377   S391    1.675   .     S
O379   S392    1.496   .     D
O380   S392    1.504   .     D
O381   S392    1.680   .     S
O388   S389    1.503   .     D
S389   O425    1.681   .     S
S389   C404    1.789   .     S
S390   O484    1.681   1_455 S
S390   C461    1.789   1_455 S
C393   O438    1.293   .     A
C393   C396    1.443   .     S
C393   O423    1.300   .     A
C394   C396    1.412   .     A
C394   O430    1.382   .     S
C395   C407    1.400   .     A
C395   C401    1.443   .     S
C395   C408    1.412   .     A
C396   C406    1.400   .     A
C397   H414    1.080   .     S
C397   N422    1.345   .     A
C397   C1407   1.417   1_554 S
C398   H415    1.080   .     S
C398   N421    1.345   .     A
C398   C904    1.416   .     S
C399   S447    1.791   .     S
C399   N421    1.407   .     A
C399   C901    1.417   .     S
C400   N422    1.406   .     A
C400   S448    1.789   .     S
C400   C1406   1.416   1_554 S
C401   O439    1.293   .     A
C401   O434    1.301   .     A
C402   C404    1.432   .     S
C402   O440    1.290   .     A
C402   O442    1.298   .     A
C403   C405    1.432   .     S
C403   O443    1.298   .     A
C403   O441    1.289   .     A
C405   C460    1.360   .     S
C405   S502    1.789   .     S
C406   H411    1.083   .     S
C407   H413    1.083   .     S
C407   C58     1.385   1_565 S
C408   O429    1.382   .     S
C408   C70     1.385   1_565 S
Cu409  N421    2.032   .     S
Cu409  O440    1.974   .     S
Cu409  Cu410   2.704   .     S
Cu409  O443    1.967   .     S
Cu409  O423    1.959   .     S
Cu409  O439    1.949   .     S
Cu410  N422    2.032   .     S
Cu410  O438    1.949   .     S
Cu410  O434    1.959   .     S
Cu410  O442    1.967   .     S
Cu410  O441    1.974   .     S
H412   O437    0.991   .     S
H416   O425    0.991   .     S
H417   O428    0.991   .     S
H418   O429    0.989   .     S
H419   O430    0.989   .     S
H420   O433    0.991   .     S
O424   S445    1.503   .     D
O426   S446    1.503   .     D
O427   S446    1.503   .     D
O428   S502    1.681   .     S
O431   S447    1.502   .     D
O432   S447    1.504   .     D
O433   S447    1.675   .     S
O435   S448    1.496   .     D
O436   S448    1.504   .     D
O437   S448    1.680   .     S
O444   S445    1.503   .     D
S445   O481    1.681   .     S
S445   C460    1.789   .     S
C449   O494    1.293   .     A
C449   C452    1.443   .     S
C449   O479    1.300   .     A
C450   C452    1.412   .     A
C450   O486    1.382   .     S
C451   C463    1.400   .     A
C451   C457    1.443   .     S
C451   C464    1.412   .     A
C452   C462    1.400   .     A
C453   H470    1.080   .     S
C453   N478    1.345   .     A
C453   C1463   1.417   1_554 S
C454   H471    1.080   .     S
C454   N477    1.345   .     A
C454   C960    1.416   .     S
C455   S503    1.791   .     S
C455   N477    1.407   .     A
C455   C957    1.417   .     S
C456   N478    1.406   .     A
C456   S504    1.789   .     S
C456   C1462   1.416   1_554 S
C457   O495    1.293   .     A
C457   O490    1.301   .     A
C458   C460    1.432   .     S
C458   O496    1.290   .     A
C458   O498    1.298   .     A
C459   C461    1.432   .     S
C459   O499    1.298   .     A
C459   O497    1.289   .     A
C461   C348    1.360   1_655 S
C461   S390    1.789   1_655 S
C462   H467    1.083   .     S
C463   H469    1.083   .     S
C463   C114    1.385   1_565 S
C464   O485    1.382   .     S
C464   C126    1.385   1_565 S
Cu465  N477    2.032   .     S
Cu465  O496    1.974   .     S
Cu465  Cu466   2.704   .     S
Cu465  O499    1.967   .     S
Cu465  O479    1.959   .     S
Cu465  O495    1.949   .     S
Cu466  N478    2.032   .     S
Cu466  O494    1.949   .     S
Cu466  O490    1.959   .     S
Cu466  O498    1.967   .     S
Cu466  O497    1.974   .     S
H468   O493    0.991   .     S
H472   O481    0.991   .     S
H473   O484    0.991   .     S
H474   O485    0.989   .     S
H475   O486    0.989   .     S
H476   O489    0.991   .     S
O480   S501    1.503   .     D
O482   S502    1.503   .     D
O483   S502    1.503   .     D
O484   S390    1.681   1_655 S
O487   S503    1.502   .     D
O488   S503    1.504   .     D
O489   S503    1.675   .     S
O491   S504    1.496   .     D
O492   S504    1.504   .     D
O493   S504    1.680   .     S
O500   S501    1.503   .     D
S501   O369    1.681   1_655 S
S501   C348    1.789   1_655 S
C505   O550    1.293   .     A
C505   C508    1.443   .     S
C505   O535    1.300   .     A
C506   C508    1.412   .     A
C506   O542    1.382   .     S
C506   C855    1.385   1_545 S
C507   C519    1.400   .     A
C507   C513    1.443   .     S
C507   C520    1.412   .     A
C508   C518    1.400   .     A
C509   H526    1.080   .     S
C509   N534    1.345   .     A
C510   H527    1.080   .     S
C510   N533    1.345   .     A
C510   C1016   1.416   .     S
C511   S559    1.791   .     S
C511   N533    1.407   .     A
C511   C1013   1.417   .     S
C512   N534    1.406   .     A
C512   S560    1.789   .     S
C513   O551    1.293   .     A
C513   O546    1.301   .     A
C514   C516    1.432   .     S
C514   O552    1.290   .     A
C514   O554    1.298   .     A
C515   C517    1.432   .     S
C515   O555    1.298   .     A
C515   O553    1.289   .     A
C516   C629    1.360   1_455 S
C516   S669    1.789   1_455 S
C517   C572    1.360   .     S
C517   S614    1.789   .     S
C518   H523    1.083   .     S
C518   C856    1.385   1_545 S
C519   H525    1.083   .     S
C519   C674    1.385   .     S
C520   O541    1.382   .     S
C520   C686    1.385   .     S
Cu521  N533    2.032   .     S
Cu521  O552    1.974   .     S
Cu521  Cu522   2.704   .     S
Cu521  O555    1.967   .     S
Cu521  O535    1.959   .     S
Cu521  O551    1.949   .     S
Cu522  N534    2.032   .     S
Cu522  O550    1.949   .     S
Cu522  O546    1.959   .     S
Cu522  O554    1.967   .     S
Cu522  O553    1.974   .     S
H524   O549    0.991   .     S
H528   O537    0.991   .     S
H529   O540    0.991   .     S
H530   O541    0.989   .     S
H531   O542    0.989   .     S
H532   O545    0.991   .     S
O536   S557    1.503   .     D
O537   S669    1.681   1_455 S
O538   S558    1.503   .     D
O539   S558    1.503   .     D
O540   S614    1.681   .     S
O543   S559    1.502   .     D
O544   S559    1.504   .     D
O545   S559    1.675   .     S
O547   S560    1.496   .     D
O548   S560    1.504   .     D
O549   S560    1.680   .     S
O556   S557    1.503   .     D
S557   O593    1.681   .     S
S557   C572    1.789   .     S
S558   O652    1.681   1_455 S
S558   C629    1.789   1_455 S
C561   O606    1.293   .     A
C561   C564    1.443   .     S
C561   O591    1.300   .     A
C562   C564    1.412   .     A
C562   O598    1.382   .     S
C562   C911    1.385   1_545 S
C563   C575    1.400   .     A
C563   C569    1.443   .     S
C563   C576    1.412   .     A
C564   C574    1.400   .     A
C565   H582    1.080   .     S
C565   N590    1.345   .     A
C566   H583    1.080   .     S
C566   N589    1.345   .     A
C566   C1072   1.416   .     S
C567   S615    1.791   .     S
C567   N589    1.407   .     A
C567   C1069   1.417   .     S
C568   N590    1.406   .     A
C568   S616    1.789   .     S
C569   O607    1.293   .     A
C569   O602    1.301   .     A
C570   C572    1.432   .     S
C570   O608    1.290   .     A
C570   O610    1.298   .     A
C571   C573    1.432   .     S
C571   O611    1.298   .     A
C571   O609    1.289   .     A
C573   C628    1.360   .     S
C573   S670    1.789   .     S
C574   H579    1.083   .     S
C574   C912    1.385   1_545 S
C575   H581    1.083   .     S
C575   C730    1.385   .     S
C576   O597    1.382   .     S
C576   C742    1.385   .     S
Cu577  N589    2.032   .     S
Cu577  O608    1.974   .     S
Cu577  Cu578   2.704   .     S
Cu577  O611    1.967   .     S
Cu577  O591    1.959   .     S
Cu577  O607    1.949   .     S
Cu578  N590    2.032   .     S
Cu578  O606    1.949   .     S
Cu578  O602    1.959   .     S
Cu578  O610    1.967   .     S
Cu578  O609    1.974   .     S
H580   O605    0.991   .     S
H584   O593    0.991   .     S
H585   O596    0.991   .     S
H586   O597    0.989   .     S
H587   O598    0.989   .     S
H588   O601    0.991   .     S
O592   S613    1.503   .     D
O594   S614    1.503   .     D
O595   S614    1.503   .     D
O596   S670    1.681   .     S
O599   S615    1.502   .     D
O600   S615    1.504   .     D
O601   S615    1.675   .     S
O603   S616    1.496   .     D
O604   S616    1.504   .     D
O605   S616    1.680   .     S
O612   S613    1.503   .     D
S613   O649    1.681   .     S
S613   C628    1.789   .     S
C617   O662    1.293   .     A
C617   C620    1.443   .     S
C617   O647    1.300   .     A
C618   C620    1.412   .     A
C618   O654    1.382   .     S
C618   C967    1.385   1_545 S
C619   C631    1.400   .     A
C619   C625    1.443   .     S
C619   C632    1.412   .     A
C620   C630    1.400   .     A
C621   H638    1.080   .     S
C621   N646    1.345   .     A
C622   H639    1.080   .     S
C622   N645    1.345   .     A
C622   C1128   1.416   .     S
C623   S671    1.791   .     S
C623   N645    1.407   .     A
C623   C1125   1.417   .     S
C624   N646    1.406   .     A
C624   S672    1.789   .     S
C625   O663    1.293   .     A
C625   O658    1.301   .     A
C626   C628    1.432   .     S
C626   O664    1.290   .     A
C626   O666    1.298   .     A
C627   C629    1.432   .     S
C627   O667    1.298   .     A
C627   O665    1.289   .     A
C629   C516    1.360   1_655 S
C629   S558    1.789   1_655 S
C630   H635    1.083   .     S
C630   C968    1.385   1_545 S
C631   H637    1.083   .     S
C631   C786    1.385   .     S
C632   O653    1.382   .     S
C632   C798    1.385   .     S
Cu633  N645    2.032   .     S
Cu633  O664    1.974   .     S
Cu633  Cu634   2.704   .     S
Cu633  O667    1.967   .     S
Cu633  O647    1.959   .     S
Cu633  O663    1.949   .     S
Cu634  N646    2.032   .     S
Cu634  O662    1.949   .     S
Cu634  O658    1.959   .     S
Cu634  O666    1.967   .     S
Cu634  O665    1.974   .     S
H636   O661    0.991   .     S
H640   O649    0.991   .     S
H641   O652    0.991   .     S
H642   O653    0.989   .     S
H643   O654    0.989   .     S
H644   O657    0.991   .     S
O648   S669    1.503   .     D
O650   S670    1.503   .     D
O651   S670    1.503   .     D
O652   S558    1.681   1_655 S
O655   S671    1.502   .     D
O656   S671    1.504   .     D
O657   S671    1.675   .     S
O659   S672    1.496   .     D
O660   S672    1.504   .     D
O661   S672    1.680   .     S
O668   S669    1.503   .     D
S669   O537    1.681   1_655 S
S669   C516    1.789   1_655 S
C673   O718    1.293   .     A
C673   C676    1.443   .     S
C673   O703    1.300   .     A
C674   C676    1.412   .     A
C674   O710    1.382   .     S
C675   C687    1.400   .     A
C675   C681    1.443   .     S
C675   C688    1.412   .     A
C676   C686    1.400   .     A
C677   H694    1.080   .     S
C677   N702    1.345   .     A
C678   H695    1.080   .     S
C678   N701    1.345   .     A
C678   C1184   1.416   .     S
C679   S727    1.791   .     S
C679   N701    1.407   .     A
C679   C1181   1.417   .     S
C680   N702    1.406   .     A
C680   S728    1.789   .     S
C681   O719    1.293   .     A
C681   O714    1.301   .     A
C682   C684    1.432   .     S
C682   O720    1.290   .     A
C682   O722    1.298   .     A
C683   C685    1.432   .     S
C683   O723    1.298   .     A
C683   O721    1.289   .     A
C684   C797    1.360   1_455 S
C684   S837    1.789   1_455 S
C685   C740    1.360   .     S
C685   S782    1.789   .     S
C686   H691    1.083   .     S
C687   H693    1.083   .     S
C687   C842    1.385   .     S
C688   O709    1.382   .     S
C688   C854    1.385   .     S
Cu689  N701    2.032   .     S
Cu689  O720    1.974   .     S
Cu689  Cu690   2.704   .     S
Cu689  O723    1.967   .     S
Cu689  O703    1.959   .     S
Cu689  O719    1.949   .     S
Cu690  N702    2.032   .     S
Cu690  O718    1.949   .     S
Cu690  O714    1.959   .     S
Cu690  O722    1.967   .     S
Cu690  O721    1.974   .     S
H692   O717    0.991   .     S
H696   O705    0.991   .     S
H697   O708    0.991   .     S
H698   O709    0.989   .     S
H699   O710    0.989   .     S
H700   O713    0.991   .     S
O704   S725    1.503   .     D
O705   S837    1.681   1_455 S
O706   S726    1.503   .     D
O707   S726    1.503   .     D
O708   S782    1.681   .     S
O711   S727    1.502   .     D
O712   S727    1.504   .     D
O713   S727    1.675   .     S
O715   S728    1.496   .     D
O716   S728    1.504   .     D
O717   S728    1.680   .     S
O724   S725    1.503   .     D
S725   O761    1.681   .     S
S725   C740    1.789   .     S
S726   O820    1.681   1_455 S
S726   C797    1.789   1_455 S
C729   O774    1.293   .     A
C729   C732    1.443   .     S
C729   O759    1.300   .     A
C730   C732    1.412   .     A
C730   O766    1.382   .     S
C731   C743    1.400   .     A
C731   C737    1.443   .     S
C731   C744    1.412   .     A
C732   C742    1.400   .     A
C733   H750    1.080   .     S
C733   N758    1.345   .     A
C734   H751    1.080   .     S
C734   N757    1.345   .     A
C734   C1240   1.416   .     S
C735   S783    1.791   .     S
C735   N757    1.407   .     A
C735   C1237   1.417   .     S
C736   N758    1.406   .     A
C736   S784    1.789   .     S
C737   O775    1.293   .     A
C737   O770    1.301   .     A
C738   C740    1.432   .     S
C738   O776    1.290   .     A
C738   O778    1.298   .     A
C739   C741    1.432   .     S
C739   O779    1.298   .     A
C739   O777    1.289   .     A
C741   C796    1.360   .     S
C741   S838    1.789   .     S
C742   H747    1.083   .     S
C743   H749    1.083   .     S
C743   C898    1.385   .     S
C744   O765    1.382   .     S
C744   C910    1.385   .     S
Cu745  N757    2.032   .     S
Cu745  O776    1.974   .     S
Cu745  Cu746   2.704   .     S
Cu745  O779    1.967   .     S
Cu745  O759    1.959   .     S
Cu745  O775    1.949   .     S
Cu746  N758    2.032   .     S
Cu746  O774    1.949   .     S
Cu746  O770    1.959   .     S
Cu746  O778    1.967   .     S
Cu746  O777    1.974   .     S
H748   O773    0.991   .     S
H752   O761    0.991   .     S
H753   O764    0.991   .     S
H754   O765    0.989   .     S
H755   O766    0.989   .     S
H756   O769    0.991   .     S
O760   S781    1.503   .     D
O762   S782    1.503   .     D
O763   S782    1.503   .     D
O764   S838    1.681   .     S
O767   S783    1.502   .     D
O768   S783    1.504   .     D
O769   S783    1.675   .     S
O771   S784    1.496   .     D
O772   S784    1.504   .     D
O773   S784    1.680   .     S
O780   S781    1.503   .     D
S781   O817    1.681   .     S
S781   C796    1.789   .     S
C785   O830    1.293   .     A
C785   C788    1.443   .     S
C785   O815    1.300   .     A
C786   C788    1.412   .     A
C786   O822    1.382   .     S
C787   C799    1.400   .     A
C787   C793    1.443   .     S
C787   C800    1.412   .     A
C788   C798    1.400   .     A
C789   H806    1.080   .     S
C789   N814    1.345   .     A
C790   H807    1.080   .     S
C790   N813    1.345   .     A
C790   C1296   1.416   .     S
C791   S839    1.791   .     S
C791   N813    1.407   .     A
C791   C1293   1.417   .     S
C792   N814    1.406   .     A
C792   S840    1.789   .     S
C793   O831    1.293   .     A
C793   O826    1.301   .     A
C794   C796    1.432   .     S
C794   O832    1.290   .     A
C794   O834    1.298   .     A
C795   C797    1.432   .     S
C795   O835    1.298   .     A
C795   O833    1.289   .     A
C797   C684    1.360   1_655 S
C797   S726    1.789   1_655 S
C798   H803    1.083   .     S
C799   H805    1.083   .     S
C799   C954    1.385   .     S
C800   O821    1.382   .     S
C800   C966    1.385   .     S
Cu801  N813    2.032   .     S
Cu801  O832    1.974   .     S
Cu801  Cu802   2.704   .     S
Cu801  O835    1.967   .     S
Cu801  O815    1.959   .     S
Cu801  O831    1.949   .     S
Cu802  N814    2.032   .     S
Cu802  O830    1.949   .     S
Cu802  O826    1.959   .     S
Cu802  O834    1.967   .     S
Cu802  O833    1.974   .     S
H804   O829    0.991   .     S
H808   O817    0.991   .     S
H809   O820    0.991   .     S
H810   O821    0.989   .     S
H811   O822    0.989   .     S
H812   O825    0.991   .     S
O816   S837    1.503   .     D
O818   S838    1.503   .     D
O819   S838    1.503   .     D
O820   S726    1.681   1_655 S
O823   S839    1.502   .     D
O824   S839    1.504   .     D
O825   S839    1.675   .     S
O827   S840    1.496   .     D
O828   S840    1.504   .     D
O829   S840    1.680   .     S
O836   S837    1.503   .     D
S837   O705    1.681   1_655 S
S837   C684    1.789   1_655 S
C841   O886    1.293   .     A
C841   C844    1.443   .     S
C841   O871    1.300   .     A
C842   C844    1.412   .     A
C842   O878    1.382   .     S
C843   C855    1.400   .     A
C843   C849    1.443   .     S
C843   C856    1.412   .     A
C844   C854    1.400   .     A
C845   H862    1.080   .     S
C845   N870    1.345   .     A
C846   H863    1.080   .     S
C846   N869    1.345   .     A
C846   C1352   1.416   .     S
C847   S895    1.791   .     S
C847   N869    1.407   .     A
C847   C1349   1.417   .     S
C848   N870    1.406   .     A
C848   S896    1.789   .     S
C849   O887    1.293   .     A
C849   O882    1.301   .     A
C850   C852    1.432   .     S
C850   O888    1.290   .     A
C850   O890    1.298   .     A
C851   C853    1.432   .     S
C851   O891    1.298   .     A
C851   O889    1.289   .     A
C852   C965    1.360   1_455 S
C852   S1005   1.789   1_455 S
C853   C908    1.360   .     S
C853   S950    1.789   .     S
C854   H859    1.083   .     S
C855   H861    1.083   .     S
C855   C506    1.385   1_565 S
C856   O877    1.382   .     S
C856   C518    1.385   1_565 S
Cu857  N869    2.032   .     S
Cu857  O888    1.974   .     S
Cu857  Cu858   2.704   .     S
Cu857  O891    1.967   .     S
Cu857  O871    1.959   .     S
Cu857  O887    1.949   .     S
Cu858  N870    2.032   .     S
Cu858  O886    1.949   .     S
Cu858  O882    1.959   .     S
Cu858  O890    1.967   .     S
Cu858  O889    1.974   .     S
H860   O885    0.991   .     S
H864   O873    0.991   .     S
H865   O876    0.991   .     S
H866   O877    0.989   .     S
H867   O878    0.989   .     S
H868   O881    0.991   .     S
O872   S893    1.503   .     D
O873   S1005   1.681   1_455 S
O874   S894    1.503   .     D
O875   S894    1.503   .     D
O876   S950    1.681   .     S
O879   S895    1.502   .     D
O880   S895    1.504   .     D
O881   S895    1.675   .     S
O883   S896    1.496   .     D
O884   S896    1.504   .     D
O885   S896    1.680   .     S
O892   S893    1.503   .     D
S893   O929    1.681   .     S
S893   C908    1.789   .     S
S894   O988    1.681   1_455 S
S894   C965    1.789   1_455 S
C897   O942    1.293   .     A
C897   C900    1.443   .     S
C897   O927    1.300   .     A
C898   C900    1.412   .     A
C898   O934    1.382   .     S
C899   C911    1.400   .     A
C899   C905    1.443   .     S
C899   C912    1.412   .     A
C900   C910    1.400   .     A
C901   H918    1.080   .     S
C901   N926    1.345   .     A
C902   H919    1.080   .     S
C902   N925    1.345   .     A
C902   C1408   1.416   .     S
C903   S951    1.791   .     S
C903   N925    1.407   .     A
C903   C1405   1.417   .     S
C904   N926    1.406   .     A
C904   S952    1.789   .     S
C905   O943    1.293   .     A
C905   O938    1.301   .     A
C906   C908    1.432   .     S
C906   O944    1.290   .     A
C906   O946    1.298   .     A
C907   C909    1.432   .     S
C907   O947    1.298   .     A
C907   O945    1.289   .     A
C909   C964    1.360   .     S
C909   S1006   1.789   .     S
C910   H915    1.083   .     S
C911   H917    1.083   .     S
C911   C562    1.385   1_565 S
C912   O933    1.382   .     S
C912   C574    1.385   1_565 S
Cu913  N925    2.032   .     S
Cu913  O944    1.974   .     S
Cu913  Cu914   2.704   .     S
Cu913  O947    1.967   .     S
Cu913  O927    1.959   .     S
Cu913  O943    1.949   .     S
Cu914  N926    2.032   .     S
Cu914  O942    1.949   .     S
Cu914  O938    1.959   .     S
Cu914  O946    1.967   .     S
Cu914  O945    1.974   .     S
H916   O941    0.991   .     S
H920   O929    0.991   .     S
H921   O932    0.991   .     S
H922   O933    0.989   .     S
H923   O934    0.989   .     S
H924   O937    0.991   .     S
O928   S949    1.503   .     D
O930   S950    1.503   .     D
O931   S950    1.503   .     D
O932   S1006   1.681   .     S
O935   S951    1.502   .     D
O936   S951    1.504   .     D
O937   S951    1.675   .     S
O939   S952    1.496   .     D
O940   S952    1.504   .     D
O941   S952    1.680   .     S
O948   S949    1.503   .     D
S949   O985    1.681   .     S
S949   C964    1.789   .     S
C953   O998    1.293   .     A
C953   C956    1.443   .     S
C953   O983    1.300   .     A
C954   C956    1.412   .     A
C954   O990    1.382   .     S
C955   C967    1.400   .     A
C955   C961    1.443   .     S
C955   C968    1.412   .     A
C956   C966    1.400   .     A
C957   H974    1.080   .     S
C957   N982    1.345   .     A
C958   H975    1.080   .     S
C958   N981    1.345   .     A
C958   C1464   1.416   .     S
C959   S1007   1.791   .     S
C959   N981    1.407   .     A
C959   C1461   1.417   .     S
C960   N982    1.406   .     A
C960   S1008   1.789   .     S
C961   O999    1.293   .     A
C961   O994    1.301   .     A
C962   C964    1.432   .     S
C962   O1000   1.290   .     A
C962   O1002   1.298   .     A
C963   C965    1.432   .     S
C963   O1003   1.298   .     A
C963   O1001   1.289   .     A
C965   C852    1.360   1_655 S
C965   S894    1.789   1_655 S
C966   H971    1.083   .     S
C967   H973    1.083   .     S
C967   C618    1.385   1_565 S
C968   O989    1.382   .     S
C968   C630    1.385   1_565 S
Cu969  N981    2.032   .     S
Cu969  O1000   1.974   .     S
Cu969  Cu970   2.704   .     S
Cu969  O1003   1.967   .     S
Cu969  O983    1.959   .     S
Cu969  O999    1.949   .     S
Cu970  N982    2.032   .     S
Cu970  O998    1.949   .     S
Cu970  O994    1.959   .     S
Cu970  O1002   1.967   .     S
Cu970  O1001   1.974   .     S
H972   O997    0.991   .     S
H976   O985    0.991   .     S
H977   O988    0.991   .     S
H978   O989    0.989   .     S
H979   O990    0.989   .     S
H980   O993    0.991   .     S
O984   S1005   1.503   .     D
O986   S1006   1.503   .     D
O987   S1006   1.503   .     D
O988   S894    1.681   1_655 S
O991   S1007   1.502   .     D
O992   S1007   1.504   .     D
O993   S1007   1.675   .     S
O995   S1008   1.496   .     D
O996   S1008   1.504   .     D
O997   S1008   1.680   .     S
O1004  S1005   1.503   .     D
S1005  O873    1.681   1_655 S
S1005  C852    1.789   1_655 S
C1009  O1054   1.293   .     A
C1009  C1012   1.443   .     S
C1009  O1039   1.300   .     A
C1010  C1012   1.412   .     A
C1010  O1046   1.382   .     S
C1010  C1359   1.385   1_545 S
C1011  C1023   1.400   .     A
C1011  C1017   1.443   .     S
C1011  C1024   1.412   .     A
C1012  C1022   1.400   .     A
C1013  H1030   1.080   .     S
C1013  N1038   1.345   .     A
C1014  H1031   1.080   .     S
C1014  N1037   1.345   .     A
C1014  C8      1.416   1_556 S
C1015  S1063   1.791   .     S
C1015  N1037   1.407   .     A
C1015  C5      1.417   1_556 S
C1016  N1038   1.406   .     A
C1016  S1064   1.789   .     S
C1017  O1055   1.293   .     A
C1017  O1050   1.301   .     A
C1018  C1020   1.432   .     S
C1018  O1056   1.290   .     A
C1018  O1058   1.298   .     A
C1019  C1021   1.432   .     S
C1019  O1059   1.298   .     A
C1019  O1057   1.289   .     A
C1020  C1133   1.360   1_455 S
C1020  S1173   1.789   1_455 S
C1021  C1076   1.360   .     S
C1021  S1118   1.789   .     S
C1022  H1027   1.083   .     S
C1022  C1360   1.385   1_545 S
C1023  H1029   1.083   .     S
C1023  C1178   1.385   .     S
C1024  O1045   1.382   .     S
C1024  C1190   1.385   .     S
Cu1025 N1037   2.032   .     S
Cu1025 O1056   1.974   .     S
Cu1025 Cu1026  2.704   .     S
Cu1025 O1059   1.967   .     S
Cu1025 O1039   1.959   .     S
Cu1025 O1055   1.949   .     S
Cu1026 N1038   2.032   .     S
Cu1026 O1054   1.949   .     S
Cu1026 O1050   1.959   .     S
Cu1026 O1058   1.967   .     S
Cu1026 O1057   1.974   .     S
H1028  O1053   0.991   .     S
H1032  O1041   0.991   .     S
H1033  O1044   0.991   .     S
H1034  O1045   0.989   .     S
H1035  O1046   0.989   .     S
H1036  O1049   0.991   .     S
O1040  S1061   1.503   .     D
O1041  S1173   1.681   1_455 S
O1042  S1062   1.503   .     D
O1043  S1062   1.503   .     D
O1044  S1118   1.681   .     S
O1047  S1063   1.502   .     D
O1048  S1063   1.504   .     D
O1049  S1063   1.675   .     S
O1051  S1064   1.496   .     D
O1052  S1064   1.504   .     D
O1053  S1064   1.680   .     S
O1060  S1061   1.503   .     D
S1061  O1097   1.681   .     S
S1061  C1076   1.789   .     S
S1062  O1156   1.681   1_455 S
S1062  C1133   1.789   1_455 S
C1065  O1110   1.293   .     A
C1065  C1068   1.443   .     S
C1065  O1095   1.300   .     A
C1066  C1068   1.412   .     A
C1066  O1102   1.382   .     S
C1066  C1415   1.385   1_545 S
C1067  C1079   1.400   .     A
C1067  C1073   1.443   .     S
C1067  C1080   1.412   .     A
C1068  C1078   1.400   .     A
C1069  H1086   1.080   .     S
C1069  N1094   1.345   .     A
C1070  H1087   1.080   .     S
C1070  N1093   1.345   .     A
C1070  C64     1.416   1_556 S
C1071  S1119   1.791   .     S
C1071  N1093   1.407   .     A
C1071  C61     1.417   1_556 S
C1072  N1094   1.406   .     A
C1072  S1120   1.789   .     S
C1073  O1111   1.293   .     A
C1073  O1106   1.301   .     A
C1074  C1076   1.432   .     S
C1074  O1112   1.290   .     A
C1074  O1114   1.298   .     A
C1075  C1077   1.432   .     S
C1075  O1115   1.298   .     A
C1075  O1113   1.289   .     A
C1077  C1132   1.360   .     S
C1077  S1174   1.789   .     S
C1078  H1083   1.083   .     S
C1078  C1416   1.385   1_545 S
C1079  H1085   1.083   .     S
C1079  C1234   1.385   .     S
C1080  O1101   1.382   .     S
C1080  C1246   1.385   .     S
Cu1081 N1093   2.032   .     S
Cu1081 O1112   1.974   .     S
Cu1081 Cu1082  2.704   .     S
Cu1081 O1115   1.967   .     S
Cu1081 O1095   1.959   .     S
Cu1081 O1111   1.949   .     S
Cu1082 N1094   2.032   .     S
Cu1082 O1110   1.949   .     S
Cu1082 O1106   1.959   .     S
Cu1082 O1114   1.967   .     S
Cu1082 O1113   1.974   .     S
H1084  O1109   0.991   .     S
H1088  O1097   0.991   .     S
H1089  O1100   0.991   .     S
H1090  O1101   0.989   .     S
H1091  O1102   0.989   .     S
H1092  O1105   0.991   .     S
O1096  S1117   1.503   .     D
O1098  S1118   1.503   .     D
O1099  S1118   1.503   .     D
O1100  S1174   1.681   .     S
O1103  S1119   1.502   .     D
O1104  S1119   1.504   .     D
O1105  S1119   1.675   .     S
O1107  S1120   1.496   .     D
O1108  S1120   1.504   .     D
O1109  S1120   1.680   .     S
O1116  S1117   1.503   .     D
S1117  O1153   1.681   .     S
S1117  C1132   1.789   .     S
C1121  O1166   1.293   .     A
C1121  C1124   1.443   .     S
C1121  O1151   1.300   .     A
C1122  C1124   1.412   .     A
C1122  O1158   1.382   .     S
C1122  C1471   1.385   1_545 S
C1123  C1135   1.400   .     A
C1123  C1129   1.443   .     S
C1123  C1136   1.412   .     A
C1124  C1134   1.400   .     A
C1125  H1142   1.080   .     S
C1125  N1150   1.345   .     A
C1126  H1143   1.080   .     S
C1126  N1149   1.345   .     A
C1126  C120    1.416   1_556 S
C1127  S1175   1.791   .     S
C1127  N1149   1.407   .     A
C1127  C117    1.417   1_556 S
C1128  N1150   1.406   .     A
C1128  S1176   1.789   .     S
C1129  O1167   1.293   .     A
C1129  O1162   1.301   .     A
C1130  C1132   1.432   .     S
C1130  O1168   1.290   .     A
C1130  O1170   1.298   .     A
C1131  C1133   1.432   .     S
C1131  O1171   1.298   .     A
C1131  O1169   1.289   .     A
C1133  C1020   1.360   1_655 S
C1133  S1062   1.789   1_655 S
C1134  H1139   1.083   .     S
C1134  C1472   1.385   1_545 S
C1135  H1141   1.083   .     S
C1135  C1290   1.385   .     S
C1136  O1157   1.382   .     S
C1136  C1302   1.385   .     S
Cu1137 N1149   2.032   .     S
Cu1137 O1168   1.974   .     S
Cu1137 Cu1138  2.704   .     S
Cu1137 O1171   1.967   .     S
Cu1137 O1151   1.959   .     S
Cu1137 O1167   1.949   .     S
Cu1138 N1150   2.032   .     S
Cu1138 O1166   1.949   .     S
Cu1138 O1162   1.959   .     S
Cu1138 O1170   1.967   .     S
Cu1138 O1169   1.974   .     S
H1140  O1165   0.991   .     S
H1144  O1153   0.991   .     S
H1145  O1156   0.991   .     S
H1146  O1157   0.989   .     S
H1147  O1158   0.989   .     S
H1148  O1161   0.991   .     S
O1152  S1173   1.503   .     D
O1154  S1174   1.503   .     D
O1155  S1174   1.503   .     D
O1156  S1062   1.681   1_655 S
O1159  S1175   1.502   .     D
O1160  S1175   1.504   .     D
O1161  S1175   1.675   .     S
O1163  S1176   1.496   .     D
O1164  S1176   1.504   .     D
O1165  S1176   1.680   .     S
O1172  S1173   1.503   .     D
S1173  O1041   1.681   1_655 S
S1173  C1020   1.789   1_655 S
C1177  O1222   1.293   .     A
C1177  C1180   1.443   .     S
C1177  O1207   1.300   .     A
C1178  C1180   1.412   .     A
C1178  O1214   1.382   .     S
C1179  C1191   1.400   .     A
C1179  C1185   1.443   .     S
C1179  C1192   1.412   .     A
C1180  C1190   1.400   .     A
C1181  H1198   1.080   .     S
C1181  N1206   1.345   .     A
C1182  H1199   1.080   .     S
C1182  N1205   1.345   .     A
C1182  C176    1.416   1_556 S
C1183  S1231   1.791   .     S
C1183  N1205   1.407   .     A
C1183  C173    1.417   1_556 S
C1184  N1206   1.406   .     A
C1184  S1232   1.789   .     S
C1185  O1223   1.293   .     A
C1185  O1218   1.301   .     A
C1186  C1188   1.432   .     S
C1186  O1224   1.290   .     A
C1186  O1226   1.298   .     A
C1187  C1189   1.432   .     S
C1187  O1227   1.298   .     A
C1187  O1225   1.289   .     A
C1188  C1301   1.360   1_455 S
C1188  S1341   1.789   1_455 S
C1189  C1244   1.360   .     S
C1189  S1286   1.789   .     S
C1190  H1195   1.083   .     S
C1191  H1197   1.083   .     S
C1191  C1346   1.385   .     S
C1192  O1213   1.382   .     S
C1192  C1358   1.385   .     S
Cu1193 N1205   2.032   .     S
Cu1193 O1224   1.974   .     S
Cu1193 Cu1194  2.704   .     S
Cu1193 O1227   1.967   .     S
Cu1193 O1207   1.959   .     S
Cu1193 O1223   1.949   .     S
Cu1194 N1206   2.032   .     S
Cu1194 O1222   1.949   .     S
Cu1194 O1218   1.959   .     S
Cu1194 O1226   1.967   .     S
Cu1194 O1225   1.974   .     S
H1196  O1221   0.991   .     S
H1200  O1209   0.991   .     S
H1201  O1212   0.991   .     S
H1202  O1213   0.989   .     S
H1203  O1214   0.989   .     S
H1204  O1217   0.991   .     S
O1208  S1229   1.503   .     D
O1209  S1341   1.681   1_455 S
O1210  S1230   1.503   .     D
O1211  S1230   1.503   .     D
O1212  S1286   1.681   .     S
O1215  S1231   1.502   .     D
O1216  S1231   1.504   .     D
O1217  S1231   1.675   .     S
O1219  S1232   1.496   .     D
O1220  S1232   1.504   .     D
O1221  S1232   1.680   .     S
O1228  S1229   1.503   .     D
S1229  O1265   1.681   .     S
S1229  C1244   1.789   .     S
S1230  O1324   1.681   1_455 S
S1230  C1301   1.789   1_455 S
C1233  O1278   1.293   .     A
C1233  C1236   1.443   .     S
C1233  O1263   1.300   .     A
C1234  C1236   1.412   .     A
C1234  O1270   1.382   .     S
C1235  C1247   1.400   .     A
C1235  C1241   1.443   .     S
C1235  C1248   1.412   .     A
C1236  C1246   1.400   .     A
C1237  H1254   1.080   .     S
C1237  N1262   1.345   .     A
C1238  H1255   1.080   .     S
C1238  N1261   1.345   .     A
C1238  C232    1.416   1_556 S
C1239  S1287   1.791   .     S
C1239  N1261   1.407   .     A
C1239  C229    1.417   1_556 S
C1240  N1262   1.406   .     A
C1240  S1288   1.789   .     S
C1241  O1279   1.293   .     A
C1241  O1274   1.301   .     A
C1242  C1244   1.432   .     S
C1242  O1280   1.290   .     A
C1242  O1282   1.298   .     A
C1243  C1245   1.432   .     S
C1243  O1283   1.298   .     A
C1243  O1281   1.289   .     A
C1245  C1300   1.360   .     S
C1245  S1342   1.789   .     S
C1246  H1251   1.083   .     S
C1247  H1253   1.083   .     S
C1247  C1402   1.385   .     S
C1248  O1269   1.382   .     S
C1248  C1414   1.385   .     S
Cu1249 N1261   2.032   .     S
Cu1249 O1280   1.974   .     S
Cu1249 Cu1250  2.704   .     S
Cu1249 O1283   1.967   .     S
Cu1249 O1263   1.959   .     S
Cu1249 O1279   1.949   .     S
Cu1250 N1262   2.032   .     S
Cu1250 O1278   1.949   .     S
Cu1250 O1274   1.959   .     S
Cu1250 O1282   1.967   .     S
Cu1250 O1281   1.974   .     S
H1252  O1277   0.991   .     S
H1256  O1265   0.991   .     S
H1257  O1268   0.991   .     S
H1258  O1269   0.989   .     S
H1259  O1270   0.989   .     S
H1260  O1273   0.991   .     S
O1264  S1285   1.503   .     D
O1266  S1286   1.503   .     D
O1267  S1286   1.503   .     D
O1268  S1342   1.681   .     S
O1271  S1287   1.502   .     D
O1272  S1287   1.504   .     D
O1273  S1287   1.675   .     S
O1275  S1288   1.496   .     D
O1276  S1288   1.504   .     D
O1277  S1288   1.680   .     S
O1284  S1285   1.503   .     D
S1285  O1321   1.681   .     S
S1285  C1300   1.789   .     S
C1289  O1334   1.293   .     A
C1289  C1292   1.443   .     S
C1289  O1319   1.300   .     A
C1290  C1292   1.412   .     A
C1290  O1326   1.382   .     S
C1291  C1303   1.400   .     A
C1291  C1297   1.443   .     S
C1291  C1304   1.412   .     A
C1292  C1302   1.400   .     A
C1293  H1310   1.080   .     S
C1293  N1318   1.345   .     A
C1294  H1311   1.080   .     S
C1294  N1317   1.345   .     A
C1294  C288    1.416   1_556 S
C1295  S1343   1.791   .     S
C1295  N1317   1.407   .     A
C1295  C285    1.417   1_556 S
C1296  N1318   1.406   .     A
C1296  S1344   1.789   .     S
C1297  O1335   1.293   .     A
C1297  O1330   1.301   .     A
C1298  C1300   1.432   .     S
C1298  O1336   1.290   .     A
C1298  O1338   1.298   .     A
C1299  C1301   1.432   .     S
C1299  O1339   1.298   .     A
C1299  O1337   1.289   .     A
C1301  C1188   1.360   1_655 S
C1301  S1230   1.789   1_655 S
C1302  H1307   1.083   .     S
C1303  H1309   1.083   .     S
C1303  C1458   1.385   .     S
C1304  O1325   1.382   .     S
C1304  C1470   1.385   .     S
Cu1305 N1317   2.032   .     S
Cu1305 O1336   1.974   .     S
Cu1305 Cu1306  2.704   .     S
Cu1305 O1339   1.967   .     S
Cu1305 O1319   1.959   .     S
Cu1305 O1335   1.949   .     S
Cu1306 N1318   2.032   .     S
Cu1306 O1334   1.949   .     S
Cu1306 O1330   1.959   .     S
Cu1306 O1338   1.967   .     S
Cu1306 O1337   1.974   .     S
H1308  O1333   0.991   .     S
H1312  O1321   0.991   .     S
H1313  O1324   0.991   .     S
H1314  O1325   0.989   .     S
H1315  O1326   0.989   .     S
H1316  O1329   0.991   .     S
O1320  S1341   1.503   .     D
O1322  S1342   1.503   .     D
O1323  S1342   1.503   .     D
O1324  S1230   1.681   1_655 S
O1327  S1343   1.502   .     D
O1328  S1343   1.504   .     D
O1329  S1343   1.675   .     S
O1331  S1344   1.496   .     D
O1332  S1344   1.504   .     D
O1333  S1344   1.680   .     S
O1340  S1341   1.503   .     D
S1341  O1209   1.681   1_655 S
S1341  C1188   1.789   1_655 S
C1345  O1390   1.293   .     A
C1345  C1348   1.443   .     S
C1345  O1375   1.300   .     A
C1346  C1348   1.412   .     A
C1346  O1382   1.382   .     S
C1347  C1359   1.400   .     A
C1347  C1353   1.443   .     S
C1347  C1360   1.412   .     A
C1348  C1358   1.400   .     A
C1349  H1366   1.080   .     S
C1349  N1374   1.345   .     A
C1350  H1367   1.080   .     S
C1350  N1373   1.345   .     A
C1350  C344    1.416   1_556 S
C1351  S1399   1.791   .     S
C1351  N1373   1.407   .     A
C1351  C341    1.417   1_556 S
C1352  N1374   1.406   .     A
C1352  S1400   1.789   .     S
C1353  O1391   1.293   .     A
C1353  O1386   1.301   .     A
C1354  C1356   1.432   .     S
C1354  O1392   1.290   .     A
C1354  O1394   1.298   .     A
C1355  C1357   1.432   .     S
C1355  O1395   1.298   .     A
C1355  O1393   1.289   .     A
C1356  C1469   1.360   1_455 S
C1356  S1509   1.789   1_455 S
C1357  C1412   1.360   .     S
C1357  S1454   1.789   .     S
C1358  H1363   1.083   .     S
C1359  H1365   1.083   .     S
C1359  C1010   1.385   1_565 S
C1360  O1381   1.382   .     S
C1360  C1022   1.385   1_565 S
Cu1361 N1373   2.032   .     S
Cu1361 O1392   1.974   .     S
Cu1361 Cu1362  2.704   .     S
Cu1361 O1395   1.967   .     S
Cu1361 O1375   1.959   .     S
Cu1361 O1391   1.949   .     S
Cu1362 N1374   2.032   .     S
Cu1362 O1390   1.949   .     S
Cu1362 O1386   1.959   .     S
Cu1362 O1394   1.967   .     S
Cu1362 O1393   1.974   .     S
H1364  O1389   0.991   .     S
H1368  O1377   0.991   .     S
H1369  O1380   0.991   .     S
H1370  O1381   0.989   .     S
H1371  O1382   0.989   .     S
H1372  O1385   0.991   .     S
O1376  S1397   1.503   .     D
O1377  S1509   1.681   1_455 S
O1378  S1398   1.503   .     D
O1379  S1398   1.503   .     D
O1380  S1454   1.681   .     S
O1383  S1399   1.502   .     D
O1384  S1399   1.504   .     D
O1385  S1399   1.675   .     S
O1387  S1400   1.496   .     D
O1388  S1400   1.504   .     D
O1389  S1400   1.680   .     S
O1396  S1397   1.503   .     D
S1397  O1433   1.681   .     S
S1397  C1412   1.789   .     S
S1398  O1492   1.681   1_455 S
S1398  C1469   1.789   1_455 S
C1401  O1446   1.293   .     A
C1401  C1404   1.443   .     S
C1401  O1431   1.300   .     A
C1402  C1404   1.412   .     A
C1402  O1438   1.382   .     S
C1403  C1415   1.400   .     A
C1403  C1409   1.443   .     S
C1403  C1416   1.412   .     A
C1404  C1414   1.400   .     A
C1405  H1422   1.080   .     S
C1405  N1430   1.345   .     A
C1406  H1423   1.080   .     S
C1406  N1429   1.345   .     A
C1406  C400    1.416   1_556 S
C1407  S1455   1.791   .     S
C1407  N1429   1.407   .     A
C1407  C397    1.417   1_556 S
C1408  N1430   1.406   .     A
C1408  S1456   1.789   .     S
C1409  O1447   1.293   .     A
C1409  O1442   1.301   .     A
C1410  C1412   1.432   .     S
C1410  O1448   1.290   .     A
C1410  O1450   1.298   .     A
C1411  C1413   1.432   .     S
C1411  O1451   1.298   .     A
C1411  O1449   1.289   .     A
C1413  C1468   1.360   .     S
C1413  S1510   1.789   .     S
C1414  H1419   1.083   .     S
C1415  H1421   1.083   .     S
C1415  C1066   1.385   1_565 S
C1416  O1437   1.382   .     S
C1416  C1078   1.385   1_565 S
Cu1417 N1429   2.032   .     S
Cu1417 O1448   1.974   .     S
Cu1417 Cu1418  2.704   .     S
Cu1417 O1451   1.967   .     S
Cu1417 O1431   1.959   .     S
Cu1417 O1447   1.949   .     S
Cu1418 N1430   2.032   .     S
Cu1418 O1446   1.949   .     S
Cu1418 O1442   1.959   .     S
Cu1418 O1450   1.967   .     S
Cu1418 O1449   1.974   .     S
H1420  O1445   0.991   .     S
H1424  O1433   0.991   .     S
H1425  O1436   0.991   .     S
H1426  O1437   0.989   .     S
H1427  O1438   0.989   .     S
H1428  O1441   0.991   .     S
O1432  S1453   1.503   .     D
O1434  S1454   1.503   .     D
O1435  S1454   1.503   .     D
O1436  S1510   1.681   .     S
O1439  S1455   1.502   .     D
O1440  S1455   1.504   .     D
O1441  S1455   1.675   .     S
O1443  S1456   1.496   .     D
O1444  S1456   1.504   .     D
O1445  S1456   1.680   .     S
O1452  S1453   1.503   .     D
S1453  O1489   1.681   .     S
S1453  C1468   1.789   .     S
C1457  O1502   1.293   .     A
C1457  C1460   1.443   .     S
C1457  O1487   1.300   .     A
C1458  C1460   1.412   .     A
C1458  O1494   1.382   .     S
C1459  C1471   1.400   .     A
C1459  C1465   1.443   .     S
C1459  C1472   1.412   .     A
C1460  C1470   1.400   .     A
C1461  H1478   1.080   .     S
C1461  N1486   1.345   .     A
C1462  H1479   1.080   .     S
C1462  N1485   1.345   .     A
C1462  C456    1.416   1_556 S
C1463  S1511   1.791   .     S
C1463  N1485   1.407   .     A
C1463  C453    1.417   1_556 S
C1464  N1486   1.406   .     A
C1464  S1512   1.789   .     S
C1465  O1503   1.293   .     A
C1465  O1498   1.301   .     A
C1466  C1468   1.432   .     S
C1466  O1504   1.290   .     A
C1466  O1506   1.298   .     A
C1467  C1469   1.432   .     S
C1467  O1507   1.298   .     A
C1467  O1505   1.289   .     A
C1469  C1356   1.360   1_655 S
C1469  S1398   1.789   1_655 S
C1470  H1475   1.083   .     S
C1471  H1477   1.083   .     S
C1471  C1122   1.385   1_565 S
C1472  O1493   1.382   .     S
C1472  C1134   1.385   1_565 S
Cu1473 N1485   2.032   .     S
Cu1473 O1504   1.974   .     S
Cu1473 Cu1474  2.704   .     S
Cu1473 O1507   1.967   .     S
Cu1473 O1487   1.959   .     S
Cu1473 O1503   1.949   .     S
Cu1474 N1486   2.032   .     S
Cu1474 O1502   1.949   .     S
Cu1474 O1498   1.959   .     S
Cu1474 O1506   1.967   .     S
Cu1474 O1505   1.974   .     S
H1476  O1501   0.991   .     S
H1480  O1489   0.991   .     S
H1481  O1492   0.991   .     S
H1482  O1493   0.989   .     S
H1483  O1494   0.989   .     S
H1484  O1497   0.991   .     S
O1488  S1509   1.503   .     D
O1490  S1510   1.503   .     D
O1491  S1510   1.503   .     D
O1492  S1398   1.681   1_655 S
O1495  S1511   1.502   .     D
O1496  S1511   1.504   .     D
O1497  S1511   1.675   .     S
O1499  S1512   1.496   .     D
O1500  S1512   1.504   .     D
O1501  S1512   1.680   .     S
O1508  S1509   1.503   .     D
S1509  O1377   1.681   1_655 S
S1509  C1356   1.789   1_655 S
