data_str_m2_o1_o16_pcu_sym.80
_audit_creation_date              2020-01-03
_audit_creation_method            'Materials Studio'
_symmetry_space_group_name_H-M    'P1'
_symmetry_Int_Tables_number       1
_symmetry_cell_setting            triclinic
loop_
_symmetry_equiv_pos_as_xyz
  x,y,z
_cell_length_a                    28.8570
_cell_length_b                    32.2097
_cell_length_c                    26.8202
_cell_angle_alpha                 91.8967
_cell_angle_beta                  71.3474
_cell_angle_gamma                 89.8079
loop_
_atom_site_label
_atom_site_type_symbol
_atom_site_fract_x
_atom_site_fract_y
_atom_site_fract_z
_atom_site_U_iso_or_equiv
_atom_site_adp_type
_atom_site_occupancy
C1     C     0.16667   0.24573   0.24984   0.00000  Uiso   1.00
C2     C     0.12273   0.16422   0.40816   0.00000  Uiso   1.00
C3     C     0.19359   0.31045   0.20230   0.00000  Uiso   1.00
C4     C     0.14001   0.16498   0.35015   0.00000  Uiso   1.00
C5     C     0.19256   0.02039   0.20329   0.00000  Uiso   1.00
C6     C     0.16677   0.04282   0.24932   0.00000  Uiso   1.00
C7     C     0.13995   0.02257   0.29440   0.00000  Uiso   1.00
C8     C     0.13986   0.31287   0.29383   0.00000  Uiso   1.00
C9     C     0.16697   0.29026   0.24837   0.00000  Uiso   1.00
C10    C     0.29892   0.19205   0.28477   0.00000  Uiso   1.00
C11    C     0.01493   0.19168   0.28438   0.00000  Uiso   1.00
C12    C     0.14176   0.16099   0.49069   0.00000  Uiso   1.00
C13    C     0.03583   0.14145   0.21632   0.00000  Uiso   1.00
C14    C     0.32129   0.14350   0.21285   0.00000  Uiso   1.00
C15    C     0.16673   0.08750   0.24981   0.00000  Uiso   1.00
C16    C     0.19307   0.16593   0.14957   0.00000  Uiso   1.00
C17    C     0.25783   0.12561   0.01091   0.00000  Uiso   1.00
C18    C     0.20721   0.15998   0.09175   0.00000  Uiso   1.00
C19    C     0.07728   0.18269   0.43569   0.00000  Uiso   1.00
C20    C     0.06322   0.18895   0.48996   0.00000  Uiso   1.00
C21    C     0.09540   0.17945   0.01723   0.00000  Uiso   1.00
C22    C     0.26698   0.22426   0.31958   0.00000  Uiso   1.00
C23    C     0.15285   0.14937   0.43656   0.00000  Uiso   1.00
C24    C     0.24601   0.21769   0.37352   0.00000  Uiso   1.00
C25    C     0.21888   0.24926   0.40751   0.00000  Uiso   1.00
C26    C     0.21466   0.28840   0.38826   0.00000  Uiso   1.00
C27    C     0.23852   0.29618   0.33532   0.00000  Uiso   1.00
C28    C     0.26532   0.26446   0.30130   0.00000  Uiso   1.00
C29    C     0.31942   0.12834   0.15964   0.00000  Uiso   1.00
C30    C     0.29363   0.08673   0.15986   0.00000  Uiso   1.00
C31    C     0.32086   0.05821   0.11267   0.00000  Uiso   1.00
C32    C     0.22093   0.28702   0.15131   0.00000  Uiso   1.00
C33    C     0.27353   0.27621   0.14863   0.00000  Uiso   1.00
C34    C     0.17761   0.15375   0.01575   0.00000  Uiso   1.00
C35    C     0.30297   0.25828   0.09437   0.00000  Uiso   1.00
C36    C     0.22116   0.13138   0.48788   0.00000  Uiso   1.00
C37    C     0.22746   0.11456   0.43753   0.00000  Uiso   1.00
C38    C     0.19356   0.12311   0.41229   0.00000  Uiso   1.00
C39    C     0.17202   0.16851   0.06735   0.00000  Uiso   1.00
C40    C     0.25093   0.13997   0.06230   0.00000  Uiso   1.00
Cu41   Cu    0.11978   0.16666   0.25000   0.00000  Uiso   1.00
Cu42   Cu    0.21355   0.16667   0.25000   0.00000  Uiso   1.00
H43    H     0.27896   0.13346   0.07915   0.00000  Uiso   1.00
H44    H     0.05299   0.19335   0.41507   0.00000  Uiso   1.00
H45    H     0.08247   0.18607   0.05910   0.00000  Uiso   1.00
H46    H     0.02778   0.20271   0.01073   0.00000  Uiso   1.00
H47    H     0.19995   0.10929   0.37333   0.00000  Uiso   1.00
H48    H     0.25153   0.18841   0.38920   0.00000  Uiso   1.00
H49    H     0.20189   0.24358   0.44890   0.00000  Uiso   1.00
H50    H     0.19389   0.31294   0.41457   0.00000  Uiso   1.00
H51    H     0.23654   0.32683   0.32068   0.00000  Uiso   1.00
H52    H     0.28469   0.27119   0.26073   0.00000  Uiso   1.00
H53    H     0.32934   0.07487   0.07529   0.00000  Uiso   1.00
H54    H     0.21080   0.03648   0.16781   0.00000  Uiso   1.00
H55    H     0.02221   0.04667   0.11722   0.00000  Uiso   1.00
H56    H     0.29785   0.03130   0.11001   0.00000  Uiso   1.00
H57    H     0.29014   0.07003   0.19649   0.00000  Uiso   1.00
H58    H     0.25680   0.09300   0.15739   0.00000  Uiso   1.00
H59    H     0.30599   0.15369   0.14140   0.00000  Uiso   1.00
H60    H     0.02391   0.12482   0.13141   0.00000  Uiso   1.00
H61    H     0.28550   0.22968   0.08502   0.00000  Uiso   1.00
H62    H     0.30547   0.28136   0.06378   0.00000  Uiso   1.00
H63    H     0.00721   0.25023   0.09397   0.00000  Uiso   1.00
H64    H     0.29199   0.30430   0.15768   0.00000  Uiso   1.00
H65    H     0.11947   0.04006   0.32988   0.00000  Uiso   1.00
H66    H     0.27356   0.25282   0.17791   0.00000  Uiso   1.00
H67    H     0.20129   0.25827   0.14675   0.00000  Uiso   1.00
H68    H     0.22180   0.30636   0.11741   0.00000  Uiso   1.00
H69    H     0.11932   0.29712   0.32902   0.00000  Uiso   1.00
H70    H     0.02600   0.21223   0.31119   0.00000  Uiso   1.00
H71    H     0.06395   0.12218   0.18871   0.00000  Uiso   1.00
H72    H     0.25947   0.09571   0.41690   0.00000  Uiso   1.00
H73    H     0.29148   0.10907   0.48956   0.00000  Uiso   1.00
H74    H     0.14005   0.18621   0.08999   0.00000  Uiso   1.00
N75    N     0.04931   0.16666   0.24999   0.00000  Uiso   1.00
N76    N     0.28402   0.16669   0.25000   0.00000  Uiso   1.00
O77    O     0.12708   0.22678   0.25001   0.00000  Uiso   1.00
O78    O     0.20627   0.22679   0.25001   0.00000  Uiso   1.00
O79    O     0.10775   0.16665   0.32549   0.00000  Uiso   1.00
O80    O     0.18694   0.16666   0.32549   0.00000  Uiso   1.00
O81    O     0.12706   0.10654   0.25000   0.00000  Uiso   1.00
O82    O     0.20625   0.10655   0.25000   0.00000  Uiso   1.00
O83    O     0.14640   0.16667   0.17451   0.00000  Uiso   1.00
O84    O     0.22559   0.16668   0.17451   0.00000  Uiso   1.00
C85    C     0.50000   0.24573   0.24984   0.00000  Uiso   1.00
C86    C     0.45607   0.16422   0.40816   0.00000  Uiso   1.00
C87    C     0.52692   0.31045   0.20230   0.00000  Uiso   1.00
C88    C     0.47334   0.16498   0.35015   0.00000  Uiso   1.00
C89    C     0.52589   0.02039   0.20329   0.00000  Uiso   1.00
C90    C     0.50010   0.04282   0.24932   0.00000  Uiso   1.00
C91    C     0.47328   0.02257   0.29440   0.00000  Uiso   1.00
C92    C     0.47319   0.31287   0.29383   0.00000  Uiso   1.00
C93    C     0.50031   0.29026   0.24837   0.00000  Uiso   1.00
C94    C     0.63225   0.19205   0.28477   0.00000  Uiso   1.00
C95    C     0.34826   0.19168   0.28438   0.00000  Uiso   1.00
C96    C     0.47509   0.16099   0.49069   0.00000  Uiso   1.00
C97    C     0.36916   0.14145   0.21632   0.00000  Uiso   1.00
C98    C     0.65462   0.14350   0.21285   0.00000  Uiso   1.00
C99    C     0.50006   0.08750   0.24981   0.00000  Uiso   1.00
C100   C     0.52640   0.16593   0.14957   0.00000  Uiso   1.00
C101   C     0.59116   0.12561   0.01091   0.00000  Uiso   1.00
C102   C     0.54055   0.15998   0.09175   0.00000  Uiso   1.00
C103   C     0.41061   0.18269   0.43569   0.00000  Uiso   1.00
C104   C     0.39655   0.18895   0.48996   0.00000  Uiso   1.00
C105   C     0.42873   0.17945   0.01723   0.00000  Uiso   1.00
C106   C     0.60031   0.22426   0.31958   0.00000  Uiso   1.00
C107   C     0.48619   0.14937   0.43656   0.00000  Uiso   1.00
C108   C     0.57935   0.21769   0.37352   0.00000  Uiso   1.00
C109   C     0.55222   0.24926   0.40751   0.00000  Uiso   1.00
C110   C     0.54799   0.28840   0.38826   0.00000  Uiso   1.00
C111   C     0.57186   0.29618   0.33532   0.00000  Uiso   1.00
C112   C     0.59866   0.26446   0.30130   0.00000  Uiso   1.00
C113   C     0.65275   0.12834   0.15964   0.00000  Uiso   1.00
C114   C     0.62696   0.08673   0.15986   0.00000  Uiso   1.00
C115   C     0.65419   0.05821   0.11267   0.00000  Uiso   1.00
C116   C     0.55426   0.28702   0.15131   0.00000  Uiso   1.00
C117   C     0.60687   0.27621   0.14863   0.00000  Uiso   1.00
C118   C     0.51095   0.15375   0.01575   0.00000  Uiso   1.00
C119   C     0.63631   0.25828   0.09437   0.00000  Uiso   1.00
C120   C     0.55449   0.13138   0.48788   0.00000  Uiso   1.00
C121   C     0.56079   0.11456   0.43753   0.00000  Uiso   1.00
C122   C     0.52689   0.12311   0.41229   0.00000  Uiso   1.00
C123   C     0.50535   0.16851   0.06735   0.00000  Uiso   1.00
C124   C     0.58426   0.13997   0.06230   0.00000  Uiso   1.00
Cu125  Cu    0.45311   0.16666   0.25000   0.00000  Uiso   1.00
Cu126  Cu    0.54689   0.16667   0.25000   0.00000  Uiso   1.00
H127   H     0.61229   0.13346   0.07915   0.00000  Uiso   1.00
H128   H     0.38632   0.19335   0.41507   0.00000  Uiso   1.00
H129   H     0.41581   0.18607   0.05910   0.00000  Uiso   1.00
H130   H     0.36112   0.20271   0.01073   0.00000  Uiso   1.00
H131   H     0.53329   0.10929   0.37333   0.00000  Uiso   1.00
H132   H     0.58486   0.18841   0.38920   0.00000  Uiso   1.00
H133   H     0.53523   0.24358   0.44890   0.00000  Uiso   1.00
H134   H     0.52722   0.31294   0.41457   0.00000  Uiso   1.00
H135   H     0.56987   0.32683   0.32068   0.00000  Uiso   1.00
H136   H     0.61803   0.27119   0.26073   0.00000  Uiso   1.00
H137   H     0.66268   0.07487   0.07529   0.00000  Uiso   1.00
H138   H     0.54414   0.03648   0.16781   0.00000  Uiso   1.00
H139   H     0.35555   0.04667   0.11722   0.00000  Uiso   1.00
H140   H     0.63118   0.03130   0.11001   0.00000  Uiso   1.00
H141   H     0.62347   0.07003   0.19649   0.00000  Uiso   1.00
H142   H     0.59014   0.09300   0.15739   0.00000  Uiso   1.00
H143   H     0.63933   0.15369   0.14140   0.00000  Uiso   1.00
H144   H     0.35724   0.12482   0.13141   0.00000  Uiso   1.00
H145   H     0.61884   0.22968   0.08502   0.00000  Uiso   1.00
H146   H     0.63880   0.28136   0.06378   0.00000  Uiso   1.00
H147   H     0.34054   0.25023   0.09397   0.00000  Uiso   1.00
H148   H     0.62532   0.30430   0.15768   0.00000  Uiso   1.00
H149   H     0.45280   0.04006   0.32988   0.00000  Uiso   1.00
H150   H     0.60690   0.25282   0.17791   0.00000  Uiso   1.00
H151   H     0.53462   0.25827   0.14675   0.00000  Uiso   1.00
H152   H     0.55513   0.30636   0.11741   0.00000  Uiso   1.00
H153   H     0.45266   0.29712   0.32902   0.00000  Uiso   1.00
H154   H     0.35933   0.21223   0.31119   0.00000  Uiso   1.00
H155   H     0.39728   0.12218   0.18871   0.00000  Uiso   1.00
H156   H     0.59281   0.09571   0.41690   0.00000  Uiso   1.00
H157   H     0.62481   0.10907   0.48956   0.00000  Uiso   1.00
H158   H     0.47339   0.18621   0.08999   0.00000  Uiso   1.00
N159   N     0.38265   0.16666   0.24999   0.00000  Uiso   1.00
N160   N     0.61735   0.16669   0.25000   0.00000  Uiso   1.00
O161   O     0.46042   0.22678   0.25001   0.00000  Uiso   1.00
O162   O     0.53961   0.22679   0.25001   0.00000  Uiso   1.00
O163   O     0.44108   0.16665   0.32549   0.00000  Uiso   1.00
O164   O     0.52027   0.16666   0.32549   0.00000  Uiso   1.00
O165   O     0.46039   0.10654   0.25000   0.00000  Uiso   1.00
O166   O     0.53958   0.10655   0.25000   0.00000  Uiso   1.00
O167   O     0.47973   0.16667   0.17451   0.00000  Uiso   1.00
O168   O     0.55892   0.16668   0.17451   0.00000  Uiso   1.00
C169   C     0.83333   0.24573   0.24984   0.00000  Uiso   1.00
C170   C     0.78940   0.16422   0.40816   0.00000  Uiso   1.00
C171   C     0.86026   0.31045   0.20230   0.00000  Uiso   1.00
C172   C     0.80668   0.16498   0.35015   0.00000  Uiso   1.00
C173   C     0.85923   0.02039   0.20329   0.00000  Uiso   1.00
C174   C     0.83344   0.04282   0.24932   0.00000  Uiso   1.00
C175   C     0.80661   0.02257   0.29440   0.00000  Uiso   1.00
C176   C     0.80653   0.31287   0.29383   0.00000  Uiso   1.00
C177   C     0.83364   0.29026   0.24837   0.00000  Uiso   1.00
C178   C     0.96559   0.19205   0.28477   0.00000  Uiso   1.00
C179   C     0.68159   0.19168   0.28438   0.00000  Uiso   1.00
C180   C     0.80842   0.16099   0.49069   0.00000  Uiso   1.00
C181   C     0.70250   0.14145   0.21632   0.00000  Uiso   1.00
C182   C     0.98795   0.14350   0.21285   0.00000  Uiso   1.00
C183   C     0.83339   0.08750   0.24981   0.00000  Uiso   1.00
C184   C     0.85974   0.16593   0.14957   0.00000  Uiso   1.00
C185   C     0.92450   0.12561   0.01091   0.00000  Uiso   1.00
C186   C     0.87388   0.15998   0.09175   0.00000  Uiso   1.00
C187   C     0.74395   0.18269   0.43569   0.00000  Uiso   1.00
C188   C     0.72988   0.18895   0.48996   0.00000  Uiso   1.00
C189   C     0.76207   0.17945   0.01723   0.00000  Uiso   1.00
C190   C     0.93364   0.22426   0.31958   0.00000  Uiso   1.00
C191   C     0.81952   0.14937   0.43656   0.00000  Uiso   1.00
C192   C     0.91268   0.21769   0.37352   0.00000  Uiso   1.00
C193   C     0.88555   0.24926   0.40751   0.00000  Uiso   1.00
C194   C     0.88132   0.28840   0.38826   0.00000  Uiso   1.00
C195   C     0.90519   0.29618   0.33532   0.00000  Uiso   1.00
C196   C     0.93199   0.26446   0.30130   0.00000  Uiso   1.00
C197   C     0.98608   0.12834   0.15964   0.00000  Uiso   1.00
C198   C     0.96030   0.08673   0.15986   0.00000  Uiso   1.00
C199   C     0.98753   0.05821   0.11267   0.00000  Uiso   1.00
C200   C     0.88759   0.28702   0.15131   0.00000  Uiso   1.00
C201   C     0.94020   0.27621   0.14863   0.00000  Uiso   1.00
C202   C     0.84428   0.15375   0.01575   0.00000  Uiso   1.00
C203   C     0.96964   0.25828   0.09437   0.00000  Uiso   1.00
C204   C     0.88783   0.13138   0.48788   0.00000  Uiso   1.00
C205   C     0.89413   0.11456   0.43753   0.00000  Uiso   1.00
C206   C     0.86023   0.12311   0.41229   0.00000  Uiso   1.00
C207   C     0.83869   0.16851   0.06735   0.00000  Uiso   1.00
C208   C     0.91760   0.13997   0.06230   0.00000  Uiso   1.00
Cu209  Cu    0.78645   0.16666   0.25000   0.00000  Uiso   1.00
Cu210  Cu    0.88022   0.16667   0.25000   0.00000  Uiso   1.00
H211   H     0.94562   0.13346   0.07915   0.00000  Uiso   1.00
H212   H     0.71965   0.19335   0.41507   0.00000  Uiso   1.00
H213   H     0.74914   0.18607   0.05910   0.00000  Uiso   1.00
H214   H     0.69445   0.20271   0.01073   0.00000  Uiso   1.00
H215   H     0.86662   0.10929   0.37333   0.00000  Uiso   1.00
H216   H     0.91820   0.18841   0.38920   0.00000  Uiso   1.00
H217   H     0.86856   0.24358   0.44890   0.00000  Uiso   1.00
H218   H     0.86056   0.31294   0.41457   0.00000  Uiso   1.00
H219   H     0.90320   0.32683   0.32068   0.00000  Uiso   1.00
H220   H     0.95136   0.27119   0.26073   0.00000  Uiso   1.00
H221   H     0.99601   0.07487   0.07529   0.00000  Uiso   1.00
H222   H     0.87747   0.03648   0.16781   0.00000  Uiso   1.00
H223   H     0.68888   0.04667   0.11722   0.00000  Uiso   1.00
H224   H     0.96451   0.03130   0.11001   0.00000  Uiso   1.00
H225   H     0.95681   0.07003   0.19649   0.00000  Uiso   1.00
H226   H     0.92347   0.09300   0.15739   0.00000  Uiso   1.00
H227   H     0.97266   0.15369   0.14140   0.00000  Uiso   1.00
H228   H     0.69057   0.12482   0.13141   0.00000  Uiso   1.00
H229   H     0.95217   0.22968   0.08502   0.00000  Uiso   1.00
H230   H     0.97213   0.28136   0.06378   0.00000  Uiso   1.00
H231   H     0.67388   0.25023   0.09397   0.00000  Uiso   1.00
H232   H     0.95865   0.30430   0.15768   0.00000  Uiso   1.00
H233   H     0.78613   0.04006   0.32988   0.00000  Uiso   1.00
H234   H     0.94023   0.25282   0.17791   0.00000  Uiso   1.00
H235   H     0.86796   0.25827   0.14675   0.00000  Uiso   1.00
H236   H     0.88846   0.30636   0.11741   0.00000  Uiso   1.00
H237   H     0.78599   0.29712   0.32902   0.00000  Uiso   1.00
H238   H     0.69266   0.21223   0.31119   0.00000  Uiso   1.00
H239   H     0.73061   0.12218   0.18871   0.00000  Uiso   1.00
H240   H     0.92614   0.09571   0.41690   0.00000  Uiso   1.00
H241   H     0.95815   0.10907   0.48956   0.00000  Uiso   1.00
H242   H     0.80672   0.18621   0.08999   0.00000  Uiso   1.00
N243   N     0.71598   0.16666   0.24999   0.00000  Uiso   1.00
N244   N     0.95069   0.16669   0.25000   0.00000  Uiso   1.00
O245   O     0.79375   0.22678   0.25001   0.00000  Uiso   1.00
O246   O     0.87294   0.22679   0.25001   0.00000  Uiso   1.00
O247   O     0.77441   0.16665   0.32549   0.00000  Uiso   1.00
O248   O     0.85360   0.16666   0.32549   0.00000  Uiso   1.00
O249   O     0.79373   0.10654   0.25000   0.00000  Uiso   1.00
O250   O     0.87292   0.10655   0.25000   0.00000  Uiso   1.00
O251   O     0.81306   0.16667   0.17451   0.00000  Uiso   1.00
O252   O     0.89225   0.16668   0.17451   0.00000  Uiso   1.00
C253   C     0.16667   0.57906   0.24984   0.00000  Uiso   1.00
C254   C     0.12273   0.49755   0.40816   0.00000  Uiso   1.00
C255   C     0.19359   0.64378   0.20230   0.00000  Uiso   1.00
C256   C     0.14001   0.49831   0.35015   0.00000  Uiso   1.00
C257   C     0.19256   0.35373   0.20329   0.00000  Uiso   1.00
C258   C     0.16677   0.37616   0.24932   0.00000  Uiso   1.00
C259   C     0.13995   0.35590   0.29440   0.00000  Uiso   1.00
C260   C     0.13986   0.64620   0.29383   0.00000  Uiso   1.00
C261   C     0.16697   0.62359   0.24837   0.00000  Uiso   1.00
C262   C     0.29892   0.52538   0.28477   0.00000  Uiso   1.00
C263   C     0.01493   0.52501   0.28438   0.00000  Uiso   1.00
C264   C     0.14176   0.49432   0.49069   0.00000  Uiso   1.00
C265   C     0.03583   0.47478   0.21632   0.00000  Uiso   1.00
C266   C     0.32129   0.47683   0.21285   0.00000  Uiso   1.00
C267   C     0.16673   0.42083   0.24981   0.00000  Uiso   1.00
C268   C     0.19307   0.49927   0.14957   0.00000  Uiso   1.00
C269   C     0.25783   0.45895   0.01091   0.00000  Uiso   1.00
C270   C     0.20721   0.49332   0.09175   0.00000  Uiso   1.00
C271   C     0.07728   0.51602   0.43569   0.00000  Uiso   1.00
C272   C     0.06322   0.52228   0.48996   0.00000  Uiso   1.00
C273   C     0.09540   0.51278   0.01723   0.00000  Uiso   1.00
C274   C     0.26698   0.55760   0.31958   0.00000  Uiso   1.00
C275   C     0.15285   0.48270   0.43656   0.00000  Uiso   1.00
C276   C     0.24601   0.55102   0.37352   0.00000  Uiso   1.00
C277   C     0.21888   0.58260   0.40751   0.00000  Uiso   1.00
C278   C     0.21466   0.62173   0.38826   0.00000  Uiso   1.00
C279   C     0.23852   0.62951   0.33532   0.00000  Uiso   1.00
C280   C     0.26532   0.59779   0.30130   0.00000  Uiso   1.00
C281   C     0.31942   0.46168   0.15964   0.00000  Uiso   1.00
C282   C     0.29363   0.42006   0.15986   0.00000  Uiso   1.00
C283   C     0.32086   0.39155   0.11267   0.00000  Uiso   1.00
C284   C     0.22093   0.62036   0.15131   0.00000  Uiso   1.00
C285   C     0.27353   0.60954   0.14863   0.00000  Uiso   1.00
C286   C     0.17761   0.48708   0.01575   0.00000  Uiso   1.00
C287   C     0.30297   0.59161   0.09437   0.00000  Uiso   1.00
C288   C     0.22116   0.46471   0.48788   0.00000  Uiso   1.00
C289   C     0.22746   0.44789   0.43753   0.00000  Uiso   1.00
C290   C     0.19356   0.45645   0.41229   0.00000  Uiso   1.00
C291   C     0.17202   0.50185   0.06735   0.00000  Uiso   1.00
C292   C     0.25093   0.47331   0.06230   0.00000  Uiso   1.00
Cu293  Cu    0.11978   0.49999   0.25000   0.00000  Uiso   1.00
Cu294  Cu    0.21355   0.50001   0.25000   0.00000  Uiso   1.00
H295   H     0.27896   0.46679   0.07915   0.00000  Uiso   1.00
H296   H     0.05299   0.52668   0.41507   0.00000  Uiso   1.00
H297   H     0.08247   0.51941   0.05910   0.00000  Uiso   1.00
H298   H     0.02778   0.53604   0.01073   0.00000  Uiso   1.00
H299   H     0.19995   0.44262   0.37333   0.00000  Uiso   1.00
H300   H     0.25153   0.52174   0.38920   0.00000  Uiso   1.00
H301   H     0.20189   0.57692   0.44890   0.00000  Uiso   1.00
H302   H     0.19389   0.64627   0.41457   0.00000  Uiso   1.00
H303   H     0.23654   0.66016   0.32068   0.00000  Uiso   1.00
H304   H     0.28469   0.60452   0.26073   0.00000  Uiso   1.00
H305   H     0.32934   0.40820   0.07529   0.00000  Uiso   1.00
H306   H     0.21080   0.36981   0.16781   0.00000  Uiso   1.00
H307   H     0.02221   0.38000   0.11722   0.00000  Uiso   1.00
H308   H     0.29785   0.36463   0.11001   0.00000  Uiso   1.00
H309   H     0.29014   0.40336   0.19649   0.00000  Uiso   1.00
H310   H     0.25680   0.42634   0.15739   0.00000  Uiso   1.00
H311   H     0.30599   0.48702   0.14140   0.00000  Uiso   1.00
H312   H     0.02391   0.45815   0.13141   0.00000  Uiso   1.00
H313   H     0.28550   0.56301   0.08502   0.00000  Uiso   1.00
H314   H     0.30547   0.61470   0.06378   0.00000  Uiso   1.00
H315   H     0.00721   0.58357   0.09397   0.00000  Uiso   1.00
H316   H     0.29199   0.63763   0.15768   0.00000  Uiso   1.00
H317   H     0.11947   0.37340   0.32988   0.00000  Uiso   1.00
H318   H     0.27356   0.58616   0.17791   0.00000  Uiso   1.00
H319   H     0.20129   0.59160   0.14675   0.00000  Uiso   1.00
H320   H     0.22180   0.63969   0.11741   0.00000  Uiso   1.00
H321   H     0.11932   0.63045   0.32902   0.00000  Uiso   1.00
H322   H     0.02600   0.54556   0.31119   0.00000  Uiso   1.00
H323   H     0.06395   0.45551   0.18871   0.00000  Uiso   1.00
H324   H     0.25947   0.42904   0.41690   0.00000  Uiso   1.00
H325   H     0.29148   0.44240   0.48956   0.00000  Uiso   1.00
H326   H     0.14005   0.51955   0.08999   0.00000  Uiso   1.00
N327   N     0.04931   0.49999   0.24999   0.00000  Uiso   1.00
N328   N     0.28402   0.50002   0.25000   0.00000  Uiso   1.00
O329   O     0.12708   0.56011   0.25001   0.00000  Uiso   1.00
O330   O     0.20627   0.56012   0.25001   0.00000  Uiso   1.00
O331   O     0.10775   0.49998   0.32549   0.00000  Uiso   1.00
O332   O     0.18694   0.49999   0.32549   0.00000  Uiso   1.00
O333   O     0.12706   0.43988   0.25000   0.00000  Uiso   1.00
O334   O     0.20625   0.43989   0.25000   0.00000  Uiso   1.00
O335   O     0.14640   0.50001   0.17451   0.00000  Uiso   1.00
O336   O     0.22559   0.50002   0.17451   0.00000  Uiso   1.00
C337   C     0.50000   0.57906   0.24984   0.00000  Uiso   1.00
C338   C     0.45607   0.49755   0.40816   0.00000  Uiso   1.00
C339   C     0.52692   0.64378   0.20230   0.00000  Uiso   1.00
C340   C     0.47334   0.49831   0.35015   0.00000  Uiso   1.00
C341   C     0.52589   0.35373   0.20329   0.00000  Uiso   1.00
C342   C     0.50010   0.37616   0.24932   0.00000  Uiso   1.00
C343   C     0.47328   0.35590   0.29440   0.00000  Uiso   1.00
C344   C     0.47319   0.64620   0.29383   0.00000  Uiso   1.00
C345   C     0.50031   0.62359   0.24837   0.00000  Uiso   1.00
C346   C     0.63225   0.52538   0.28477   0.00000  Uiso   1.00
C347   C     0.34826   0.52501   0.28438   0.00000  Uiso   1.00
C348   C     0.47509   0.49432   0.49069   0.00000  Uiso   1.00
C349   C     0.36916   0.47478   0.21632   0.00000  Uiso   1.00
C350   C     0.65462   0.47683   0.21285   0.00000  Uiso   1.00
C351   C     0.50006   0.42083   0.24981   0.00000  Uiso   1.00
C352   C     0.52640   0.49927   0.14957   0.00000  Uiso   1.00
C353   C     0.59116   0.45895   0.01091   0.00000  Uiso   1.00
C354   C     0.54055   0.49332   0.09175   0.00000  Uiso   1.00
C355   C     0.41061   0.51602   0.43569   0.00000  Uiso   1.00
C356   C     0.39655   0.52228   0.48996   0.00000  Uiso   1.00
C357   C     0.42873   0.51278   0.01723   0.00000  Uiso   1.00
C358   C     0.60031   0.55760   0.31958   0.00000  Uiso   1.00
C359   C     0.48619   0.48270   0.43656   0.00000  Uiso   1.00
C360   C     0.57935   0.55102   0.37352   0.00000  Uiso   1.00
C361   C     0.55222   0.58260   0.40751   0.00000  Uiso   1.00
C362   C     0.54799   0.62173   0.38826   0.00000  Uiso   1.00
C363   C     0.57186   0.62951   0.33532   0.00000  Uiso   1.00
C364   C     0.59866   0.59779   0.30130   0.00000  Uiso   1.00
C365   C     0.65275   0.46168   0.15964   0.00000  Uiso   1.00
C366   C     0.62696   0.42006   0.15986   0.00000  Uiso   1.00
C367   C     0.65419   0.39155   0.11267   0.00000  Uiso   1.00
C368   C     0.55426   0.62036   0.15131   0.00000  Uiso   1.00
C369   C     0.60687   0.60954   0.14863   0.00000  Uiso   1.00
C370   C     0.51095   0.48708   0.01575   0.00000  Uiso   1.00
C371   C     0.63631   0.59161   0.09437   0.00000  Uiso   1.00
C372   C     0.55449   0.46471   0.48788   0.00000  Uiso   1.00
C373   C     0.56079   0.44789   0.43753   0.00000  Uiso   1.00
C374   C     0.52689   0.45645   0.41229   0.00000  Uiso   1.00
C375   C     0.50535   0.50185   0.06735   0.00000  Uiso   1.00
C376   C     0.58426   0.47331   0.06230   0.00000  Uiso   1.00
Cu377  Cu    0.45311   0.49999   0.25000   0.00000  Uiso   1.00
Cu378  Cu    0.54689   0.50001   0.25000   0.00000  Uiso   1.00
H379   H     0.61229   0.46679   0.07915   0.00000  Uiso   1.00
H380   H     0.38632   0.52668   0.41507   0.00000  Uiso   1.00
H381   H     0.41581   0.51941   0.05910   0.00000  Uiso   1.00
H382   H     0.36112   0.53604   0.01073   0.00000  Uiso   1.00
H383   H     0.53329   0.44262   0.37333   0.00000  Uiso   1.00
H384   H     0.58486   0.52174   0.38920   0.00000  Uiso   1.00
H385   H     0.53523   0.57692   0.44890   0.00000  Uiso   1.00
H386   H     0.52722   0.64627   0.41457   0.00000  Uiso   1.00
H387   H     0.56987   0.66016   0.32068   0.00000  Uiso   1.00
H388   H     0.61803   0.60452   0.26073   0.00000  Uiso   1.00
H389   H     0.66268   0.40820   0.07529   0.00000  Uiso   1.00
H390   H     0.54414   0.36981   0.16781   0.00000  Uiso   1.00
H391   H     0.35555   0.38000   0.11722   0.00000  Uiso   1.00
H392   H     0.63118   0.36463   0.11001   0.00000  Uiso   1.00
H393   H     0.62347   0.40336   0.19649   0.00000  Uiso   1.00
H394   H     0.59014   0.42634   0.15739   0.00000  Uiso   1.00
H395   H     0.63933   0.48702   0.14140   0.00000  Uiso   1.00
H396   H     0.35724   0.45815   0.13141   0.00000  Uiso   1.00
H397   H     0.61884   0.56301   0.08502   0.00000  Uiso   1.00
H398   H     0.63880   0.61470   0.06378   0.00000  Uiso   1.00
H399   H     0.34054   0.58357   0.09397   0.00000  Uiso   1.00
H400   H     0.62532   0.63763   0.15768   0.00000  Uiso   1.00
H401   H     0.45280   0.37340   0.32988   0.00000  Uiso   1.00
H402   H     0.60690   0.58616   0.17791   0.00000  Uiso   1.00
H403   H     0.53462   0.59160   0.14675   0.00000  Uiso   1.00
H404   H     0.55513   0.63969   0.11741   0.00000  Uiso   1.00
H405   H     0.45266   0.63045   0.32902   0.00000  Uiso   1.00
H406   H     0.35933   0.54556   0.31119   0.00000  Uiso   1.00
H407   H     0.39728   0.45551   0.18871   0.00000  Uiso   1.00
H408   H     0.59281   0.42904   0.41690   0.00000  Uiso   1.00
H409   H     0.62481   0.44240   0.48956   0.00000  Uiso   1.00
H410   H     0.47339   0.51955   0.08999   0.00000  Uiso   1.00
N411   N     0.38265   0.49999   0.24999   0.00000  Uiso   1.00
N412   N     0.61735   0.50002   0.25000   0.00000  Uiso   1.00
O413   O     0.46042   0.56011   0.25001   0.00000  Uiso   1.00
O414   O     0.53961   0.56012   0.25001   0.00000  Uiso   1.00
O415   O     0.44108   0.49998   0.32549   0.00000  Uiso   1.00
O416   O     0.52027   0.49999   0.32549   0.00000  Uiso   1.00
O417   O     0.46039   0.43988   0.25000   0.00000  Uiso   1.00
O418   O     0.53958   0.43989   0.25000   0.00000  Uiso   1.00
O419   O     0.47973   0.50001   0.17451   0.00000  Uiso   1.00
O420   O     0.55892   0.50002   0.17451   0.00000  Uiso   1.00
C421   C     0.83333   0.57906   0.24984   0.00000  Uiso   1.00
C422   C     0.78940   0.49755   0.40816   0.00000  Uiso   1.00
C423   C     0.86026   0.64378   0.20230   0.00000  Uiso   1.00
C424   C     0.80668   0.49831   0.35015   0.00000  Uiso   1.00
C425   C     0.85923   0.35373   0.20329   0.00000  Uiso   1.00
C426   C     0.83344   0.37616   0.24932   0.00000  Uiso   1.00
C427   C     0.80661   0.35590   0.29440   0.00000  Uiso   1.00
C428   C     0.80653   0.64620   0.29383   0.00000  Uiso   1.00
C429   C     0.83364   0.62359   0.24837   0.00000  Uiso   1.00
C430   C     0.96559   0.52538   0.28477   0.00000  Uiso   1.00
C431   C     0.68159   0.52501   0.28438   0.00000  Uiso   1.00
C432   C     0.80842   0.49432   0.49069   0.00000  Uiso   1.00
C433   C     0.70250   0.47478   0.21632   0.00000  Uiso   1.00
C434   C     0.98795   0.47683   0.21285   0.00000  Uiso   1.00
C435   C     0.83339   0.42083   0.24981   0.00000  Uiso   1.00
C436   C     0.85974   0.49927   0.14957   0.00000  Uiso   1.00
C437   C     0.92450   0.45895   0.01091   0.00000  Uiso   1.00
C438   C     0.87388   0.49332   0.09175   0.00000  Uiso   1.00
C439   C     0.74395   0.51602   0.43569   0.00000  Uiso   1.00
C440   C     0.72988   0.52228   0.48996   0.00000  Uiso   1.00
C441   C     0.76207   0.51278   0.01723   0.00000  Uiso   1.00
C442   C     0.93364   0.55760   0.31958   0.00000  Uiso   1.00
C443   C     0.81952   0.48270   0.43656   0.00000  Uiso   1.00
C444   C     0.91268   0.55102   0.37352   0.00000  Uiso   1.00
C445   C     0.88555   0.58260   0.40751   0.00000  Uiso   1.00
C446   C     0.88132   0.62173   0.38826   0.00000  Uiso   1.00
C447   C     0.90519   0.62951   0.33532   0.00000  Uiso   1.00
C448   C     0.93199   0.59779   0.30130   0.00000  Uiso   1.00
C449   C     0.98608   0.46168   0.15964   0.00000  Uiso   1.00
C450   C     0.96030   0.42006   0.15986   0.00000  Uiso   1.00
C451   C     0.98753   0.39155   0.11267   0.00000  Uiso   1.00
C452   C     0.88759   0.62036   0.15131   0.00000  Uiso   1.00
C453   C     0.94020   0.60954   0.14863   0.00000  Uiso   1.00
C454   C     0.84428   0.48708   0.01575   0.00000  Uiso   1.00
C455   C     0.96964   0.59161   0.09437   0.00000  Uiso   1.00
C456   C     0.88783   0.46471   0.48788   0.00000  Uiso   1.00
C457   C     0.89413   0.44789   0.43753   0.00000  Uiso   1.00
C458   C     0.86023   0.45645   0.41229   0.00000  Uiso   1.00
C459   C     0.83869   0.50185   0.06735   0.00000  Uiso   1.00
C460   C     0.91760   0.47331   0.06230   0.00000  Uiso   1.00
Cu461  Cu    0.78645   0.49999   0.25000   0.00000  Uiso   1.00
Cu462  Cu    0.88022   0.50001   0.25000   0.00000  Uiso   1.00
H463   H     0.94562   0.46679   0.07915   0.00000  Uiso   1.00
H464   H     0.71965   0.52668   0.41507   0.00000  Uiso   1.00
H465   H     0.74914   0.51941   0.05910   0.00000  Uiso   1.00
H466   H     0.69445   0.53604   0.01073   0.00000  Uiso   1.00
H467   H     0.86662   0.44262   0.37333   0.00000  Uiso   1.00
H468   H     0.91820   0.52174   0.38920   0.00000  Uiso   1.00
H469   H     0.86856   0.57692   0.44890   0.00000  Uiso   1.00
H470   H     0.86056   0.64627   0.41457   0.00000  Uiso   1.00
H471   H     0.90320   0.66016   0.32068   0.00000  Uiso   1.00
H472   H     0.95136   0.60452   0.26073   0.00000  Uiso   1.00
H473   H     0.99601   0.40820   0.07529   0.00000  Uiso   1.00
H474   H     0.87747   0.36981   0.16781   0.00000  Uiso   1.00
H475   H     0.68888   0.38000   0.11722   0.00000  Uiso   1.00
H476   H     0.96451   0.36463   0.11001   0.00000  Uiso   1.00
H477   H     0.95681   0.40336   0.19649   0.00000  Uiso   1.00
H478   H     0.92347   0.42634   0.15739   0.00000  Uiso   1.00
H479   H     0.97266   0.48702   0.14140   0.00000  Uiso   1.00
H480   H     0.69057   0.45815   0.13141   0.00000  Uiso   1.00
H481   H     0.95217   0.56301   0.08502   0.00000  Uiso   1.00
H482   H     0.97213   0.61470   0.06378   0.00000  Uiso   1.00
H483   H     0.67388   0.58357   0.09397   0.00000  Uiso   1.00
H484   H     0.95865   0.63763   0.15768   0.00000  Uiso   1.00
H485   H     0.78613   0.37340   0.32988   0.00000  Uiso   1.00
H486   H     0.94023   0.58616   0.17791   0.00000  Uiso   1.00
H487   H     0.86796   0.59160   0.14675   0.00000  Uiso   1.00
H488   H     0.88846   0.63969   0.11741   0.00000  Uiso   1.00
H489   H     0.78599   0.63045   0.32902   0.00000  Uiso   1.00
H490   H     0.69266   0.54556   0.31119   0.00000  Uiso   1.00
H491   H     0.73061   0.45551   0.18871   0.00000  Uiso   1.00
H492   H     0.92614   0.42904   0.41690   0.00000  Uiso   1.00
H493   H     0.95815   0.44240   0.48956   0.00000  Uiso   1.00
H494   H     0.80672   0.51955   0.08999   0.00000  Uiso   1.00
N495   N     0.71598   0.49999   0.24999   0.00000  Uiso   1.00
N496   N     0.95069   0.50002   0.25000   0.00000  Uiso   1.00
O497   O     0.79375   0.56011   0.25001   0.00000  Uiso   1.00
O498   O     0.87294   0.56012   0.25001   0.00000  Uiso   1.00
O499   O     0.77441   0.49998   0.32549   0.00000  Uiso   1.00
O500   O     0.85360   0.49999   0.32549   0.00000  Uiso   1.00
O501   O     0.79373   0.43988   0.25000   0.00000  Uiso   1.00
O502   O     0.87292   0.43989   0.25000   0.00000  Uiso   1.00
O503   O     0.81306   0.50001   0.17451   0.00000  Uiso   1.00
O504   O     0.89225   0.50002   0.17451   0.00000  Uiso   1.00
C505   C     0.16667   0.91239   0.24984   0.00000  Uiso   1.00
C506   C     0.12273   0.83089   0.40816   0.00000  Uiso   1.00
C507   C     0.19359   0.97712   0.20230   0.00000  Uiso   1.00
C508   C     0.14001   0.83164   0.35015   0.00000  Uiso   1.00
C509   C     0.19256   0.68706   0.20329   0.00000  Uiso   1.00
C510   C     0.16677   0.70949   0.24932   0.00000  Uiso   1.00
C511   C     0.13995   0.68924   0.29440   0.00000  Uiso   1.00
C512   C     0.13986   0.97954   0.29383   0.00000  Uiso   1.00
C513   C     0.16697   0.95693   0.24837   0.00000  Uiso   1.00
C514   C     0.29892   0.85871   0.28477   0.00000  Uiso   1.00
C515   C     0.01493   0.85835   0.28438   0.00000  Uiso   1.00
C516   C     0.14176   0.82766   0.49069   0.00000  Uiso   1.00
C517   C     0.03583   0.80812   0.21632   0.00000  Uiso   1.00
C518   C     0.32129   0.81016   0.21285   0.00000  Uiso   1.00
C519   C     0.16673   0.75416   0.24981   0.00000  Uiso   1.00
C520   C     0.19307   0.83260   0.14957   0.00000  Uiso   1.00
C521   C     0.25783   0.79228   0.01091   0.00000  Uiso   1.00
C522   C     0.20721   0.82665   0.09175   0.00000  Uiso   1.00
C523   C     0.07728   0.84936   0.43569   0.00000  Uiso   1.00
C524   C     0.06322   0.85562   0.48996   0.00000  Uiso   1.00
C525   C     0.09540   0.84611   0.01723   0.00000  Uiso   1.00
C526   C     0.26698   0.89093   0.31958   0.00000  Uiso   1.00
C527   C     0.15285   0.81604   0.43656   0.00000  Uiso   1.00
C528   C     0.24601   0.88436   0.37352   0.00000  Uiso   1.00
C529   C     0.21888   0.91593   0.40751   0.00000  Uiso   1.00
C530   C     0.21466   0.95506   0.38826   0.00000  Uiso   1.00
C531   C     0.23852   0.96284   0.33532   0.00000  Uiso   1.00
C532   C     0.26532   0.93112   0.30130   0.00000  Uiso   1.00
C533   C     0.31942   0.79501   0.15964   0.00000  Uiso   1.00
C534   C     0.29363   0.75339   0.15986   0.00000  Uiso   1.00
C535   C     0.32086   0.72488   0.11267   0.00000  Uiso   1.00
C536   C     0.22093   0.95369   0.15131   0.00000  Uiso   1.00
C537   C     0.27353   0.94287   0.14863   0.00000  Uiso   1.00
C538   C     0.17761   0.82042   0.01575   0.00000  Uiso   1.00
C539   C     0.30297   0.92495   0.09437   0.00000  Uiso   1.00
C540   C     0.22116   0.79805   0.48788   0.00000  Uiso   1.00
C541   C     0.22746   0.78123   0.43753   0.00000  Uiso   1.00
C542   C     0.19356   0.78978   0.41229   0.00000  Uiso   1.00
C543   C     0.17202   0.83518   0.06735   0.00000  Uiso   1.00
C544   C     0.25093   0.80664   0.06230   0.00000  Uiso   1.00
Cu545  Cu    0.11978   0.83333   0.25000   0.00000  Uiso   1.00
Cu546  Cu    0.21355   0.83334   0.25000   0.00000  Uiso   1.00
H547   H     0.27896   0.80012   0.07915   0.00000  Uiso   1.00
H548   H     0.05299   0.86001   0.41507   0.00000  Uiso   1.00
H549   H     0.08247   0.85274   0.05910   0.00000  Uiso   1.00
H550   H     0.02778   0.86938   0.01073   0.00000  Uiso   1.00
H551   H     0.19995   0.77595   0.37333   0.00000  Uiso   1.00
H552   H     0.25153   0.85507   0.38920   0.00000  Uiso   1.00
H553   H     0.20189   0.91025   0.44890   0.00000  Uiso   1.00
H554   H     0.19389   0.97960   0.41457   0.00000  Uiso   1.00
H555   H     0.23654   0.99350   0.32068   0.00000  Uiso   1.00
H556   H     0.28469   0.93785   0.26073   0.00000  Uiso   1.00
H557   H     0.32934   0.74154   0.07529   0.00000  Uiso   1.00
H558   H     0.21080   0.70314   0.16781   0.00000  Uiso   1.00
H559   H     0.02221   0.71334   0.11722   0.00000  Uiso   1.00
H560   H     0.29785   0.69796   0.11001   0.00000  Uiso   1.00
H561   H     0.29014   0.73670   0.19649   0.00000  Uiso   1.00
H562   H     0.25680   0.75967   0.15739   0.00000  Uiso   1.00
H563   H     0.30599   0.82036   0.14140   0.00000  Uiso   1.00
H564   H     0.02391   0.79148   0.13141   0.00000  Uiso   1.00
H565   H     0.28550   0.89635   0.08502   0.00000  Uiso   1.00
H566   H     0.30547   0.94803   0.06378   0.00000  Uiso   1.00
H567   H     0.00721   0.91690   0.09397   0.00000  Uiso   1.00
H568   H     0.29199   0.97097   0.15768   0.00000  Uiso   1.00
H569   H     0.11947   0.70673   0.32988   0.00000  Uiso   1.00
H570   H     0.27356   0.91949   0.17791   0.00000  Uiso   1.00
H571   H     0.20129   0.92493   0.14675   0.00000  Uiso   1.00
H572   H     0.22180   0.97302   0.11741   0.00000  Uiso   1.00
H573   H     0.11932   0.96379   0.32902   0.00000  Uiso   1.00
H574   H     0.02600   0.87889   0.31119   0.00000  Uiso   1.00
H575   H     0.06395   0.78884   0.18871   0.00000  Uiso   1.00
H576   H     0.25947   0.76238   0.41690   0.00000  Uiso   1.00
H577   H     0.29148   0.77574   0.48956   0.00000  Uiso   1.00
H578   H     0.14005   0.85288   0.08999   0.00000  Uiso   1.00
N579   N     0.04931   0.83332   0.24999   0.00000  Uiso   1.00
N580   N     0.28402   0.83335   0.25000   0.00000  Uiso   1.00
O581   O     0.12708   0.89345   0.25001   0.00000  Uiso   1.00
O582   O     0.20627   0.89346   0.25001   0.00000  Uiso   1.00
O583   O     0.10775   0.83332   0.32549   0.00000  Uiso   1.00
O584   O     0.18694   0.83333   0.32549   0.00000  Uiso   1.00
O585   O     0.12706   0.77321   0.25000   0.00000  Uiso   1.00
O586   O     0.20625   0.77322   0.25000   0.00000  Uiso   1.00
O587   O     0.14640   0.83334   0.17451   0.00000  Uiso   1.00
O588   O     0.22559   0.83335   0.17451   0.00000  Uiso   1.00
C589   C     0.50000   0.91239   0.24984   0.00000  Uiso   1.00
C590   C     0.45607   0.83089   0.40816   0.00000  Uiso   1.00
C591   C     0.52692   0.97712   0.20230   0.00000  Uiso   1.00
C592   C     0.47334   0.83164   0.35015   0.00000  Uiso   1.00
C593   C     0.52589   0.68706   0.20329   0.00000  Uiso   1.00
C594   C     0.50010   0.70949   0.24932   0.00000  Uiso   1.00
C595   C     0.47328   0.68924   0.29440   0.00000  Uiso   1.00
C596   C     0.47319   0.97954   0.29383   0.00000  Uiso   1.00
C597   C     0.50031   0.95693   0.24837   0.00000  Uiso   1.00
C598   C     0.63225   0.85871   0.28477   0.00000  Uiso   1.00
C599   C     0.34826   0.85835   0.28438   0.00000  Uiso   1.00
C600   C     0.47509   0.82766   0.49069   0.00000  Uiso   1.00
C601   C     0.36916   0.80812   0.21632   0.00000  Uiso   1.00
C602   C     0.65462   0.81016   0.21285   0.00000  Uiso   1.00
C603   C     0.50006   0.75416   0.24981   0.00000  Uiso   1.00
C604   C     0.52640   0.83260   0.14957   0.00000  Uiso   1.00
C605   C     0.59116   0.79228   0.01091   0.00000  Uiso   1.00
C606   C     0.54055   0.82665   0.09175   0.00000  Uiso   1.00
C607   C     0.41061   0.84936   0.43569   0.00000  Uiso   1.00
C608   C     0.39655   0.85562   0.48996   0.00000  Uiso   1.00
C609   C     0.42873   0.84611   0.01723   0.00000  Uiso   1.00
C610   C     0.60031   0.89093   0.31958   0.00000  Uiso   1.00
C611   C     0.48619   0.81604   0.43656   0.00000  Uiso   1.00
C612   C     0.57935   0.88436   0.37352   0.00000  Uiso   1.00
C613   C     0.55222   0.91593   0.40751   0.00000  Uiso   1.00
C614   C     0.54799   0.95506   0.38826   0.00000  Uiso   1.00
C615   C     0.57186   0.96284   0.33532   0.00000  Uiso   1.00
C616   C     0.59866   0.93112   0.30130   0.00000  Uiso   1.00
C617   C     0.65275   0.79501   0.15964   0.00000  Uiso   1.00
C618   C     0.62696   0.75339   0.15986   0.00000  Uiso   1.00
C619   C     0.65419   0.72488   0.11267   0.00000  Uiso   1.00
C620   C     0.55426   0.95369   0.15131   0.00000  Uiso   1.00
C621   C     0.60687   0.94287   0.14863   0.00000  Uiso   1.00
C622   C     0.51095   0.82042   0.01575   0.00000  Uiso   1.00
C623   C     0.63631   0.92495   0.09437   0.00000  Uiso   1.00
C624   C     0.55449   0.79805   0.48788   0.00000  Uiso   1.00
C625   C     0.56079   0.78123   0.43753   0.00000  Uiso   1.00
C626   C     0.52689   0.78978   0.41229   0.00000  Uiso   1.00
C627   C     0.50535   0.83518   0.06735   0.00000  Uiso   1.00
C628   C     0.58426   0.80664   0.06230   0.00000  Uiso   1.00
Cu629  Cu    0.45311   0.83333   0.25000   0.00000  Uiso   1.00
Cu630  Cu    0.54689   0.83334   0.25000   0.00000  Uiso   1.00
H631   H     0.61229   0.80012   0.07915   0.00000  Uiso   1.00
H632   H     0.38632   0.86001   0.41507   0.00000  Uiso   1.00
H633   H     0.41581   0.85274   0.05910   0.00000  Uiso   1.00
H634   H     0.36112   0.86938   0.01073   0.00000  Uiso   1.00
H635   H     0.53329   0.77595   0.37333   0.00000  Uiso   1.00
H636   H     0.58486   0.85507   0.38920   0.00000  Uiso   1.00
H637   H     0.53523   0.91025   0.44890   0.00000  Uiso   1.00
H638   H     0.52722   0.97960   0.41457   0.00000  Uiso   1.00
H639   H     0.56987   0.99350   0.32068   0.00000  Uiso   1.00
H640   H     0.61803   0.93785   0.26073   0.00000  Uiso   1.00
H641   H     0.66268   0.74154   0.07529   0.00000  Uiso   1.00
H642   H     0.54414   0.70314   0.16781   0.00000  Uiso   1.00
H643   H     0.35555   0.71334   0.11722   0.00000  Uiso   1.00
H644   H     0.63118   0.69796   0.11001   0.00000  Uiso   1.00
H645   H     0.62347   0.73670   0.19649   0.00000  Uiso   1.00
H646   H     0.59014   0.75967   0.15739   0.00000  Uiso   1.00
H647   H     0.63933   0.82036   0.14140   0.00000  Uiso   1.00
H648   H     0.35724   0.79148   0.13141   0.00000  Uiso   1.00
H649   H     0.61884   0.89635   0.08502   0.00000  Uiso   1.00
H650   H     0.63880   0.94803   0.06378   0.00000  Uiso   1.00
H651   H     0.34054   0.91690   0.09397   0.00000  Uiso   1.00
H652   H     0.62532   0.97097   0.15768   0.00000  Uiso   1.00
H653   H     0.45280   0.70673   0.32988   0.00000  Uiso   1.00
H654   H     0.60690   0.91949   0.17791   0.00000  Uiso   1.00
H655   H     0.53462   0.92493   0.14675   0.00000  Uiso   1.00
H656   H     0.55513   0.97302   0.11741   0.00000  Uiso   1.00
H657   H     0.45266   0.96379   0.32902   0.00000  Uiso   1.00
H658   H     0.35933   0.87889   0.31119   0.00000  Uiso   1.00
H659   H     0.39728   0.78884   0.18871   0.00000  Uiso   1.00
H660   H     0.59281   0.76238   0.41690   0.00000  Uiso   1.00
H661   H     0.62481   0.77574   0.48956   0.00000  Uiso   1.00
H662   H     0.47339   0.85288   0.08999   0.00000  Uiso   1.00
N663   N     0.38265   0.83332   0.24999   0.00000  Uiso   1.00
N664   N     0.61735   0.83335   0.25000   0.00000  Uiso   1.00
O665   O     0.46042   0.89345   0.25001   0.00000  Uiso   1.00
O666   O     0.53961   0.89346   0.25001   0.00000  Uiso   1.00
O667   O     0.44108   0.83332   0.32549   0.00000  Uiso   1.00
O668   O     0.52027   0.83333   0.32549   0.00000  Uiso   1.00
O669   O     0.46039   0.77321   0.25000   0.00000  Uiso   1.00
O670   O     0.53958   0.77322   0.25000   0.00000  Uiso   1.00
O671   O     0.47973   0.83334   0.17451   0.00000  Uiso   1.00
O672   O     0.55892   0.83335   0.17451   0.00000  Uiso   1.00
C673   C     0.83333   0.91239   0.24984   0.00000  Uiso   1.00
C674   C     0.78940   0.83089   0.40816   0.00000  Uiso   1.00
C675   C     0.86026   0.97712   0.20230   0.00000  Uiso   1.00
C676   C     0.80668   0.83164   0.35015   0.00000  Uiso   1.00
C677   C     0.85923   0.68706   0.20329   0.00000  Uiso   1.00
C678   C     0.83344   0.70949   0.24932   0.00000  Uiso   1.00
C679   C     0.80661   0.68924   0.29440   0.00000  Uiso   1.00
C680   C     0.80653   0.97954   0.29383   0.00000  Uiso   1.00
C681   C     0.83364   0.95693   0.24837   0.00000  Uiso   1.00
C682   C     0.96559   0.85871   0.28477   0.00000  Uiso   1.00
C683   C     0.68159   0.85835   0.28438   0.00000  Uiso   1.00
C684   C     0.80842   0.82766   0.49069   0.00000  Uiso   1.00
C685   C     0.70250   0.80812   0.21632   0.00000  Uiso   1.00
C686   C     0.98795   0.81016   0.21285   0.00000  Uiso   1.00
C687   C     0.83339   0.75416   0.24981   0.00000  Uiso   1.00
C688   C     0.85974   0.83260   0.14957   0.00000  Uiso   1.00
C689   C     0.92450   0.79228   0.01091   0.00000  Uiso   1.00
C690   C     0.87388   0.82665   0.09175   0.00000  Uiso   1.00
C691   C     0.74395   0.84936   0.43569   0.00000  Uiso   1.00
C692   C     0.72988   0.85562   0.48996   0.00000  Uiso   1.00
C693   C     0.76207   0.84611   0.01723   0.00000  Uiso   1.00
C694   C     0.93364   0.89093   0.31958   0.00000  Uiso   1.00
C695   C     0.81952   0.81604   0.43656   0.00000  Uiso   1.00
C696   C     0.91268   0.88436   0.37352   0.00000  Uiso   1.00
C697   C     0.88555   0.91593   0.40751   0.00000  Uiso   1.00
C698   C     0.88132   0.95506   0.38826   0.00000  Uiso   1.00
C699   C     0.90519   0.96284   0.33532   0.00000  Uiso   1.00
C700   C     0.93199   0.93112   0.30130   0.00000  Uiso   1.00
C701   C     0.98608   0.79501   0.15964   0.00000  Uiso   1.00
C702   C     0.96030   0.75339   0.15986   0.00000  Uiso   1.00
C703   C     0.98753   0.72488   0.11267   0.00000  Uiso   1.00
C704   C     0.88759   0.95369   0.15131   0.00000  Uiso   1.00
C705   C     0.94020   0.94287   0.14863   0.00000  Uiso   1.00
C706   C     0.84428   0.82042   0.01575   0.00000  Uiso   1.00
C707   C     0.96964   0.92495   0.09437   0.00000  Uiso   1.00
C708   C     0.88783   0.79805   0.48788   0.00000  Uiso   1.00
C709   C     0.89413   0.78123   0.43753   0.00000  Uiso   1.00
C710   C     0.86023   0.78978   0.41229   0.00000  Uiso   1.00
C711   C     0.83869   0.83518   0.06735   0.00000  Uiso   1.00
C712   C     0.91760   0.80664   0.06230   0.00000  Uiso   1.00
Cu713  Cu    0.78645   0.83333   0.25000   0.00000  Uiso   1.00
Cu714  Cu    0.88022   0.83334   0.25000   0.00000  Uiso   1.00
H715   H     0.94562   0.80012   0.07915   0.00000  Uiso   1.00
H716   H     0.71965   0.86001   0.41507   0.00000  Uiso   1.00
H717   H     0.74914   0.85274   0.05910   0.00000  Uiso   1.00
H718   H     0.69445   0.86938   0.01073   0.00000  Uiso   1.00
H719   H     0.86662   0.77595   0.37333   0.00000  Uiso   1.00
H720   H     0.91820   0.85507   0.38920   0.00000  Uiso   1.00
H721   H     0.86856   0.91025   0.44890   0.00000  Uiso   1.00
H722   H     0.86056   0.97960   0.41457   0.00000  Uiso   1.00
H723   H     0.90320   0.99350   0.32068   0.00000  Uiso   1.00
H724   H     0.95136   0.93785   0.26073   0.00000  Uiso   1.00
H725   H     0.99601   0.74154   0.07529   0.00000  Uiso   1.00
H726   H     0.87747   0.70314   0.16781   0.00000  Uiso   1.00
H727   H     0.68888   0.71334   0.11722   0.00000  Uiso   1.00
H728   H     0.96451   0.69796   0.11001   0.00000  Uiso   1.00
H729   H     0.95681   0.73670   0.19649   0.00000  Uiso   1.00
H730   H     0.92347   0.75967   0.15739   0.00000  Uiso   1.00
H731   H     0.97266   0.82036   0.14140   0.00000  Uiso   1.00
H732   H     0.69057   0.79148   0.13141   0.00000  Uiso   1.00
H733   H     0.95217   0.89635   0.08502   0.00000  Uiso   1.00
H734   H     0.97213   0.94803   0.06378   0.00000  Uiso   1.00
H735   H     0.67388   0.91690   0.09397   0.00000  Uiso   1.00
H736   H     0.95865   0.97097   0.15768   0.00000  Uiso   1.00
H737   H     0.78613   0.70673   0.32988   0.00000  Uiso   1.00
H738   H     0.94023   0.91949   0.17791   0.00000  Uiso   1.00
H739   H     0.86796   0.92493   0.14675   0.00000  Uiso   1.00
H740   H     0.88846   0.97302   0.11741   0.00000  Uiso   1.00
H741   H     0.78599   0.96379   0.32902   0.00000  Uiso   1.00
H742   H     0.69266   0.87889   0.31119   0.00000  Uiso   1.00
H743   H     0.73061   0.78884   0.18871   0.00000  Uiso   1.00
H744   H     0.92614   0.76238   0.41690   0.00000  Uiso   1.00
H745   H     0.95815   0.77574   0.48956   0.00000  Uiso   1.00
H746   H     0.80672   0.85288   0.08999   0.00000  Uiso   1.00
N747   N     0.71598   0.83332   0.24999   0.00000  Uiso   1.00
N748   N     0.95069   0.83335   0.25000   0.00000  Uiso   1.00
O749   O     0.79375   0.89345   0.25001   0.00000  Uiso   1.00
O750   O     0.87294   0.89346   0.25001   0.00000  Uiso   1.00
O751   O     0.77441   0.83332   0.32549   0.00000  Uiso   1.00
O752   O     0.85360   0.83333   0.32549   0.00000  Uiso   1.00
O753   O     0.79373   0.77321   0.25000   0.00000  Uiso   1.00
O754   O     0.87292   0.77322   0.25000   0.00000  Uiso   1.00
O755   O     0.81306   0.83334   0.17451   0.00000  Uiso   1.00
O756   O     0.89225   0.83335   0.17451   0.00000  Uiso   1.00
C757   C     0.16667   0.24573   0.74984   0.00000  Uiso   1.00
C758   C     0.12273   0.16422   0.90816   0.00000  Uiso   1.00
C759   C     0.19359   0.31045   0.70230   0.00000  Uiso   1.00
C760   C     0.14001   0.16498   0.85015   0.00000  Uiso   1.00
C761   C     0.19256   0.02039   0.70329   0.00000  Uiso   1.00
C762   C     0.16677   0.04282   0.74932   0.00000  Uiso   1.00
C763   C     0.13995   0.02257   0.79440   0.00000  Uiso   1.00
C764   C     0.13986   0.31287   0.79383   0.00000  Uiso   1.00
C765   C     0.16697   0.29026   0.74837   0.00000  Uiso   1.00
C766   C     0.29892   0.19205   0.78477   0.00000  Uiso   1.00
C767   C     0.01493   0.19168   0.78438   0.00000  Uiso   1.00
C768   C     0.14176   0.16099   0.99069   0.00000  Uiso   1.00
C769   C     0.03583   0.14145   0.71632   0.00000  Uiso   1.00
C770   C     0.32129   0.14350   0.71285   0.00000  Uiso   1.00
C771   C     0.16673   0.08750   0.74981   0.00000  Uiso   1.00
C772   C     0.19307   0.16593   0.64957   0.00000  Uiso   1.00
C773   C     0.25783   0.12561   0.51091   0.00000  Uiso   1.00
C774   C     0.20721   0.15998   0.59175   0.00000  Uiso   1.00
C775   C     0.07728   0.18269   0.93569   0.00000  Uiso   1.00
C776   C     0.06322   0.18895   0.98996   0.00000  Uiso   1.00
C777   C     0.09540   0.17945   0.51723   0.00000  Uiso   1.00
C778   C     0.26698   0.22426   0.81958   0.00000  Uiso   1.00
C779   C     0.15285   0.14937   0.93656   0.00000  Uiso   1.00
C780   C     0.24601   0.21769   0.87352   0.00000  Uiso   1.00
C781   C     0.21888   0.24926   0.90751   0.00000  Uiso   1.00
C782   C     0.21466   0.28840   0.88826   0.00000  Uiso   1.00
C783   C     0.23852   0.29618   0.83532   0.00000  Uiso   1.00
C784   C     0.26532   0.26446   0.80130   0.00000  Uiso   1.00
C785   C     0.31942   0.12834   0.65964   0.00000  Uiso   1.00
C786   C     0.29363   0.08673   0.65986   0.00000  Uiso   1.00
C787   C     0.32086   0.05821   0.61267   0.00000  Uiso   1.00
C788   C     0.22093   0.28702   0.65131   0.00000  Uiso   1.00
C789   C     0.27353   0.27621   0.64863   0.00000  Uiso   1.00
C790   C     0.17761   0.15375   0.51575   0.00000  Uiso   1.00
C791   C     0.30297   0.25828   0.59437   0.00000  Uiso   1.00
C792   C     0.22116   0.13138   0.98788   0.00000  Uiso   1.00
C793   C     0.22746   0.11456   0.93753   0.00000  Uiso   1.00
C794   C     0.19356   0.12311   0.91229   0.00000  Uiso   1.00
C795   C     0.17202   0.16851   0.56735   0.00000  Uiso   1.00
C796   C     0.25093   0.13997   0.56230   0.00000  Uiso   1.00
Cu797  Cu    0.11978   0.16666   0.75000   0.00000  Uiso   1.00
Cu798  Cu    0.21355   0.16667   0.75000   0.00000  Uiso   1.00
H799   H     0.27896   0.13346   0.57915   0.00000  Uiso   1.00
H800   H     0.05299   0.19335   0.91507   0.00000  Uiso   1.00
H801   H     0.08247   0.18607   0.55910   0.00000  Uiso   1.00
H802   H     0.02778   0.20271   0.51073   0.00000  Uiso   1.00
H803   H     0.19995   0.10929   0.87333   0.00000  Uiso   1.00
H804   H     0.25153   0.18841   0.88920   0.00000  Uiso   1.00
H805   H     0.20189   0.24358   0.94890   0.00000  Uiso   1.00
H806   H     0.19389   0.31294   0.91457   0.00000  Uiso   1.00
H807   H     0.23654   0.32683   0.82068   0.00000  Uiso   1.00
H808   H     0.28469   0.27119   0.76073   0.00000  Uiso   1.00
H809   H     0.32934   0.07487   0.57529   0.00000  Uiso   1.00
H810   H     0.21080   0.03648   0.66781   0.00000  Uiso   1.00
H811   H     0.02221   0.04667   0.61722   0.00000  Uiso   1.00
H812   H     0.29785   0.03130   0.61001   0.00000  Uiso   1.00
H813   H     0.29014   0.07003   0.69649   0.00000  Uiso   1.00
H814   H     0.25680   0.09300   0.65739   0.00000  Uiso   1.00
H815   H     0.30599   0.15369   0.64140   0.00000  Uiso   1.00
H816   H     0.02391   0.12482   0.63141   0.00000  Uiso   1.00
H817   H     0.28550   0.22968   0.58502   0.00000  Uiso   1.00
H818   H     0.30547   0.28136   0.56378   0.00000  Uiso   1.00
H819   H     0.00721   0.25023   0.59397   0.00000  Uiso   1.00
H820   H     0.29199   0.30430   0.65768   0.00000  Uiso   1.00
H821   H     0.11947   0.04006   0.82988   0.00000  Uiso   1.00
H822   H     0.27356   0.25282   0.67791   0.00000  Uiso   1.00
H823   H     0.20129   0.25827   0.64675   0.00000  Uiso   1.00
H824   H     0.22180   0.30636   0.61741   0.00000  Uiso   1.00
H825   H     0.11932   0.29712   0.82902   0.00000  Uiso   1.00
H826   H     0.02600   0.21223   0.81119   0.00000  Uiso   1.00
H827   H     0.06395   0.12218   0.68871   0.00000  Uiso   1.00
H828   H     0.25947   0.09571   0.91690   0.00000  Uiso   1.00
H829   H     0.29148   0.10907   0.98956   0.00000  Uiso   1.00
H830   H     0.14005   0.18621   0.58999   0.00000  Uiso   1.00
N831   N     0.04931   0.16666   0.74999   0.00000  Uiso   1.00
N832   N     0.28402   0.16669   0.75000   0.00000  Uiso   1.00
O833   O     0.12708   0.22678   0.75001   0.00000  Uiso   1.00
O834   O     0.20627   0.22679   0.75001   0.00000  Uiso   1.00
O835   O     0.10775   0.16665   0.82549   0.00000  Uiso   1.00
O836   O     0.18694   0.16666   0.82549   0.00000  Uiso   1.00
O837   O     0.12706   0.10654   0.75000   0.00000  Uiso   1.00
O838   O     0.20625   0.10655   0.75000   0.00000  Uiso   1.00
O839   O     0.14640   0.16667   0.67451   0.00000  Uiso   1.00
O840   O     0.22559   0.16668   0.67451   0.00000  Uiso   1.00
C841   C     0.50000   0.24573   0.74984   0.00000  Uiso   1.00
C842   C     0.45607   0.16422   0.90816   0.00000  Uiso   1.00
C843   C     0.52692   0.31045   0.70230   0.00000  Uiso   1.00
C844   C     0.47334   0.16498   0.85015   0.00000  Uiso   1.00
C845   C     0.52589   0.02039   0.70329   0.00000  Uiso   1.00
C846   C     0.50010   0.04282   0.74932   0.00000  Uiso   1.00
C847   C     0.47328   0.02257   0.79440   0.00000  Uiso   1.00
C848   C     0.47319   0.31287   0.79383   0.00000  Uiso   1.00
C849   C     0.50031   0.29026   0.74837   0.00000  Uiso   1.00
C850   C     0.63225   0.19205   0.78477   0.00000  Uiso   1.00
C851   C     0.34826   0.19168   0.78438   0.00000  Uiso   1.00
C852   C     0.47509   0.16099   0.99069   0.00000  Uiso   1.00
C853   C     0.36916   0.14145   0.71632   0.00000  Uiso   1.00
C854   C     0.65462   0.14350   0.71285   0.00000  Uiso   1.00
C855   C     0.50006   0.08750   0.74981   0.00000  Uiso   1.00
C856   C     0.52640   0.16593   0.64957   0.00000  Uiso   1.00
C857   C     0.59116   0.12561   0.51091   0.00000  Uiso   1.00
C858   C     0.54055   0.15998   0.59175   0.00000  Uiso   1.00
C859   C     0.41061   0.18269   0.93569   0.00000  Uiso   1.00
C860   C     0.39655   0.18895   0.98996   0.00000  Uiso   1.00
C861   C     0.42873   0.17945   0.51723   0.00000  Uiso   1.00
C862   C     0.60031   0.22426   0.81958   0.00000  Uiso   1.00
C863   C     0.48619   0.14937   0.93656   0.00000  Uiso   1.00
C864   C     0.57935   0.21769   0.87352   0.00000  Uiso   1.00
C865   C     0.55222   0.24926   0.90751   0.00000  Uiso   1.00
C866   C     0.54799   0.28840   0.88826   0.00000  Uiso   1.00
C867   C     0.57186   0.29618   0.83532   0.00000  Uiso   1.00
C868   C     0.59866   0.26446   0.80130   0.00000  Uiso   1.00
C869   C     0.65275   0.12834   0.65964   0.00000  Uiso   1.00
C870   C     0.62696   0.08673   0.65986   0.00000  Uiso   1.00
C871   C     0.65419   0.05821   0.61267   0.00000  Uiso   1.00
C872   C     0.55426   0.28702   0.65131   0.00000  Uiso   1.00
C873   C     0.60687   0.27621   0.64863   0.00000  Uiso   1.00
C874   C     0.51095   0.15375   0.51575   0.00000  Uiso   1.00
C875   C     0.63631   0.25828   0.59437   0.00000  Uiso   1.00
C876   C     0.55449   0.13138   0.98788   0.00000  Uiso   1.00
C877   C     0.56079   0.11456   0.93753   0.00000  Uiso   1.00
C878   C     0.52689   0.12311   0.91229   0.00000  Uiso   1.00
C879   C     0.50535   0.16851   0.56735   0.00000  Uiso   1.00
C880   C     0.58426   0.13997   0.56230   0.00000  Uiso   1.00
Cu881  Cu    0.45311   0.16666   0.75000   0.00000  Uiso   1.00
Cu882  Cu    0.54689   0.16667   0.75000   0.00000  Uiso   1.00
H883   H     0.61229   0.13346   0.57915   0.00000  Uiso   1.00
H884   H     0.38632   0.19335   0.91507   0.00000  Uiso   1.00
H885   H     0.41581   0.18607   0.55910   0.00000  Uiso   1.00
H886   H     0.36112   0.20271   0.51073   0.00000  Uiso   1.00
H887   H     0.53329   0.10929   0.87333   0.00000  Uiso   1.00
H888   H     0.58486   0.18841   0.88920   0.00000  Uiso   1.00
H889   H     0.53523   0.24358   0.94890   0.00000  Uiso   1.00
H890   H     0.52722   0.31294   0.91457   0.00000  Uiso   1.00
H891   H     0.56987   0.32683   0.82068   0.00000  Uiso   1.00
H892   H     0.61803   0.27119   0.76073   0.00000  Uiso   1.00
H893   H     0.66268   0.07487   0.57529   0.00000  Uiso   1.00
H894   H     0.54414   0.03648   0.66781   0.00000  Uiso   1.00
H895   H     0.35555   0.04667   0.61722   0.00000  Uiso   1.00
H896   H     0.63118   0.03130   0.61001   0.00000  Uiso   1.00
H897   H     0.62347   0.07003   0.69649   0.00000  Uiso   1.00
H898   H     0.59014   0.09300   0.65739   0.00000  Uiso   1.00
H899   H     0.63933   0.15369   0.64140   0.00000  Uiso   1.00
H900   H     0.35724   0.12482   0.63141   0.00000  Uiso   1.00
H901   H     0.61884   0.22968   0.58502   0.00000  Uiso   1.00
H902   H     0.63880   0.28136   0.56378   0.00000  Uiso   1.00
H903   H     0.34054   0.25023   0.59397   0.00000  Uiso   1.00
H904   H     0.62532   0.30430   0.65768   0.00000  Uiso   1.00
H905   H     0.45280   0.04006   0.82988   0.00000  Uiso   1.00
H906   H     0.60690   0.25282   0.67791   0.00000  Uiso   1.00
H907   H     0.53462   0.25827   0.64675   0.00000  Uiso   1.00
H908   H     0.55513   0.30636   0.61741   0.00000  Uiso   1.00
H909   H     0.45266   0.29712   0.82902   0.00000  Uiso   1.00
H910   H     0.35933   0.21223   0.81119   0.00000  Uiso   1.00
H911   H     0.39728   0.12218   0.68871   0.00000  Uiso   1.00
H912   H     0.59281   0.09571   0.91690   0.00000  Uiso   1.00
H913   H     0.62481   0.10907   0.98956   0.00000  Uiso   1.00
H914   H     0.47339   0.18621   0.58999   0.00000  Uiso   1.00
N915   N     0.38265   0.16666   0.74999   0.00000  Uiso   1.00
N916   N     0.61735   0.16669   0.75000   0.00000  Uiso   1.00
O917   O     0.46042   0.22678   0.75001   0.00000  Uiso   1.00
O918   O     0.53961   0.22679   0.75001   0.00000  Uiso   1.00
O919   O     0.44108   0.16665   0.82549   0.00000  Uiso   1.00
O920   O     0.52027   0.16666   0.82549   0.00000  Uiso   1.00
O921   O     0.46039   0.10654   0.75000   0.00000  Uiso   1.00
O922   O     0.53958   0.10655   0.75000   0.00000  Uiso   1.00
O923   O     0.47973   0.16667   0.67451   0.00000  Uiso   1.00
O924   O     0.55892   0.16668   0.67451   0.00000  Uiso   1.00
C925   C     0.83333   0.24573   0.74984   0.00000  Uiso   1.00
C926   C     0.78940   0.16422   0.90816   0.00000  Uiso   1.00
C927   C     0.86026   0.31045   0.70230   0.00000  Uiso   1.00
C928   C     0.80668   0.16498   0.85015   0.00000  Uiso   1.00
C929   C     0.85923   0.02039   0.70329   0.00000  Uiso   1.00
C930   C     0.83344   0.04282   0.74932   0.00000  Uiso   1.00
C931   C     0.80661   0.02257   0.79440   0.00000  Uiso   1.00
C932   C     0.80653   0.31287   0.79383   0.00000  Uiso   1.00
C933   C     0.83364   0.29026   0.74837   0.00000  Uiso   1.00
C934   C     0.96559   0.19205   0.78477   0.00000  Uiso   1.00
C935   C     0.68159   0.19168   0.78438   0.00000  Uiso   1.00
C936   C     0.80842   0.16099   0.99069   0.00000  Uiso   1.00
C937   C     0.70250   0.14145   0.71632   0.00000  Uiso   1.00
C938   C     0.98795   0.14350   0.71285   0.00000  Uiso   1.00
C939   C     0.83339   0.08750   0.74981   0.00000  Uiso   1.00
C940   C     0.85974   0.16593   0.64957   0.00000  Uiso   1.00
C941   C     0.92450   0.12561   0.51091   0.00000  Uiso   1.00
C942   C     0.87388   0.15998   0.59175   0.00000  Uiso   1.00
C943   C     0.74395   0.18269   0.93569   0.00000  Uiso   1.00
C944   C     0.72988   0.18895   0.98996   0.00000  Uiso   1.00
C945   C     0.76207   0.17945   0.51723   0.00000  Uiso   1.00
C946   C     0.93364   0.22426   0.81958   0.00000  Uiso   1.00
C947   C     0.81952   0.14937   0.93656   0.00000  Uiso   1.00
C948   C     0.91268   0.21769   0.87352   0.00000  Uiso   1.00
C949   C     0.88555   0.24926   0.90751   0.00000  Uiso   1.00
C950   C     0.88132   0.28840   0.88826   0.00000  Uiso   1.00
C951   C     0.90519   0.29618   0.83532   0.00000  Uiso   1.00
C952   C     0.93199   0.26446   0.80130   0.00000  Uiso   1.00
C953   C     0.98608   0.12834   0.65964   0.00000  Uiso   1.00
C954   C     0.96030   0.08673   0.65986   0.00000  Uiso   1.00
C955   C     0.98753   0.05821   0.61267   0.00000  Uiso   1.00
C956   C     0.88759   0.28702   0.65131   0.00000  Uiso   1.00
C957   C     0.94020   0.27621   0.64863   0.00000  Uiso   1.00
C958   C     0.84428   0.15375   0.51575   0.00000  Uiso   1.00
C959   C     0.96964   0.25828   0.59437   0.00000  Uiso   1.00
C960   C     0.88783   0.13138   0.98788   0.00000  Uiso   1.00
C961   C     0.89413   0.11456   0.93753   0.00000  Uiso   1.00
C962   C     0.86023   0.12311   0.91229   0.00000  Uiso   1.00
C963   C     0.83869   0.16851   0.56735   0.00000  Uiso   1.00
C964   C     0.91760   0.13997   0.56230   0.00000  Uiso   1.00
Cu965  Cu    0.78645   0.16666   0.75000   0.00000  Uiso   1.00
Cu966  Cu    0.88022   0.16667   0.75000   0.00000  Uiso   1.00
H967   H     0.94562   0.13346   0.57915   0.00000  Uiso   1.00
H968   H     0.71965   0.19335   0.91507   0.00000  Uiso   1.00
H969   H     0.74914   0.18607   0.55910   0.00000  Uiso   1.00
H970   H     0.69445   0.20271   0.51073   0.00000  Uiso   1.00
H971   H     0.86662   0.10929   0.87333   0.00000  Uiso   1.00
H972   H     0.91820   0.18841   0.88920   0.00000  Uiso   1.00
H973   H     0.86856   0.24358   0.94890   0.00000  Uiso   1.00
H974   H     0.86056   0.31294   0.91457   0.00000  Uiso   1.00
H975   H     0.90320   0.32683   0.82068   0.00000  Uiso   1.00
H976   H     0.95136   0.27119   0.76073   0.00000  Uiso   1.00
H977   H     0.99601   0.07487   0.57529   0.00000  Uiso   1.00
H978   H     0.87747   0.03648   0.66781   0.00000  Uiso   1.00
H979   H     0.68888   0.04667   0.61722   0.00000  Uiso   1.00
H980   H     0.96451   0.03130   0.61001   0.00000  Uiso   1.00
H981   H     0.95681   0.07003   0.69649   0.00000  Uiso   1.00
H982   H     0.92347   0.09300   0.65739   0.00000  Uiso   1.00
H983   H     0.97266   0.15369   0.64140   0.00000  Uiso   1.00
H984   H     0.69057   0.12482   0.63141   0.00000  Uiso   1.00
H985   H     0.95217   0.22968   0.58502   0.00000  Uiso   1.00
H986   H     0.97213   0.28136   0.56378   0.00000  Uiso   1.00
H987   H     0.67388   0.25023   0.59397   0.00000  Uiso   1.00
H988   H     0.95865   0.30430   0.65768   0.00000  Uiso   1.00
H989   H     0.78613   0.04006   0.82988   0.00000  Uiso   1.00
H990   H     0.94023   0.25282   0.67791   0.00000  Uiso   1.00
H991   H     0.86796   0.25827   0.64675   0.00000  Uiso   1.00
H992   H     0.88846   0.30636   0.61741   0.00000  Uiso   1.00
H993   H     0.78599   0.29712   0.82902   0.00000  Uiso   1.00
H994   H     0.69266   0.21223   0.81119   0.00000  Uiso   1.00
H995   H     0.73061   0.12218   0.68871   0.00000  Uiso   1.00
H996   H     0.92614   0.09571   0.91690   0.00000  Uiso   1.00
H997   H     0.95815   0.10907   0.98956   0.00000  Uiso   1.00
H998   H     0.80672   0.18621   0.58999   0.00000  Uiso   1.00
N999   N     0.71598   0.16666   0.74999   0.00000  Uiso   1.00
N1000  N     0.95069   0.16669   0.75000   0.00000  Uiso   1.00
O1001  O     0.79375   0.22678   0.75001   0.00000  Uiso   1.00
O1002  O     0.87294   0.22679   0.75001   0.00000  Uiso   1.00
O1003  O     0.77441   0.16665   0.82549   0.00000  Uiso   1.00
O1004  O     0.85360   0.16666   0.82549   0.00000  Uiso   1.00
O1005  O     0.79373   0.10654   0.75000   0.00000  Uiso   1.00
O1006  O     0.87292   0.10655   0.75000   0.00000  Uiso   1.00
O1007  O     0.81306   0.16667   0.67451   0.00000  Uiso   1.00
O1008  O     0.89225   0.16668   0.67451   0.00000  Uiso   1.00
C1009  C     0.16667   0.57906   0.74984   0.00000  Uiso   1.00
C1010  C     0.12273   0.49755   0.90816   0.00000  Uiso   1.00
C1011  C     0.19359   0.64378   0.70230   0.00000  Uiso   1.00
C1012  C     0.14001   0.49831   0.85015   0.00000  Uiso   1.00
C1013  C     0.19256   0.35373   0.70329   0.00000  Uiso   1.00
C1014  C     0.16677   0.37616   0.74932   0.00000  Uiso   1.00
C1015  C     0.13995   0.35590   0.79440   0.00000  Uiso   1.00
C1016  C     0.13986   0.64620   0.79383   0.00000  Uiso   1.00
C1017  C     0.16697   0.62359   0.74837   0.00000  Uiso   1.00
C1018  C     0.29892   0.52538   0.78477   0.00000  Uiso   1.00
C1019  C     0.01493   0.52501   0.78438   0.00000  Uiso   1.00
C1020  C     0.14176   0.49432   0.99069   0.00000  Uiso   1.00
C1021  C     0.03583   0.47478   0.71632   0.00000  Uiso   1.00
C1022  C     0.32129   0.47683   0.71285   0.00000  Uiso   1.00
C1023  C     0.16673   0.42083   0.74981   0.00000  Uiso   1.00
C1024  C     0.19307   0.49927   0.64957   0.00000  Uiso   1.00
C1025  C     0.25783   0.45895   0.51091   0.00000  Uiso   1.00
C1026  C     0.20721   0.49332   0.59175   0.00000  Uiso   1.00
C1027  C     0.07728   0.51602   0.93569   0.00000  Uiso   1.00
C1028  C     0.06322   0.52228   0.98996   0.00000  Uiso   1.00
C1029  C     0.09540   0.51278   0.51723   0.00000  Uiso   1.00
C1030  C     0.26698   0.55760   0.81958   0.00000  Uiso   1.00
C1031  C     0.15285   0.48270   0.93656   0.00000  Uiso   1.00
C1032  C     0.24601   0.55102   0.87352   0.00000  Uiso   1.00
C1033  C     0.21888   0.58260   0.90751   0.00000  Uiso   1.00
C1034  C     0.21466   0.62173   0.88826   0.00000  Uiso   1.00
C1035  C     0.23852   0.62951   0.83532   0.00000  Uiso   1.00
C1036  C     0.26532   0.59779   0.80130   0.00000  Uiso   1.00
C1037  C     0.31942   0.46168   0.65964   0.00000  Uiso   1.00
C1038  C     0.29363   0.42006   0.65986   0.00000  Uiso   1.00
C1039  C     0.32086   0.39155   0.61267   0.00000  Uiso   1.00
C1040  C     0.22093   0.62036   0.65131   0.00000  Uiso   1.00
C1041  C     0.27353   0.60954   0.64863   0.00000  Uiso   1.00
C1042  C     0.17761   0.48708   0.51575   0.00000  Uiso   1.00
C1043  C     0.30297   0.59161   0.59437   0.00000  Uiso   1.00
C1044  C     0.22116   0.46471   0.98788   0.00000  Uiso   1.00
C1045  C     0.22746   0.44789   0.93753   0.00000  Uiso   1.00
C1046  C     0.19356   0.45645   0.91229   0.00000  Uiso   1.00
C1047  C     0.17202   0.50185   0.56735   0.00000  Uiso   1.00
C1048  C     0.25093   0.47331   0.56230   0.00000  Uiso   1.00
Cu1049 Cu    0.11978   0.49999   0.75000   0.00000  Uiso   1.00
Cu1050 Cu    0.21355   0.50001   0.75000   0.00000  Uiso   1.00
H1051  H     0.27896   0.46679   0.57915   0.00000  Uiso   1.00
H1052  H     0.05299   0.52668   0.91507   0.00000  Uiso   1.00
H1053  H     0.08247   0.51941   0.55910   0.00000  Uiso   1.00
H1054  H     0.02778   0.53604   0.51073   0.00000  Uiso   1.00
H1055  H     0.19995   0.44262   0.87333   0.00000  Uiso   1.00
H1056  H     0.25153   0.52174   0.88920   0.00000  Uiso   1.00
H1057  H     0.20189   0.57692   0.94890   0.00000  Uiso   1.00
H1058  H     0.19389   0.64627   0.91457   0.00000  Uiso   1.00
H1059  H     0.23654   0.66016   0.82068   0.00000  Uiso   1.00
H1060  H     0.28469   0.60452   0.76073   0.00000  Uiso   1.00
H1061  H     0.32934   0.40820   0.57529   0.00000  Uiso   1.00
H1062  H     0.21080   0.36981   0.66781   0.00000  Uiso   1.00
H1063  H     0.02221   0.38000   0.61722   0.00000  Uiso   1.00
H1064  H     0.29785   0.36463   0.61001   0.00000  Uiso   1.00
H1065  H     0.29014   0.40336   0.69649   0.00000  Uiso   1.00
H1066  H     0.25680   0.42634   0.65739   0.00000  Uiso   1.00
H1067  H     0.30599   0.48702   0.64140   0.00000  Uiso   1.00
H1068  H     0.02391   0.45815   0.63141   0.00000  Uiso   1.00
H1069  H     0.28550   0.56301   0.58502   0.00000  Uiso   1.00
H1070  H     0.30547   0.61470   0.56378   0.00000  Uiso   1.00
H1071  H     0.00721   0.58357   0.59397   0.00000  Uiso   1.00
H1072  H     0.29199   0.63763   0.65768   0.00000  Uiso   1.00
H1073  H     0.11947   0.37340   0.82988   0.00000  Uiso   1.00
H1074  H     0.27356   0.58616   0.67791   0.00000  Uiso   1.00
H1075  H     0.20129   0.59160   0.64675   0.00000  Uiso   1.00
H1076  H     0.22180   0.63969   0.61741   0.00000  Uiso   1.00
H1077  H     0.11932   0.63045   0.82902   0.00000  Uiso   1.00
H1078  H     0.02600   0.54556   0.81119   0.00000  Uiso   1.00
H1079  H     0.06395   0.45551   0.68871   0.00000  Uiso   1.00
H1080  H     0.25947   0.42904   0.91690   0.00000  Uiso   1.00
H1081  H     0.29148   0.44240   0.98956   0.00000  Uiso   1.00
H1082  H     0.14005   0.51955   0.58999   0.00000  Uiso   1.00
N1083  N     0.04931   0.49999   0.74999   0.00000  Uiso   1.00
N1084  N     0.28402   0.50002   0.75000   0.00000  Uiso   1.00
O1085  O     0.12708   0.56011   0.75001   0.00000  Uiso   1.00
O1086  O     0.20627   0.56012   0.75001   0.00000  Uiso   1.00
O1087  O     0.10775   0.49998   0.82549   0.00000  Uiso   1.00
O1088  O     0.18694   0.49999   0.82549   0.00000  Uiso   1.00
O1089  O     0.12706   0.43988   0.75000   0.00000  Uiso   1.00
O1090  O     0.20625   0.43989   0.75000   0.00000  Uiso   1.00
O1091  O     0.14640   0.50001   0.67451   0.00000  Uiso   1.00
O1092  O     0.22559   0.50002   0.67451   0.00000  Uiso   1.00
C1093  C     0.50000   0.57906   0.74984   0.00000  Uiso   1.00
C1094  C     0.45607   0.49755   0.90816   0.00000  Uiso   1.00
C1095  C     0.52692   0.64378   0.70230   0.00000  Uiso   1.00
C1096  C     0.47334   0.49831   0.85015   0.00000  Uiso   1.00
C1097  C     0.52589   0.35373   0.70329   0.00000  Uiso   1.00
C1098  C     0.50010   0.37616   0.74932   0.00000  Uiso   1.00
C1099  C     0.47328   0.35590   0.79440   0.00000  Uiso   1.00
C1100  C     0.47319   0.64620   0.79383   0.00000  Uiso   1.00
C1101  C     0.50031   0.62359   0.74837   0.00000  Uiso   1.00
C1102  C     0.63225   0.52538   0.78477   0.00000  Uiso   1.00
C1103  C     0.34826   0.52501   0.78438   0.00000  Uiso   1.00
C1104  C     0.47509   0.49432   0.99069   0.00000  Uiso   1.00
C1105  C     0.36916   0.47478   0.71632   0.00000  Uiso   1.00
C1106  C     0.65462   0.47683   0.71285   0.00000  Uiso   1.00
C1107  C     0.50006   0.42083   0.74981   0.00000  Uiso   1.00
C1108  C     0.52640   0.49927   0.64957   0.00000  Uiso   1.00
C1109  C     0.59116   0.45895   0.51091   0.00000  Uiso   1.00
C1110  C     0.54055   0.49332   0.59175   0.00000  Uiso   1.00
C1111  C     0.41061   0.51602   0.93569   0.00000  Uiso   1.00
C1112  C     0.39655   0.52228   0.98996   0.00000  Uiso   1.00
C1113  C     0.42873   0.51278   0.51723   0.00000  Uiso   1.00
C1114  C     0.60031   0.55760   0.81958   0.00000  Uiso   1.00
C1115  C     0.48619   0.48270   0.93656   0.00000  Uiso   1.00
C1116  C     0.57935   0.55102   0.87352   0.00000  Uiso   1.00
C1117  C     0.55222   0.58260   0.90751   0.00000  Uiso   1.00
C1118  C     0.54799   0.62173   0.88826   0.00000  Uiso   1.00
C1119  C     0.57186   0.62951   0.83532   0.00000  Uiso   1.00
C1120  C     0.59866   0.59779   0.80130   0.00000  Uiso   1.00
C1121  C     0.65275   0.46168   0.65964   0.00000  Uiso   1.00
C1122  C     0.62696   0.42006   0.65986   0.00000  Uiso   1.00
C1123  C     0.65419   0.39155   0.61267   0.00000  Uiso   1.00
C1124  C     0.55426   0.62036   0.65131   0.00000  Uiso   1.00
C1125  C     0.60687   0.60954   0.64863   0.00000  Uiso   1.00
C1126  C     0.51095   0.48708   0.51575   0.00000  Uiso   1.00
C1127  C     0.63631   0.59161   0.59437   0.00000  Uiso   1.00
C1128  C     0.55449   0.46471   0.98788   0.00000  Uiso   1.00
C1129  C     0.56079   0.44789   0.93753   0.00000  Uiso   1.00
C1130  C     0.52689   0.45645   0.91229   0.00000  Uiso   1.00
C1131  C     0.50535   0.50185   0.56735   0.00000  Uiso   1.00
C1132  C     0.58426   0.47331   0.56230   0.00000  Uiso   1.00
Cu1133 Cu    0.45311   0.49999   0.75000   0.00000  Uiso   1.00
Cu1134 Cu    0.54689   0.50001   0.75000   0.00000  Uiso   1.00
H1135  H     0.61229   0.46679   0.57915   0.00000  Uiso   1.00
H1136  H     0.38632   0.52668   0.91507   0.00000  Uiso   1.00
H1137  H     0.41581   0.51941   0.55910   0.00000  Uiso   1.00
H1138  H     0.36112   0.53604   0.51073   0.00000  Uiso   1.00
H1139  H     0.53329   0.44262   0.87333   0.00000  Uiso   1.00
H1140  H     0.58486   0.52174   0.88920   0.00000  Uiso   1.00
H1141  H     0.53523   0.57692   0.94890   0.00000  Uiso   1.00
H1142  H     0.52722   0.64627   0.91457   0.00000  Uiso   1.00
H1143  H     0.56987   0.66016   0.82068   0.00000  Uiso   1.00
H1144  H     0.61803   0.60452   0.76073   0.00000  Uiso   1.00
H1145  H     0.66268   0.40820   0.57529   0.00000  Uiso   1.00
H1146  H     0.54414   0.36981   0.66781   0.00000  Uiso   1.00
H1147  H     0.35555   0.38000   0.61722   0.00000  Uiso   1.00
H1148  H     0.63118   0.36463   0.61001   0.00000  Uiso   1.00
H1149  H     0.62347   0.40336   0.69649   0.00000  Uiso   1.00
H1150  H     0.59014   0.42634   0.65739   0.00000  Uiso   1.00
H1151  H     0.63933   0.48702   0.64140   0.00000  Uiso   1.00
H1152  H     0.35724   0.45815   0.63141   0.00000  Uiso   1.00
H1153  H     0.61884   0.56301   0.58502   0.00000  Uiso   1.00
H1154  H     0.63880   0.61470   0.56378   0.00000  Uiso   1.00
H1155  H     0.34054   0.58357   0.59397   0.00000  Uiso   1.00
H1156  H     0.62532   0.63763   0.65768   0.00000  Uiso   1.00
H1157  H     0.45280   0.37340   0.82988   0.00000  Uiso   1.00
H1158  H     0.60690   0.58616   0.67791   0.00000  Uiso   1.00
H1159  H     0.53462   0.59160   0.64675   0.00000  Uiso   1.00
H1160  H     0.55513   0.63969   0.61741   0.00000  Uiso   1.00
H1161  H     0.45266   0.63045   0.82902   0.00000  Uiso   1.00
H1162  H     0.35933   0.54556   0.81119   0.00000  Uiso   1.00
H1163  H     0.39728   0.45551   0.68871   0.00000  Uiso   1.00
H1164  H     0.59281   0.42904   0.91690   0.00000  Uiso   1.00
H1165  H     0.62481   0.44240   0.98956   0.00000  Uiso   1.00
H1166  H     0.47339   0.51955   0.58999   0.00000  Uiso   1.00
N1167  N     0.38265   0.49999   0.74999   0.00000  Uiso   1.00
N1168  N     0.61735   0.50002   0.75000   0.00000  Uiso   1.00
O1169  O     0.46042   0.56011   0.75001   0.00000  Uiso   1.00
O1170  O     0.53961   0.56012   0.75001   0.00000  Uiso   1.00
O1171  O     0.44108   0.49998   0.82549   0.00000  Uiso   1.00
O1172  O     0.52027   0.49999   0.82549   0.00000  Uiso   1.00
O1173  O     0.46039   0.43988   0.75000   0.00000  Uiso   1.00
O1174  O     0.53958   0.43989   0.75000   0.00000  Uiso   1.00
O1175  O     0.47973   0.50001   0.67451   0.00000  Uiso   1.00
O1176  O     0.55892   0.50002   0.67451   0.00000  Uiso   1.00
C1177  C     0.83333   0.57906   0.74984   0.00000  Uiso   1.00
C1178  C     0.78940   0.49755   0.90816   0.00000  Uiso   1.00
C1179  C     0.86026   0.64378   0.70230   0.00000  Uiso   1.00
C1180  C     0.80668   0.49831   0.85015   0.00000  Uiso   1.00
C1181  C     0.85923   0.35373   0.70329   0.00000  Uiso   1.00
C1182  C     0.83344   0.37616   0.74932   0.00000  Uiso   1.00
C1183  C     0.80661   0.35590   0.79440   0.00000  Uiso   1.00
C1184  C     0.80653   0.64620   0.79383   0.00000  Uiso   1.00
C1185  C     0.83364   0.62359   0.74837   0.00000  Uiso   1.00
C1186  C     0.96559   0.52538   0.78477   0.00000  Uiso   1.00
C1187  C     0.68159   0.52501   0.78438   0.00000  Uiso   1.00
C1188  C     0.80842   0.49432   0.99069   0.00000  Uiso   1.00
C1189  C     0.70250   0.47478   0.71632   0.00000  Uiso   1.00
C1190  C     0.98795   0.47683   0.71285   0.00000  Uiso   1.00
C1191  C     0.83339   0.42083   0.74981   0.00000  Uiso   1.00
C1192  C     0.85974   0.49927   0.64957   0.00000  Uiso   1.00
C1193  C     0.92450   0.45895   0.51091   0.00000  Uiso   1.00
C1194  C     0.87388   0.49332   0.59175   0.00000  Uiso   1.00
C1195  C     0.74395   0.51602   0.93569   0.00000  Uiso   1.00
C1196  C     0.72988   0.52228   0.98996   0.00000  Uiso   1.00
C1197  C     0.76207   0.51278   0.51723   0.00000  Uiso   1.00
C1198  C     0.93364   0.55760   0.81958   0.00000  Uiso   1.00
C1199  C     0.81952   0.48270   0.93656   0.00000  Uiso   1.00
C1200  C     0.91268   0.55102   0.87352   0.00000  Uiso   1.00
C1201  C     0.88555   0.58260   0.90751   0.00000  Uiso   1.00
C1202  C     0.88132   0.62173   0.88826   0.00000  Uiso   1.00
C1203  C     0.90519   0.62951   0.83532   0.00000  Uiso   1.00
C1204  C     0.93199   0.59779   0.80130   0.00000  Uiso   1.00
C1205  C     0.98608   0.46168   0.65964   0.00000  Uiso   1.00
C1206  C     0.96030   0.42006   0.65986   0.00000  Uiso   1.00
C1207  C     0.98753   0.39155   0.61267   0.00000  Uiso   1.00
C1208  C     0.88759   0.62036   0.65131   0.00000  Uiso   1.00
C1209  C     0.94020   0.60954   0.64863   0.00000  Uiso   1.00
C1210  C     0.84428   0.48708   0.51575   0.00000  Uiso   1.00
C1211  C     0.96964   0.59161   0.59437   0.00000  Uiso   1.00
C1212  C     0.88783   0.46471   0.98788   0.00000  Uiso   1.00
C1213  C     0.89413   0.44789   0.93753   0.00000  Uiso   1.00
C1214  C     0.86023   0.45645   0.91229   0.00000  Uiso   1.00
C1215  C     0.83869   0.50185   0.56735   0.00000  Uiso   1.00
C1216  C     0.91760   0.47331   0.56230   0.00000  Uiso   1.00
Cu1217 Cu    0.78645   0.49999   0.75000   0.00000  Uiso   1.00
Cu1218 Cu    0.88022   0.50001   0.75000   0.00000  Uiso   1.00
H1219  H     0.94562   0.46679   0.57915   0.00000  Uiso   1.00
H1220  H     0.71965   0.52668   0.91507   0.00000  Uiso   1.00
H1221  H     0.74914   0.51941   0.55910   0.00000  Uiso   1.00
H1222  H     0.69445   0.53604   0.51073   0.00000  Uiso   1.00
H1223  H     0.86662   0.44262   0.87333   0.00000  Uiso   1.00
H1224  H     0.91820   0.52174   0.88920   0.00000  Uiso   1.00
H1225  H     0.86856   0.57692   0.94890   0.00000  Uiso   1.00
H1226  H     0.86056   0.64627   0.91457   0.00000  Uiso   1.00
H1227  H     0.90320   0.66016   0.82068   0.00000  Uiso   1.00
H1228  H     0.95136   0.60452   0.76073   0.00000  Uiso   1.00
H1229  H     0.99601   0.40820   0.57529   0.00000  Uiso   1.00
H1230  H     0.87747   0.36981   0.66781   0.00000  Uiso   1.00
H1231  H     0.68888   0.38000   0.61722   0.00000  Uiso   1.00
H1232  H     0.96451   0.36463   0.61001   0.00000  Uiso   1.00
H1233  H     0.95681   0.40336   0.69649   0.00000  Uiso   1.00
H1234  H     0.92347   0.42634   0.65739   0.00000  Uiso   1.00
H1235  H     0.97266   0.48702   0.64140   0.00000  Uiso   1.00
H1236  H     0.69057   0.45815   0.63141   0.00000  Uiso   1.00
H1237  H     0.95217   0.56301   0.58502   0.00000  Uiso   1.00
H1238  H     0.97213   0.61470   0.56378   0.00000  Uiso   1.00
H1239  H     0.67388   0.58357   0.59397   0.00000  Uiso   1.00
H1240  H     0.95865   0.63763   0.65768   0.00000  Uiso   1.00
H1241  H     0.78613   0.37340   0.82988   0.00000  Uiso   1.00
H1242  H     0.94023   0.58616   0.67791   0.00000  Uiso   1.00
H1243  H     0.86796   0.59160   0.64675   0.00000  Uiso   1.00
H1244  H     0.88846   0.63969   0.61741   0.00000  Uiso   1.00
H1245  H     0.78599   0.63045   0.82902   0.00000  Uiso   1.00
H1246  H     0.69266   0.54556   0.81119   0.00000  Uiso   1.00
H1247  H     0.73061   0.45551   0.68871   0.00000  Uiso   1.00
H1248  H     0.92614   0.42904   0.91690   0.00000  Uiso   1.00
H1249  H     0.95815   0.44240   0.98956   0.00000  Uiso   1.00
H1250  H     0.80672   0.51955   0.58999   0.00000  Uiso   1.00
N1251  N     0.71598   0.49999   0.74999   0.00000  Uiso   1.00
N1252  N     0.95069   0.50002   0.75000   0.00000  Uiso   1.00
O1253  O     0.79375   0.56011   0.75001   0.00000  Uiso   1.00
O1254  O     0.87294   0.56012   0.75001   0.00000  Uiso   1.00
O1255  O     0.77441   0.49998   0.82549   0.00000  Uiso   1.00
O1256  O     0.85360   0.49999   0.82549   0.00000  Uiso   1.00
O1257  O     0.79373   0.43988   0.75000   0.00000  Uiso   1.00
O1258  O     0.87292   0.43989   0.75000   0.00000  Uiso   1.00
O1259  O     0.81306   0.50001   0.67451   0.00000  Uiso   1.00
O1260  O     0.89225   0.50002   0.67451   0.00000  Uiso   1.00
C1261  C     0.16667   0.91239   0.74984   0.00000  Uiso   1.00
C1262  C     0.12273   0.83089   0.90816   0.00000  Uiso   1.00
C1263  C     0.19359   0.97712   0.70230   0.00000  Uiso   1.00
C1264  C     0.14001   0.83164   0.85015   0.00000  Uiso   1.00
C1265  C     0.19256   0.68706   0.70329   0.00000  Uiso   1.00
C1266  C     0.16677   0.70949   0.74932   0.00000  Uiso   1.00
C1267  C     0.13995   0.68924   0.79440   0.00000  Uiso   1.00
C1268  C     0.13986   0.97954   0.79383   0.00000  Uiso   1.00
C1269  C     0.16697   0.95693   0.74837   0.00000  Uiso   1.00
C1270  C     0.29892   0.85871   0.78477   0.00000  Uiso   1.00
C1271  C     0.01493   0.85835   0.78438   0.00000  Uiso   1.00
C1272  C     0.14176   0.82766   0.99069   0.00000  Uiso   1.00
C1273  C     0.03583   0.80812   0.71632   0.00000  Uiso   1.00
C1274  C     0.32129   0.81016   0.71285   0.00000  Uiso   1.00
C1275  C     0.16673   0.75416   0.74981   0.00000  Uiso   1.00
C1276  C     0.19307   0.83260   0.64957   0.00000  Uiso   1.00
C1277  C     0.25783   0.79228   0.51091   0.00000  Uiso   1.00
C1278  C     0.20721   0.82665   0.59175   0.00000  Uiso   1.00
C1279  C     0.07728   0.84936   0.93569   0.00000  Uiso   1.00
C1280  C     0.06322   0.85562   0.98996   0.00000  Uiso   1.00
C1281  C     0.09540   0.84611   0.51723   0.00000  Uiso   1.00
C1282  C     0.26698   0.89093   0.81958   0.00000  Uiso   1.00
C1283  C     0.15285   0.81604   0.93656   0.00000  Uiso   1.00
C1284  C     0.24601   0.88436   0.87352   0.00000  Uiso   1.00
C1285  C     0.21888   0.91593   0.90751   0.00000  Uiso   1.00
C1286  C     0.21466   0.95506   0.88826   0.00000  Uiso   1.00
C1287  C     0.23852   0.96284   0.83532   0.00000  Uiso   1.00
C1288  C     0.26532   0.93112   0.80130   0.00000  Uiso   1.00
C1289  C     0.31942   0.79501   0.65964   0.00000  Uiso   1.00
C1290  C     0.29363   0.75339   0.65986   0.00000  Uiso   1.00
C1291  C     0.32086   0.72488   0.61267   0.00000  Uiso   1.00
C1292  C     0.22093   0.95369   0.65131   0.00000  Uiso   1.00
C1293  C     0.27353   0.94287   0.64863   0.00000  Uiso   1.00
C1294  C     0.17761   0.82042   0.51575   0.00000  Uiso   1.00
C1295  C     0.30297   0.92495   0.59437   0.00000  Uiso   1.00
C1296  C     0.22116   0.79805   0.98788   0.00000  Uiso   1.00
C1297  C     0.22746   0.78123   0.93753   0.00000  Uiso   1.00
C1298  C     0.19356   0.78978   0.91229   0.00000  Uiso   1.00
C1299  C     0.17202   0.83518   0.56735   0.00000  Uiso   1.00
C1300  C     0.25093   0.80664   0.56230   0.00000  Uiso   1.00
Cu1301 Cu    0.11978   0.83333   0.75000   0.00000  Uiso   1.00
Cu1302 Cu    0.21355   0.83334   0.75000   0.00000  Uiso   1.00
H1303  H     0.27896   0.80012   0.57915   0.00000  Uiso   1.00
H1304  H     0.05299   0.86001   0.91507   0.00000  Uiso   1.00
H1305  H     0.08247   0.85274   0.55910   0.00000  Uiso   1.00
H1306  H     0.02778   0.86938   0.51073   0.00000  Uiso   1.00
H1307  H     0.19995   0.77595   0.87333   0.00000  Uiso   1.00
H1308  H     0.25153   0.85507   0.88920   0.00000  Uiso   1.00
H1309  H     0.20189   0.91025   0.94890   0.00000  Uiso   1.00
H1310  H     0.19389   0.97960   0.91457   0.00000  Uiso   1.00
H1311  H     0.23654   0.99350   0.82068   0.00000  Uiso   1.00
H1312  H     0.28469   0.93785   0.76073   0.00000  Uiso   1.00
H1313  H     0.32934   0.74154   0.57529   0.00000  Uiso   1.00
H1314  H     0.21080   0.70314   0.66781   0.00000  Uiso   1.00
H1315  H     0.02221   0.71334   0.61722   0.00000  Uiso   1.00
H1316  H     0.29785   0.69796   0.61001   0.00000  Uiso   1.00
H1317  H     0.29014   0.73670   0.69649   0.00000  Uiso   1.00
H1318  H     0.25680   0.75967   0.65739   0.00000  Uiso   1.00
H1319  H     0.30599   0.82036   0.64140   0.00000  Uiso   1.00
H1320  H     0.02391   0.79148   0.63141   0.00000  Uiso   1.00
H1321  H     0.28550   0.89635   0.58502   0.00000  Uiso   1.00
H1322  H     0.30547   0.94803   0.56378   0.00000  Uiso   1.00
H1323  H     0.00721   0.91690   0.59397   0.00000  Uiso   1.00
H1324  H     0.29199   0.97097   0.65768   0.00000  Uiso   1.00
H1325  H     0.11947   0.70673   0.82988   0.00000  Uiso   1.00
H1326  H     0.27356   0.91949   0.67791   0.00000  Uiso   1.00
H1327  H     0.20129   0.92493   0.64675   0.00000  Uiso   1.00
H1328  H     0.22180   0.97302   0.61741   0.00000  Uiso   1.00
H1329  H     0.11932   0.96379   0.82902   0.00000  Uiso   1.00
H1330  H     0.02600   0.87889   0.81119   0.00000  Uiso   1.00
H1331  H     0.06395   0.78884   0.68871   0.00000  Uiso   1.00
H1332  H     0.25947   0.76238   0.91690   0.00000  Uiso   1.00
H1333  H     0.29148   0.77574   0.98956   0.00000  Uiso   1.00
H1334  H     0.14005   0.85288   0.58999   0.00000  Uiso   1.00
N1335  N     0.04931   0.83332   0.74999   0.00000  Uiso   1.00
N1336  N     0.28402   0.83335   0.75000   0.00000  Uiso   1.00
O1337  O     0.12708   0.89345   0.75001   0.00000  Uiso   1.00
O1338  O     0.20627   0.89346   0.75001   0.00000  Uiso   1.00
O1339  O     0.10775   0.83332   0.82549   0.00000  Uiso   1.00
O1340  O     0.18694   0.83333   0.82549   0.00000  Uiso   1.00
O1341  O     0.12706   0.77321   0.75000   0.00000  Uiso   1.00
O1342  O     0.20625   0.77322   0.75000   0.00000  Uiso   1.00
O1343  O     0.14640   0.83334   0.67451   0.00000  Uiso   1.00
O1344  O     0.22559   0.83335   0.67451   0.00000  Uiso   1.00
C1345  C     0.50000   0.91239   0.74984   0.00000  Uiso   1.00
C1346  C     0.45607   0.83089   0.90816   0.00000  Uiso   1.00
C1347  C     0.52692   0.97712   0.70230   0.00000  Uiso   1.00
C1348  C     0.47334   0.83164   0.85015   0.00000  Uiso   1.00
C1349  C     0.52589   0.68706   0.70329   0.00000  Uiso   1.00
C1350  C     0.50010   0.70949   0.74932   0.00000  Uiso   1.00
C1351  C     0.47328   0.68924   0.79440   0.00000  Uiso   1.00
C1352  C     0.47319   0.97954   0.79383   0.00000  Uiso   1.00
C1353  C     0.50031   0.95693   0.74837   0.00000  Uiso   1.00
C1354  C     0.63225   0.85871   0.78477   0.00000  Uiso   1.00
C1355  C     0.34826   0.85835   0.78438   0.00000  Uiso   1.00
C1356  C     0.47509   0.82766   0.99069   0.00000  Uiso   1.00
C1357  C     0.36916   0.80812   0.71632   0.00000  Uiso   1.00
C1358  C     0.65462   0.81016   0.71285   0.00000  Uiso   1.00
C1359  C     0.50006   0.75416   0.74981   0.00000  Uiso   1.00
C1360  C     0.52640   0.83260   0.64957   0.00000  Uiso   1.00
C1361  C     0.59116   0.79228   0.51091   0.00000  Uiso   1.00
C1362  C     0.54055   0.82665   0.59175   0.00000  Uiso   1.00
C1363  C     0.41061   0.84936   0.93569   0.00000  Uiso   1.00
C1364  C     0.39655   0.85562   0.98996   0.00000  Uiso   1.00
C1365  C     0.42873   0.84611   0.51723   0.00000  Uiso   1.00
C1366  C     0.60031   0.89093   0.81958   0.00000  Uiso   1.00
C1367  C     0.48619   0.81604   0.93656   0.00000  Uiso   1.00
C1368  C     0.57935   0.88436   0.87352   0.00000  Uiso   1.00
C1369  C     0.55222   0.91593   0.90751   0.00000  Uiso   1.00
C1370  C     0.54799   0.95506   0.88826   0.00000  Uiso   1.00
C1371  C     0.57186   0.96284   0.83532   0.00000  Uiso   1.00
C1372  C     0.59866   0.93112   0.80130   0.00000  Uiso   1.00
C1373  C     0.65275   0.79501   0.65964   0.00000  Uiso   1.00
C1374  C     0.62696   0.75339   0.65986   0.00000  Uiso   1.00
C1375  C     0.65419   0.72488   0.61267   0.00000  Uiso   1.00
C1376  C     0.55426   0.95369   0.65131   0.00000  Uiso   1.00
C1377  C     0.60687   0.94287   0.64863   0.00000  Uiso   1.00
C1378  C     0.51095   0.82042   0.51575   0.00000  Uiso   1.00
C1379  C     0.63631   0.92495   0.59437   0.00000  Uiso   1.00
C1380  C     0.55449   0.79805   0.98788   0.00000  Uiso   1.00
C1381  C     0.56079   0.78123   0.93753   0.00000  Uiso   1.00
C1382  C     0.52689   0.78978   0.91229   0.00000  Uiso   1.00
C1383  C     0.50535   0.83518   0.56735   0.00000  Uiso   1.00
C1384  C     0.58426   0.80664   0.56230   0.00000  Uiso   1.00
Cu1385 Cu    0.45311   0.83333   0.75000   0.00000  Uiso   1.00
Cu1386 Cu    0.54689   0.83334   0.75000   0.00000  Uiso   1.00
H1387  H     0.61229   0.80012   0.57915   0.00000  Uiso   1.00
H1388  H     0.38632   0.86001   0.91507   0.00000  Uiso   1.00
H1389  H     0.41581   0.85274   0.55910   0.00000  Uiso   1.00
H1390  H     0.36112   0.86938   0.51073   0.00000  Uiso   1.00
H1391  H     0.53329   0.77595   0.87333   0.00000  Uiso   1.00
H1392  H     0.58486   0.85507   0.88920   0.00000  Uiso   1.00
H1393  H     0.53523   0.91025   0.94890   0.00000  Uiso   1.00
H1394  H     0.52722   0.97960   0.91457   0.00000  Uiso   1.00
H1395  H     0.56987   0.99350   0.82068   0.00000  Uiso   1.00
H1396  H     0.61803   0.93785   0.76073   0.00000  Uiso   1.00
H1397  H     0.66268   0.74154   0.57529   0.00000  Uiso   1.00
H1398  H     0.54414   0.70314   0.66781   0.00000  Uiso   1.00
H1399  H     0.35555   0.71334   0.61722   0.00000  Uiso   1.00
H1400  H     0.63118   0.69796   0.61001   0.00000  Uiso   1.00
H1401  H     0.62347   0.73670   0.69649   0.00000  Uiso   1.00
H1402  H     0.59014   0.75967   0.65739   0.00000  Uiso   1.00
H1403  H     0.63933   0.82036   0.64140   0.00000  Uiso   1.00
H1404  H     0.35724   0.79148   0.63141   0.00000  Uiso   1.00
H1405  H     0.61884   0.89635   0.58502   0.00000  Uiso   1.00
H1406  H     0.63880   0.94803   0.56378   0.00000  Uiso   1.00
H1407  H     0.34054   0.91690   0.59397   0.00000  Uiso   1.00
H1408  H     0.62532   0.97097   0.65768   0.00000  Uiso   1.00
H1409  H     0.45280   0.70673   0.82988   0.00000  Uiso   1.00
H1410  H     0.60690   0.91949   0.67791   0.00000  Uiso   1.00
H1411  H     0.53462   0.92493   0.64675   0.00000  Uiso   1.00
H1412  H     0.55513   0.97302   0.61741   0.00000  Uiso   1.00
H1413  H     0.45266   0.96379   0.82902   0.00000  Uiso   1.00
H1414  H     0.35933   0.87889   0.81119   0.00000  Uiso   1.00
H1415  H     0.39728   0.78884   0.68871   0.00000  Uiso   1.00
H1416  H     0.59281   0.76238   0.91690   0.00000  Uiso   1.00
H1417  H     0.62481   0.77574   0.98956   0.00000  Uiso   1.00
H1418  H     0.47339   0.85288   0.58999   0.00000  Uiso   1.00
N1419  N     0.38265   0.83332   0.74999   0.00000  Uiso   1.00
N1420  N     0.61735   0.83335   0.75000   0.00000  Uiso   1.00
O1421  O     0.46042   0.89345   0.75001   0.00000  Uiso   1.00
O1422  O     0.53961   0.89346   0.75001   0.00000  Uiso   1.00
O1423  O     0.44108   0.83332   0.82549   0.00000  Uiso   1.00
O1424  O     0.52027   0.83333   0.82549   0.00000  Uiso   1.00
O1425  O     0.46039   0.77321   0.75000   0.00000  Uiso   1.00
O1426  O     0.53958   0.77322   0.75000   0.00000  Uiso   1.00
O1427  O     0.47973   0.83334   0.67451   0.00000  Uiso   1.00
O1428  O     0.55892   0.83335   0.67451   0.00000  Uiso   1.00
C1429  C     0.83333   0.91239   0.74984   0.00000  Uiso   1.00
C1430  C     0.78940   0.83089   0.90816   0.00000  Uiso   1.00
C1431  C     0.86026   0.97712   0.70230   0.00000  Uiso   1.00
C1432  C     0.80668   0.83164   0.85015   0.00000  Uiso   1.00
C1433  C     0.85923   0.68706   0.70329   0.00000  Uiso   1.00
C1434  C     0.83344   0.70949   0.74932   0.00000  Uiso   1.00
C1435  C     0.80661   0.68924   0.79440   0.00000  Uiso   1.00
C1436  C     0.80653   0.97954   0.79383   0.00000  Uiso   1.00
C1437  C     0.83364   0.95693   0.74837   0.00000  Uiso   1.00
C1438  C     0.96559   0.85871   0.78477   0.00000  Uiso   1.00
C1439  C     0.68159   0.85835   0.78438   0.00000  Uiso   1.00
C1440  C     0.80842   0.82766   0.99069   0.00000  Uiso   1.00
C1441  C     0.70250   0.80812   0.71632   0.00000  Uiso   1.00
C1442  C     0.98795   0.81016   0.71285   0.00000  Uiso   1.00
C1443  C     0.83339   0.75416   0.74981   0.00000  Uiso   1.00
C1444  C     0.85974   0.83260   0.64957   0.00000  Uiso   1.00
C1445  C     0.92450   0.79228   0.51091   0.00000  Uiso   1.00
C1446  C     0.87388   0.82665   0.59175   0.00000  Uiso   1.00
C1447  C     0.74395   0.84936   0.93569   0.00000  Uiso   1.00
C1448  C     0.72988   0.85562   0.98996   0.00000  Uiso   1.00
C1449  C     0.76207   0.84611   0.51723   0.00000  Uiso   1.00
C1450  C     0.93364   0.89093   0.81958   0.00000  Uiso   1.00
C1451  C     0.81952   0.81604   0.93656   0.00000  Uiso   1.00
C1452  C     0.91268   0.88436   0.87352   0.00000  Uiso   1.00
C1453  C     0.88555   0.91593   0.90751   0.00000  Uiso   1.00
C1454  C     0.88132   0.95506   0.88826   0.00000  Uiso   1.00
C1455  C     0.90519   0.96284   0.83532   0.00000  Uiso   1.00
C1456  C     0.93199   0.93112   0.80130   0.00000  Uiso   1.00
C1457  C     0.98608   0.79501   0.65964   0.00000  Uiso   1.00
C1458  C     0.96030   0.75339   0.65986   0.00000  Uiso   1.00
C1459  C     0.98753   0.72488   0.61267   0.00000  Uiso   1.00
C1460  C     0.88759   0.95369   0.65131   0.00000  Uiso   1.00
C1461  C     0.94020   0.94287   0.64863   0.00000  Uiso   1.00
C1462  C     0.84428   0.82042   0.51575   0.00000  Uiso   1.00
C1463  C     0.96964   0.92495   0.59437   0.00000  Uiso   1.00
C1464  C     0.88783   0.79805   0.98788   0.00000  Uiso   1.00
C1465  C     0.89413   0.78123   0.93753   0.00000  Uiso   1.00
C1466  C     0.86023   0.78978   0.91229   0.00000  Uiso   1.00
C1467  C     0.83869   0.83518   0.56735   0.00000  Uiso   1.00
C1468  C     0.91760   0.80664   0.56230   0.00000  Uiso   1.00
Cu1469 Cu    0.78645   0.83333   0.75000   0.00000  Uiso   1.00
Cu1470 Cu    0.88022   0.83334   0.75000   0.00000  Uiso   1.00
H1471  H     0.94562   0.80012   0.57915   0.00000  Uiso   1.00
H1472  H     0.71965   0.86001   0.91507   0.00000  Uiso   1.00
H1473  H     0.74914   0.85274   0.55910   0.00000  Uiso   1.00
H1474  H     0.69445   0.86938   0.51073   0.00000  Uiso   1.00
H1475  H     0.86662   0.77595   0.87333   0.00000  Uiso   1.00
H1476  H     0.91820   0.85507   0.88920   0.00000  Uiso   1.00
H1477  H     0.86856   0.91025   0.94890   0.00000  Uiso   1.00
H1478  H     0.86056   0.97960   0.91457   0.00000  Uiso   1.00
H1479  H     0.90320   0.99350   0.82068   0.00000  Uiso   1.00
H1480  H     0.95136   0.93785   0.76073   0.00000  Uiso   1.00
H1481  H     0.99601   0.74154   0.57529   0.00000  Uiso   1.00
H1482  H     0.87747   0.70314   0.66781   0.00000  Uiso   1.00
H1483  H     0.68888   0.71334   0.61722   0.00000  Uiso   1.00
H1484  H     0.96451   0.69796   0.61001   0.00000  Uiso   1.00
H1485  H     0.95681   0.73670   0.69649   0.00000  Uiso   1.00
H1486  H     0.92347   0.75967   0.65739   0.00000  Uiso   1.00
H1487  H     0.97266   0.82036   0.64140   0.00000  Uiso   1.00
H1488  H     0.69057   0.79148   0.63141   0.00000  Uiso   1.00
H1489  H     0.95217   0.89635   0.58502   0.00000  Uiso   1.00
H1490  H     0.97213   0.94803   0.56378   0.00000  Uiso   1.00
H1491  H     0.67388   0.91690   0.59397   0.00000  Uiso   1.00
H1492  H     0.95865   0.97097   0.65768   0.00000  Uiso   1.00
H1493  H     0.78613   0.70673   0.82988   0.00000  Uiso   1.00
H1494  H     0.94023   0.91949   0.67791   0.00000  Uiso   1.00
H1495  H     0.86796   0.92493   0.64675   0.00000  Uiso   1.00
H1496  H     0.88846   0.97302   0.61741   0.00000  Uiso   1.00
H1497  H     0.78599   0.96379   0.82902   0.00000  Uiso   1.00
H1498  H     0.69266   0.87889   0.81119   0.00000  Uiso   1.00
H1499  H     0.73061   0.78884   0.68871   0.00000  Uiso   1.00
H1500  H     0.92614   0.76238   0.91690   0.00000  Uiso   1.00
H1501  H     0.95815   0.77574   0.98956   0.00000  Uiso   1.00
H1502  H     0.80672   0.85288   0.58999   0.00000  Uiso   1.00
N1503  N     0.71598   0.83332   0.74999   0.00000  Uiso   1.00
N1504  N     0.95069   0.83335   0.75000   0.00000  Uiso   1.00
O1505  O     0.79375   0.89345   0.75001   0.00000  Uiso   1.00
O1506  O     0.87294   0.89346   0.75001   0.00000  Uiso   1.00
O1507  O     0.77441   0.83332   0.82549   0.00000  Uiso   1.00
O1508  O     0.85360   0.83333   0.82549   0.00000  Uiso   1.00
O1509  O     0.79373   0.77321   0.75000   0.00000  Uiso   1.00
O1510  O     0.87292   0.77322   0.75000   0.00000  Uiso   1.00
O1511  O     0.81306   0.83334   0.67451   0.00000  Uiso   1.00
O1512  O     0.89225   0.83335   0.67451   0.00000  Uiso   1.00
loop_
_geom_bond_atom_site_label_1
_geom_bond_atom_site_label_2
_geom_bond_distance
_geom_bond_site_symmetry_2
_ccdc_geom_bond_type
C1     O77     1.296   .     A
C1     O78     1.295   .     A
C1     C9      1.436   .     S
C2     C4      1.475   .     S
C2     C23     1.417   .     A
C2     C19     1.402   .     A
C3     C9      1.410   .     A
C3     C32     1.516   .     S
C3     C257    1.393   .     S
C4     O80     1.305   .     A
C4     O79     1.305   .     A
C5     C6      1.396   .     A
C5     H54     1.079   .     S
C5     C507    1.393   1_545 S
C6     C15     1.439   .     S
C6     C7      1.394   .     A
C7     H65     1.084   .     S
C7     C512    1.386   1_545 S
C8     C9      1.399   .     A
C8     H69     1.084   .     S
C8     C259    1.386   .     S
C10    C22     1.475   .     S
C10    N76     1.389   .     A
C10    C95     1.421   .     S
C11    H70     1.083   .     S
C11    N75     1.358   .     A
C11    C178    1.421   1_455 S
C12    C23     1.420   .     A
C12    C777    1.417   .     S
C12    C790    1.425   .     S
C13    N75     1.343   .     A
C13    H71     1.083   .     S
C13    C182    1.416   1_455 S
C14    N76     1.402   .     A
C14    C29     1.510   .     S
C14    C97     1.416   .     S
C15    O81     1.295   .     A
C15    O82     1.298   .     A
C16    O84     1.315   .     A
C16    O83     1.298   .     A
C16    C18     1.478   .     S
C17    C40     1.391   .     A
C17    C792    1.400   1_554 S
C17    H829    1.084   1_554 S
C18    C40     1.398   .     A
C18    C39     1.404   .     A
C19    C20     1.388   .     A
C19    H44     1.083   .     S
C20    C777    1.392   .     S
C20    H802    1.081   .     S
C21    H45     1.078   .     S
C21    C776    1.392   1_554 S
C21    C768    1.417   1_554 S
C22    C28     1.405   .     A
C22    C24     1.402   .     A
C23    C38     1.409   .     A
C24    H48     1.077   .     S
C24    C25     1.398   .     A
C25    C26     1.397   .     A
C25    H49     1.083   .     S
C26    C27     1.397   .     A
C26    H50     1.082   .     S
C27    H51     1.083   .     S
C27    C28     1.398   .     A
C28    H52     1.082   .     S
C29    C30     1.535   .     S
C29    H59     1.096   .     S
C29    H144    1.115   .     S
C30    H57     1.112   .     S
C30    C31     1.531   .     S
C30    H58     1.104   .     S
C31    H56     1.108   .     S
C31    H53     1.110   .     S
C31    H139    1.111   .     S
C32    H68     1.113   .     S
C32    H67     1.111   .     S
C32    C33     1.535   .     S
C33    H66     1.106   .     S
C33    H64     1.110   .     S
C33    C35     1.524   .     S
C34    C39     1.407   .     A
C34    C768    1.425   1_554 S
C34    C792    1.419   1_554 S
C35    H61     1.111   .     S
C35    H62     1.111   .     S
C35    H147    1.110   .     S
C36    C37     1.394   .     A
C36    C773    1.400   .     S
C36    C790    1.419   .     S
C37    C38     1.387   .     A
C37    H72     1.084   .     S
C38    H47     1.081   .     S
C39    H74     1.077   .     S
C40    H43     1.068   .     S
Cu41   Cu42    2.706   .     S
Cu41   O77     1.949   .     S
Cu41   N75     2.034   .     S
Cu41   O83     1.922   .     S
Cu41   O81     1.947   .     S
Cu41   O79     1.942   .     S
Cu42   O80     1.922   .     S
Cu42   O82     1.949   .     S
Cu42   O84     1.942   .     S
Cu42   O78     1.947   .     S
Cu42   N76     2.033   .     S
H46    C776    1.081   1_554 S
H55    C199    1.111   1_455 S
H60    C197    1.115   1_455 S
H63    C203    1.110   1_455 S
H73    C773    1.084   .     S
C85    O161    1.296   .     A
C85    O162    1.295   .     A
C85    C93     1.436   .     S
C86    C88     1.475   .     S
C86    C107    1.417   .     A
C86    C103    1.402   .     A
C87    C93     1.410   .     A
C87    C116    1.516   .     S
C87    C341    1.393   .     S
C88    O164    1.305   .     A
C88    O163    1.305   .     A
C89    C90     1.396   .     A
C89    H138    1.079   .     S
C89    C591    1.393   1_545 S
C90    C99     1.439   .     S
C90    C91     1.394   .     A
C91    H149    1.084   .     S
C91    C596    1.386   1_545 S
C92    C93     1.399   .     A
C92    H153    1.084   .     S
C92    C343    1.386   .     S
C94    C106    1.475   .     S
C94    N160    1.389   .     A
C94    C179    1.421   .     S
C95    H154    1.083   .     S
C95    N159    1.358   .     A
C96    C107    1.420   .     A
C96    C861    1.417   .     S
C96    C874    1.425   .     S
C97    N159    1.343   .     A
C97    H155    1.083   .     S
C98    N160    1.402   .     A
C98    C113    1.510   .     S
C98    C181    1.416   .     S
C99    O165    1.295   .     A
C99    O166    1.298   .     A
C100   O168    1.315   .     A
C100   O167    1.298   .     A
C100   C102    1.478   .     S
C101   C124    1.391   .     A
C101   C876    1.400   1_554 S
C101   H913    1.084   1_554 S
C102   C124    1.398   .     A
C102   C123    1.404   .     A
C103   C104    1.388   .     A
C103   H128    1.083   .     S
C104   C861    1.392   .     S
C104   H886    1.081   .     S
C105   H129    1.078   .     S
C105   C860    1.392   1_554 S
C105   C852    1.417   1_554 S
C106   C112    1.405   .     A
C106   C108    1.402   .     A
C107   C122    1.409   .     A
C108   H132    1.077   .     S
C108   C109    1.398   .     A
C109   C110    1.397   .     A
C109   H133    1.083   .     S
C110   C111    1.397   .     A
C110   H134    1.082   .     S
C111   H135    1.083   .     S
C111   C112    1.398   .     A
C112   H136    1.082   .     S
C113   C114    1.535   .     S
C113   H143    1.096   .     S
C113   H228    1.115   .     S
C114   H141    1.112   .     S
C114   C115    1.531   .     S
C114   H142    1.104   .     S
C115   H140    1.108   .     S
C115   H137    1.110   .     S
C115   H223    1.111   .     S
C116   H152    1.113   .     S
C116   H151    1.111   .     S
C116   C117    1.535   .     S
C117   H150    1.106   .     S
C117   H148    1.110   .     S
C117   C119    1.524   .     S
C118   C123    1.407   .     A
C118   C852    1.425   1_554 S
C118   C876    1.419   1_554 S
C119   H145    1.111   .     S
C119   H146    1.111   .     S
C119   H231    1.110   .     S
C120   C121    1.394   .     A
C120   C857    1.400   .     S
C120   C874    1.419   .     S
C121   C122    1.387   .     A
C121   H156    1.084   .     S
C122   H131    1.081   .     S
C123   H158    1.077   .     S
C124   H127    1.068   .     S
Cu125  Cu126   2.706   .     S
Cu125  O161    1.949   .     S
Cu125  N159    2.034   .     S
Cu125  O167    1.922   .     S
Cu125  O165    1.947   .     S
Cu125  O163    1.942   .     S
Cu126  O164    1.922   .     S
Cu126  O166    1.949   .     S
Cu126  O168    1.942   .     S
Cu126  O162    1.947   .     S
Cu126  N160    2.033   .     S
H130   C860    1.081   1_554 S
H157   C857    1.084   .     S
C169   O245    1.296   .     A
C169   O246    1.295   .     A
C169   C177    1.436   .     S
C170   C172    1.475   .     S
C170   C191    1.417   .     A
C170   C187    1.402   .     A
C171   C177    1.410   .     A
C171   C200    1.516   .     S
C171   C425    1.393   .     S
C172   O248    1.305   .     A
C172   O247    1.305   .     A
C173   C174    1.396   .     A
C173   H222    1.079   .     S
C173   C675    1.393   1_545 S
C174   C183    1.439   .     S
C174   C175    1.394   .     A
C175   H233    1.084   .     S
C175   C680    1.386   1_545 S
C176   C177    1.399   .     A
C176   H237    1.084   .     S
C176   C427    1.386   .     S
C178   C190    1.475   .     S
C178   N244    1.389   .     A
C178   C11     1.421   1_655 S
C179   H238    1.083   .     S
C179   N243    1.358   .     A
C180   C191    1.420   .     A
C180   C945    1.417   .     S
C180   C958    1.425   .     S
C181   N243    1.343   .     A
C181   H239    1.083   .     S
C182   N244    1.402   .     A
C182   C197    1.510   .     S
C182   C13     1.416   1_655 S
C183   O249    1.295   .     A
C183   O250    1.298   .     A
C184   O252    1.315   .     A
C184   O251    1.298   .     A
C184   C186    1.478   .     S
C185   C208    1.391   .     A
C185   C960    1.400   1_554 S
C185   H997    1.084   1_554 S
C186   C208    1.398   .     A
C186   C207    1.404   .     A
C187   C188    1.388   .     A
C187   H212    1.083   .     S
C188   C945    1.392   .     S
C188   H970    1.081   .     S
C189   H213    1.078   .     S
C189   C944    1.392   1_554 S
C189   C936    1.417   1_554 S
C190   C196    1.405   .     A
C190   C192    1.402   .     A
C191   C206    1.409   .     A
C192   H216    1.077   .     S
C192   C193    1.398   .     A
C193   C194    1.397   .     A
C193   H217    1.083   .     S
C194   C195    1.397   .     A
C194   H218    1.082   .     S
C195   H219    1.083   .     S
C195   C196    1.398   .     A
C196   H220    1.082   .     S
C197   C198    1.535   .     S
C197   H227    1.096   .     S
C197   H60     1.115   1_655 S
C198   H225    1.112   .     S
C198   C199    1.531   .     S
C198   H226    1.104   .     S
C199   H224    1.108   .     S
C199   H221    1.110   .     S
C199   H55     1.111   1_655 S
C200   H236    1.113   .     S
C200   H235    1.111   .     S
C200   C201    1.535   .     S
C201   H234    1.106   .     S
C201   H232    1.110   .     S
C201   C203    1.524   .     S
C202   C207    1.407   .     A
C202   C936    1.425   1_554 S
C202   C960    1.419   1_554 S
C203   H229    1.111   .     S
C203   H230    1.111   .     S
C203   H63     1.110   1_655 S
C204   C205    1.394   .     A
C204   C941    1.400   .     S
C204   C958    1.419   .     S
C205   C206    1.387   .     A
C205   H240    1.084   .     S
C206   H215    1.081   .     S
C207   H242    1.077   .     S
C208   H211    1.068   .     S
Cu209  Cu210   2.706   .     S
Cu209  O245    1.949   .     S
Cu209  N243    2.034   .     S
Cu209  O251    1.922   .     S
Cu209  O249    1.947   .     S
Cu209  O247    1.942   .     S
Cu210  O248    1.922   .     S
Cu210  O250    1.949   .     S
Cu210  O252    1.942   .     S
Cu210  O246    1.947   .     S
Cu210  N244    2.033   .     S
H214   C944    1.081   1_554 S
H241   C941    1.084   .     S
C253   O329    1.296   .     A
C253   O330    1.295   .     A
C253   C261    1.436   .     S
C254   C256    1.475   .     S
C254   C275    1.417   .     A
C254   C271    1.402   .     A
C255   C261    1.410   .     A
C255   C284    1.516   .     S
C255   C509    1.393   .     S
C256   O332    1.305   .     A
C256   O331    1.305   .     A
C257   C258    1.396   .     A
C257   H306    1.079   .     S
C258   C267    1.439   .     S
C258   C259    1.394   .     A
C259   H317    1.084   .     S
C260   C261    1.399   .     A
C260   H321    1.084   .     S
C260   C511    1.386   .     S
C262   C274    1.475   .     S
C262   N328    1.389   .     A
C262   C347    1.421   .     S
C263   H322    1.083   .     S
C263   N327    1.358   .     A
C263   C430    1.421   1_455 S
C264   C275    1.420   .     A
C264   C1029   1.417   .     S
C264   C1042   1.425   .     S
C265   N327    1.343   .     A
C265   H323    1.083   .     S
C265   C434    1.416   1_455 S
C266   N328    1.402   .     A
C266   C281    1.510   .     S
C266   C349    1.416   .     S
C267   O333    1.295   .     A
C267   O334    1.298   .     A
C268   O336    1.315   .     A
C268   O335    1.298   .     A
C268   C270    1.478   .     S
C269   C292    1.391   .     A
C269   C1044   1.400   1_554 S
C269   H1081   1.084   1_554 S
C270   C292    1.398   .     A
C270   C291    1.404   .     A
C271   C272    1.388   .     A
C271   H296    1.083   .     S
C272   C1029   1.392   .     S
C272   H1054   1.081   .     S
C273   H297    1.078   .     S
C273   C1028   1.392   1_554 S
C273   C1020   1.417   1_554 S
C274   C280    1.405   .     A
C274   C276    1.402   .     A
C275   C290    1.409   .     A
C276   H300    1.077   .     S
C276   C277    1.398   .     A
C277   C278    1.397   .     A
C277   H301    1.083   .     S
C278   C279    1.397   .     A
C278   H302    1.082   .     S
C279   H303    1.083   .     S
C279   C280    1.398   .     A
C280   H304    1.082   .     S
C281   C282    1.535   .     S
C281   H311    1.096   .     S
C281   H396    1.115   .     S
C282   H309    1.112   .     S
C282   C283    1.531   .     S
C282   H310    1.104   .     S
C283   H308    1.108   .     S
C283   H305    1.110   .     S
C283   H391    1.111   .     S
C284   H320    1.113   .     S
C284   H319    1.111   .     S
C284   C285    1.535   .     S
C285   H318    1.106   .     S
C285   H316    1.110   .     S
C285   C287    1.524   .     S
C286   C291    1.407   .     A
C286   C1020   1.425   1_554 S
C286   C1044   1.419   1_554 S
C287   H313    1.111   .     S
C287   H314    1.111   .     S
C287   H399    1.110   .     S
C288   C289    1.394   .     A
C288   C1025   1.400   .     S
C288   C1042   1.419   .     S
C289   C290    1.387   .     A
C289   H324    1.084   .     S
C290   H299    1.081   .     S
C291   H326    1.077   .     S
C292   H295    1.068   .     S
Cu293  Cu294   2.706   .     S
Cu293  O329    1.949   .     S
Cu293  N327    2.034   .     S
Cu293  O335    1.922   .     S
Cu293  O333    1.947   .     S
Cu293  O331    1.942   .     S
Cu294  O332    1.922   .     S
Cu294  O334    1.949   .     S
Cu294  O336    1.942   .     S
Cu294  O330    1.947   .     S
Cu294  N328    2.033   .     S
H298   C1028   1.081   1_554 S
H307   C451    1.111   1_455 S
H312   C449    1.115   1_455 S
H315   C455    1.110   1_455 S
H325   C1025   1.084   .     S
C337   O413    1.296   .     A
C337   O414    1.295   .     A
C337   C345    1.436   .     S
C338   C340    1.475   .     S
C338   C359    1.417   .     A
C338   C355    1.402   .     A
C339   C345    1.410   .     A
C339   C368    1.516   .     S
C339   C593    1.393   .     S
C340   O416    1.305   .     A
C340   O415    1.305   .     A
C341   C342    1.396   .     A
C341   H390    1.079   .     S
C342   C351    1.439   .     S
C342   C343    1.394   .     A
C343   H401    1.084   .     S
C344   C345    1.399   .     A
C344   H405    1.084   .     S
C344   C595    1.386   .     S
C346   C358    1.475   .     S
C346   N412    1.389   .     A
C346   C431    1.421   .     S
C347   H406    1.083   .     S
C347   N411    1.358   .     A
C348   C359    1.420   .     A
C348   C1113   1.417   .     S
C348   C1126   1.425   .     S
C349   N411    1.343   .     A
C349   H407    1.083   .     S
C350   N412    1.402   .     A
C350   C365    1.510   .     S
C350   C433    1.416   .     S
C351   O417    1.295   .     A
C351   O418    1.298   .     A
C352   O420    1.315   .     A
C352   O419    1.298   .     A
C352   C354    1.478   .     S
C353   C376    1.391   .     A
C353   C1128   1.400   1_554 S
C353   H1165   1.084   1_554 S
C354   C376    1.398   .     A
C354   C375    1.404   .     A
C355   C356    1.388   .     A
C355   H380    1.083   .     S
C356   C1113   1.392   .     S
C356   H1138   1.081   .     S
C357   H381    1.078   .     S
C357   C1112   1.392   1_554 S
C357   C1104   1.417   1_554 S
C358   C364    1.405   .     A
C358   C360    1.402   .     A
C359   C374    1.409   .     A
C360   H384    1.077   .     S
C360   C361    1.398   .     A
C361   C362    1.397   .     A
C361   H385    1.083   .     S
C362   C363    1.397   .     A
C362   H386    1.082   .     S
C363   H387    1.083   .     S
C363   C364    1.398   .     A
C364   H388    1.082   .     S
C365   C366    1.535   .     S
C365   H395    1.096   .     S
C365   H480    1.115   .     S
C366   H393    1.112   .     S
C366   C367    1.531   .     S
C366   H394    1.104   .     S
C367   H392    1.108   .     S
C367   H389    1.110   .     S
C367   H475    1.111   .     S
C368   H404    1.113   .     S
C368   H403    1.111   .     S
C368   C369    1.535   .     S
C369   H402    1.106   .     S
C369   H400    1.110   .     S
C369   C371    1.524   .     S
C370   C375    1.407   .     A
C370   C1104   1.425   1_554 S
C370   C1128   1.419   1_554 S
C371   H397    1.111   .     S
C371   H398    1.111   .     S
C371   H483    1.110   .     S
C372   C373    1.394   .     A
C372   C1109   1.400   .     S
C372   C1126   1.419   .     S
C373   C374    1.387   .     A
C373   H408    1.084   .     S
C374   H383    1.081   .     S
C375   H410    1.077   .     S
C376   H379    1.068   .     S
Cu377  Cu378   2.706   .     S
Cu377  O413    1.949   .     S
Cu377  N411    2.034   .     S
Cu377  O419    1.922   .     S
Cu377  O417    1.947   .     S
Cu377  O415    1.942   .     S
Cu378  O416    1.922   .     S
Cu378  O418    1.949   .     S
Cu378  O420    1.942   .     S
Cu378  O414    1.947   .     S
Cu378  N412    2.033   .     S
H382   C1112   1.081   1_554 S
H409   C1109   1.084   .     S
C421   O497    1.296   .     A
C421   O498    1.295   .     A
C421   C429    1.436   .     S
C422   C424    1.475   .     S
C422   C443    1.417   .     A
C422   C439    1.402   .     A
C423   C429    1.410   .     A
C423   C452    1.516   .     S
C423   C677    1.393   .     S
C424   O500    1.305   .     A
C424   O499    1.305   .     A
C425   C426    1.396   .     A
C425   H474    1.079   .     S
C426   C435    1.439   .     S
C426   C427    1.394   .     A
C427   H485    1.084   .     S
C428   C429    1.399   .     A
C428   H489    1.084   .     S
C428   C679    1.386   .     S
C430   C442    1.475   .     S
C430   N496    1.389   .     A
C430   C263    1.421   1_655 S
C431   H490    1.083   .     S
C431   N495    1.358   .     A
C432   C443    1.420   .     A
C432   C1197   1.417   .     S
C432   C1210   1.425   .     S
C433   N495    1.343   .     A
C433   H491    1.083   .     S
C434   N496    1.402   .     A
C434   C449    1.510   .     S
C434   C265    1.416   1_655 S
C435   O501    1.295   .     A
C435   O502    1.298   .     A
C436   O504    1.315   .     A
C436   O503    1.298   .     A
C436   C438    1.478   .     S
C437   C460    1.391   .     A
C437   C1212   1.400   1_554 S
C437   H1249   1.084   1_554 S
C438   C460    1.398   .     A
C438   C459    1.404   .     A
C439   C440    1.388   .     A
C439   H464    1.083   .     S
C440   C1197   1.392   .     S
C440   H1222   1.081   .     S
C441   H465    1.078   .     S
C441   C1196   1.392   1_554 S
C441   C1188   1.417   1_554 S
C442   C448    1.405   .     A
C442   C444    1.402   .     A
C443   C458    1.409   .     A
C444   H468    1.077   .     S
C444   C445    1.398   .     A
C445   C446    1.397   .     A
C445   H469    1.083   .     S
C446   C447    1.397   .     A
C446   H470    1.082   .     S
C447   H471    1.083   .     S
C447   C448    1.398   .     A
C448   H472    1.082   .     S
C449   C450    1.535   .     S
C449   H479    1.096   .     S
C449   H312    1.115   1_655 S
C450   H477    1.112   .     S
C450   C451    1.531   .     S
C450   H478    1.104   .     S
C451   H476    1.108   .     S
C451   H473    1.110   .     S
C451   H307    1.111   1_655 S
C452   H488    1.113   .     S
C452   H487    1.111   .     S
C452   C453    1.535   .     S
C453   H486    1.106   .     S
C453   H484    1.110   .     S
C453   C455    1.524   .     S
C454   C459    1.407   .     A
C454   C1188   1.425   1_554 S
C454   C1212   1.419   1_554 S
C455   H481    1.111   .     S
C455   H482    1.111   .     S
C455   H315    1.110   1_655 S
C456   C457    1.394   .     A
C456   C1193   1.400   .     S
C456   C1210   1.419   .     S
C457   C458    1.387   .     A
C457   H492    1.084   .     S
C458   H467    1.081   .     S
C459   H494    1.077   .     S
C460   H463    1.068   .     S
Cu461  Cu462   2.706   .     S
Cu461  O497    1.949   .     S
Cu461  N495    2.034   .     S
Cu461  O503    1.922   .     S
Cu461  O501    1.947   .     S
Cu461  O499    1.942   .     S
Cu462  O500    1.922   .     S
Cu462  O502    1.949   .     S
Cu462  O504    1.942   .     S
Cu462  O498    1.947   .     S
Cu462  N496    2.033   .     S
H466   C1196   1.081   1_554 S
H493   C1193   1.084   .     S
C505   O581    1.296   .     A
C505   O582    1.295   .     A
C505   C513    1.436   .     S
C506   C508    1.475   .     S
C506   C527    1.417   .     A
C506   C523    1.402   .     A
C507   C513    1.410   .     A
C507   C536    1.516   .     S
C507   C5      1.393   1_565 S
C508   O584    1.305   .     A
C508   O583    1.305   .     A
C509   C510    1.396   .     A
C509   H558    1.079   .     S
C510   C519    1.439   .     S
C510   C511    1.394   .     A
C511   H569    1.084   .     S
C512   C513    1.399   .     A
C512   H573    1.084   .     S
C512   C7      1.386   1_565 S
C514   C526    1.475   .     S
C514   N580    1.389   .     A
C514   C599    1.421   .     S
C515   H574    1.083   .     S
C515   N579    1.358   .     A
C515   C682    1.421   1_455 S
C516   C527    1.420   .     A
C516   C1281   1.417   .     S
C516   C1294   1.425   .     S
C517   N579    1.343   .     A
C517   H575    1.083   .     S
C517   C686    1.416   1_455 S
C518   N580    1.402   .     A
C518   C533    1.510   .     S
C518   C601    1.416   .     S
C519   O585    1.295   .     A
C519   O586    1.298   .     A
C520   O588    1.315   .     A
C520   O587    1.298   .     A
C520   C522    1.478   .     S
C521   C544    1.391   .     A
C521   C1296   1.400   1_554 S
C521   H1333   1.084   1_554 S
C522   C544    1.398   .     A
C522   C543    1.404   .     A
C523   C524    1.388   .     A
C523   H548    1.083   .     S
C524   C1281   1.392   .     S
C524   H1306   1.081   .     S
C525   H549    1.078   .     S
C525   C1280   1.392   1_554 S
C525   C1272   1.417   1_554 S
C526   C532    1.405   .     A
C526   C528    1.402   .     A
C527   C542    1.409   .     A
C528   H552    1.077   .     S
C528   C529    1.398   .     A
C529   C530    1.397   .     A
C529   H553    1.083   .     S
C530   C531    1.397   .     A
C530   H554    1.082   .     S
C531   H555    1.083   .     S
C531   C532    1.398   .     A
C532   H556    1.082   .     S
C533   C534    1.535   .     S
C533   H563    1.096   .     S
C533   H648    1.115   .     S
C534   H561    1.112   .     S
C534   C535    1.531   .     S
C534   H562    1.104   .     S
C535   H560    1.108   .     S
C535   H557    1.110   .     S
C535   H643    1.111   .     S
C536   H572    1.113   .     S
C536   H571    1.111   .     S
C536   C537    1.535   .     S
C537   H570    1.106   .     S
C537   H568    1.110   .     S
C537   C539    1.524   .     S
C538   C543    1.407   .     A
C538   C1272   1.425   1_554 S
C538   C1296   1.419   1_554 S
C539   H565    1.111   .     S
C539   H566    1.111   .     S
C539   H651    1.110   .     S
C540   C541    1.394   .     A
C540   C1277   1.400   .     S
C540   C1294   1.419   .     S
C541   C542    1.387   .     A
C541   H576    1.084   .     S
C542   H551    1.081   .     S
C543   H578    1.077   .     S
C544   H547    1.068   .     S
Cu545  Cu546   2.706   .     S
Cu545  O581    1.949   .     S
Cu545  N579    2.034   .     S
Cu545  O587    1.922   .     S
Cu545  O585    1.947   .     S
Cu545  O583    1.942   .     S
Cu546  O584    1.922   .     S
Cu546  O586    1.949   .     S
Cu546  O588    1.942   .     S
Cu546  O582    1.947   .     S
Cu546  N580    2.033   .     S
H550   C1280   1.081   1_554 S
H559   C703    1.111   1_455 S
H564   C701    1.115   1_455 S
H567   C707    1.110   1_455 S
H577   C1277   1.084   .     S
C589   O665    1.296   .     A
C589   O666    1.295   .     A
C589   C597    1.436   .     S
C590   C592    1.475   .     S
C590   C611    1.417   .     A
C590   C607    1.402   .     A
C591   C597    1.410   .     A
C591   C620    1.516   .     S
C591   C89     1.393   1_565 S
C592   O668    1.305   .     A
C592   O667    1.305   .     A
C593   C594    1.396   .     A
C593   H642    1.079   .     S
C594   C603    1.439   .     S
C594   C595    1.394   .     A
C595   H653    1.084   .     S
C596   C597    1.399   .     A
C596   H657    1.084   .     S
C596   C91     1.386   1_565 S
C598   C610    1.475   .     S
C598   N664    1.389   .     A
C598   C683    1.421   .     S
C599   H658    1.083   .     S
C599   N663    1.358   .     A
C600   C611    1.420   .     A
C600   C1365   1.417   .     S
C600   C1378   1.425   .     S
C601   N663    1.343   .     A
C601   H659    1.083   .     S
C602   N664    1.402   .     A
C602   C617    1.510   .     S
C602   C685    1.416   .     S
C603   O669    1.295   .     A
C603   O670    1.298   .     A
C604   O672    1.315   .     A
C604   O671    1.298   .     A
C604   C606    1.478   .     S
C605   C628    1.391   .     A
C605   C1380   1.400   1_554 S
C605   H1417   1.084   1_554 S
C606   C628    1.398   .     A
C606   C627    1.404   .     A
C607   C608    1.388   .     A
C607   H632    1.083   .     S
C608   C1365   1.392   .     S
C608   H1390   1.081   .     S
C609   H633    1.078   .     S
C609   C1364   1.392   1_554 S
C609   C1356   1.417   1_554 S
C610   C616    1.405   .     A
C610   C612    1.402   .     A
C611   C626    1.409   .     A
C612   H636    1.077   .     S
C612   C613    1.398   .     A
C613   C614    1.397   .     A
C613   H637    1.083   .     S
C614   C615    1.397   .     A
C614   H638    1.082   .     S
C615   H639    1.083   .     S
C615   C616    1.398   .     A
C616   H640    1.082   .     S
C617   C618    1.535   .     S
C617   H647    1.096   .     S
C617   H732    1.115   .     S
C618   H645    1.112   .     S
C618   C619    1.531   .     S
C618   H646    1.104   .     S
C619   H644    1.108   .     S
C619   H641    1.110   .     S
C619   H727    1.111   .     S
C620   H656    1.113   .     S
C620   H655    1.111   .     S
C620   C621    1.535   .     S
C621   H654    1.106   .     S
C621   H652    1.110   .     S
C621   C623    1.524   .     S
C622   C627    1.407   .     A
C622   C1356   1.425   1_554 S
C622   C1380   1.419   1_554 S
C623   H649    1.111   .     S
C623   H650    1.111   .     S
C623   H735    1.110   .     S
C624   C625    1.394   .     A
C624   C1361   1.400   .     S
C624   C1378   1.419   .     S
C625   C626    1.387   .     A
C625   H660    1.084   .     S
C626   H635    1.081   .     S
C627   H662    1.077   .     S
C628   H631    1.068   .     S
Cu629  Cu630   2.706   .     S
Cu629  O665    1.949   .     S
Cu629  N663    2.034   .     S
Cu629  O671    1.922   .     S
Cu629  O669    1.947   .     S
Cu629  O667    1.942   .     S
Cu630  O668    1.922   .     S
Cu630  O670    1.949   .     S
Cu630  O672    1.942   .     S
Cu630  O666    1.947   .     S
Cu630  N664    2.033   .     S
H634   C1364   1.081   1_554 S
H661   C1361   1.084   .     S
C673   O749    1.296   .     A
C673   O750    1.295   .     A
C673   C681    1.436   .     S
C674   C676    1.475   .     S
C674   C695    1.417   .     A
C674   C691    1.402   .     A
C675   C681    1.410   .     A
C675   C704    1.516   .     S
C675   C173    1.393   1_565 S
C676   O752    1.305   .     A
C676   O751    1.305   .     A
C677   C678    1.396   .     A
C677   H726    1.079   .     S
C678   C687    1.439   .     S
C678   C679    1.394   .     A
C679   H737    1.084   .     S
C680   C681    1.399   .     A
C680   H741    1.084   .     S
C680   C175    1.386   1_565 S
C682   C694    1.475   .     S
C682   N748    1.389   .     A
C682   C515    1.421   1_655 S
C683   H742    1.083   .     S
C683   N747    1.358   .     A
C684   C695    1.420   .     A
C684   C1449   1.417   .     S
C684   C1462   1.425   .     S
C685   N747    1.343   .     A
C685   H743    1.083   .     S
C686   N748    1.402   .     A
C686   C701    1.510   .     S
C686   C517    1.416   1_655 S
C687   O753    1.295   .     A
C687   O754    1.298   .     A
C688   O756    1.315   .     A
C688   O755    1.298   .     A
C688   C690    1.478   .     S
C689   C712    1.391   .     A
C689   C1464   1.400   1_554 S
C689   H1501   1.084   1_554 S
C690   C712    1.398   .     A
C690   C711    1.404   .     A
C691   C692    1.388   .     A
C691   H716    1.083   .     S
C692   C1449   1.392   .     S
C692   H1474   1.081   .     S
C693   H717    1.078   .     S
C693   C1448   1.392   1_554 S
C693   C1440   1.417   1_554 S
C694   C700    1.405   .     A
C694   C696    1.402   .     A
C695   C710    1.409   .     A
C696   H720    1.077   .     S
C696   C697    1.398   .     A
C697   C698    1.397   .     A
C697   H721    1.083   .     S
C698   C699    1.397   .     A
C698   H722    1.082   .     S
C699   H723    1.083   .     S
C699   C700    1.398   .     A
C700   H724    1.082   .     S
C701   C702    1.535   .     S
C701   H731    1.096   .     S
C701   H564    1.115   1_655 S
C702   H729    1.112   .     S
C702   C703    1.531   .     S
C702   H730    1.104   .     S
C703   H728    1.108   .     S
C703   H725    1.110   .     S
C703   H559    1.111   1_655 S
C704   H740    1.113   .     S
C704   H739    1.111   .     S
C704   C705    1.535   .     S
C705   H738    1.106   .     S
C705   H736    1.110   .     S
C705   C707    1.524   .     S
C706   C711    1.407   .     A
C706   C1440   1.425   1_554 S
C706   C1464   1.419   1_554 S
C707   H733    1.111   .     S
C707   H734    1.111   .     S
C707   H567    1.110   1_655 S
C708   C709    1.394   .     A
C708   C1445   1.400   .     S
C708   C1462   1.419   .     S
C709   C710    1.387   .     A
C709   H744    1.084   .     S
C710   H719    1.081   .     S
C711   H746    1.077   .     S
C712   H715    1.068   .     S
Cu713  Cu714   2.706   .     S
Cu713  O749    1.949   .     S
Cu713  N747    2.034   .     S
Cu713  O755    1.922   .     S
Cu713  O753    1.947   .     S
Cu713  O751    1.942   .     S
Cu714  O752    1.922   .     S
Cu714  O754    1.949   .     S
Cu714  O756    1.942   .     S
Cu714  O750    1.947   .     S
Cu714  N748    2.033   .     S
H718   C1448   1.081   1_554 S
H745   C1445   1.084   .     S
C757   O833    1.296   .     A
C757   O834    1.295   .     A
C757   C765    1.436   .     S
C758   C760    1.475   .     S
C758   C779    1.417   .     A
C758   C775    1.402   .     A
C759   C765    1.410   .     A
C759   C788    1.516   .     S
C759   C1013   1.393   .     S
C760   O836    1.305   .     A
C760   O835    1.305   .     A
C761   C762    1.396   .     A
C761   H810    1.079   .     S
C761   C1263   1.393   1_545 S
C762   C771    1.439   .     S
C762   C763    1.394   .     A
C763   H821    1.084   .     S
C763   C1268   1.386   1_545 S
C764   C765    1.399   .     A
C764   H825    1.084   .     S
C764   C1015   1.386   .     S
C766   C778    1.475   .     S
C766   N832    1.389   .     A
C766   C851    1.421   .     S
C767   H826    1.083   .     S
C767   N831    1.358   .     A
C767   C934    1.421   1_455 S
C768   C779    1.420   .     A
C768   C21     1.417   1_556 S
C768   C34     1.425   1_556 S
C769   N831    1.343   .     A
C769   H827    1.083   .     S
C769   C938    1.416   1_455 S
C770   N832    1.402   .     A
C770   C785    1.510   .     S
C770   C853    1.416   .     S
C771   O837    1.295   .     A
C771   O838    1.298   .     A
C772   O840    1.315   .     A
C772   O839    1.298   .     A
C772   C774    1.478   .     S
C773   C796    1.391   .     A
C774   C796    1.398   .     A
C774   C795    1.404   .     A
C775   C776    1.388   .     A
C775   H800    1.083   .     S
C776   C21     1.392   1_556 S
C776   H46     1.081   1_556 S
C777   H801    1.078   .     S
C778   C784    1.405   .     A
C778   C780    1.402   .     A
C779   C794    1.409   .     A
C780   H804    1.077   .     S
C780   C781    1.398   .     A
C781   C782    1.397   .     A
C781   H805    1.083   .     S
C782   C783    1.397   .     A
C782   H806    1.082   .     S
C783   H807    1.083   .     S
C783   C784    1.398   .     A
C784   H808    1.082   .     S
C785   C786    1.535   .     S
C785   H815    1.096   .     S
C785   H900    1.115   .     S
C786   H813    1.112   .     S
C786   C787    1.531   .     S
C786   H814    1.104   .     S
C787   H812    1.108   .     S
C787   H809    1.110   .     S
C787   H895    1.111   .     S
C788   H824    1.113   .     S
C788   H823    1.111   .     S
C788   C789    1.535   .     S
C789   H822    1.106   .     S
C789   H820    1.110   .     S
C789   C791    1.524   .     S
C790   C795    1.407   .     A
C791   H817    1.111   .     S
C791   H818    1.111   .     S
C791   H903    1.110   .     S
C792   C793    1.394   .     A
C792   C17     1.400   1_556 S
C792   C34     1.419   1_556 S
C793   C794    1.387   .     A
C793   H828    1.084   .     S
C794   H803    1.081   .     S
C795   H830    1.077   .     S
C796   H799    1.068   .     S
Cu797  Cu798   2.706   .     S
Cu797  O833    1.949   .     S
Cu797  N831    2.034   .     S
Cu797  O839    1.922   .     S
Cu797  O837    1.947   .     S
Cu797  O835    1.942   .     S
Cu798  O836    1.922   .     S
Cu798  O838    1.949   .     S
Cu798  O840    1.942   .     S
Cu798  O834    1.947   .     S
Cu798  N832    2.033   .     S
H811   C955    1.111   1_455 S
H816   C953    1.115   1_455 S
H819   C959    1.110   1_455 S
H829   C17     1.084   1_556 S
C841   O917    1.296   .     A
C841   O918    1.295   .     A
C841   C849    1.436   .     S
C842   C844    1.475   .     S
C842   C863    1.417   .     A
C842   C859    1.402   .     A
C843   C849    1.410   .     A
C843   C872    1.516   .     S
C843   C1097   1.393   .     S
C844   O920    1.305   .     A
C844   O919    1.305   .     A
C845   C846    1.396   .     A
C845   H894    1.079   .     S
C845   C1347   1.393   1_545 S
C846   C855    1.439   .     S
C846   C847    1.394   .     A
C847   H905    1.084   .     S
C847   C1352   1.386   1_545 S
C848   C849    1.399   .     A
C848   H909    1.084   .     S
C848   C1099   1.386   .     S
C850   C862    1.475   .     S
C850   N916    1.389   .     A
C850   C935    1.421   .     S
C851   H910    1.083   .     S
C851   N915    1.358   .     A
C852   C863    1.420   .     A
C852   C105    1.417   1_556 S
C852   C118    1.425   1_556 S
C853   N915    1.343   .     A
C853   H911    1.083   .     S
C854   N916    1.402   .     A
C854   C869    1.510   .     S
C854   C937    1.416   .     S
C855   O921    1.295   .     A
C855   O922    1.298   .     A
C856   O924    1.315   .     A
C856   O923    1.298   .     A
C856   C858    1.478   .     S
C857   C880    1.391   .     A
C858   C880    1.398   .     A
C858   C879    1.404   .     A
C859   C860    1.388   .     A
C859   H884    1.083   .     S
C860   C105    1.392   1_556 S
C860   H130    1.081   1_556 S
C861   H885    1.078   .     S
C862   C868    1.405   .     A
C862   C864    1.402   .     A
C863   C878    1.409   .     A
C864   H888    1.077   .     S
C864   C865    1.398   .     A
C865   C866    1.397   .     A
C865   H889    1.083   .     S
C866   C867    1.397   .     A
C866   H890    1.082   .     S
C867   H891    1.083   .     S
C867   C868    1.398   .     A
C868   H892    1.082   .     S
C869   C870    1.535   .     S
C869   H899    1.096   .     S
C869   H984    1.115   .     S
C870   H897    1.112   .     S
C870   C871    1.531   .     S
C870   H898    1.104   .     S
C871   H896    1.108   .     S
C871   H893    1.110   .     S
C871   H979    1.111   .     S
C872   H908    1.113   .     S
C872   H907    1.111   .     S
C872   C873    1.535   .     S
C873   H906    1.106   .     S
C873   H904    1.110   .     S
C873   C875    1.524   .     S
C874   C879    1.407   .     A
C875   H901    1.111   .     S
C875   H902    1.111   .     S
C875   H987    1.110   .     S
C876   C877    1.394   .     A
C876   C101    1.400   1_556 S
C876   C118    1.419   1_556 S
C877   C878    1.387   .     A
C877   H912    1.084   .     S
C878   H887    1.081   .     S
C879   H914    1.077   .     S
C880   H883    1.068   .     S
Cu881  Cu882   2.706   .     S
Cu881  O917    1.949   .     S
Cu881  N915    2.034   .     S
Cu881  O923    1.922   .     S
Cu881  O921    1.947   .     S
Cu881  O919    1.942   .     S
Cu882  O920    1.922   .     S
Cu882  O922    1.949   .     S
Cu882  O924    1.942   .     S
Cu882  O918    1.947   .     S
Cu882  N916    2.033   .     S
H913   C101    1.084   1_556 S
C925   O1001   1.296   .     A
C925   O1002   1.295   .     A
C925   C933    1.436   .     S
C926   C928    1.475   .     S
C926   C947    1.417   .     A
C926   C943    1.402   .     A
C927   C933    1.410   .     A
C927   C956    1.516   .     S
C927   C1181   1.393   .     S
C928   O1004   1.305   .     A
C928   O1003   1.305   .     A
C929   C930    1.396   .     A
C929   H978    1.079   .     S
C929   C1431   1.393   1_545 S
C930   C939    1.439   .     S
C930   C931    1.394   .     A
C931   H989    1.084   .     S
C931   C1436   1.386   1_545 S
C932   C933    1.399   .     A
C932   H993    1.084   .     S
C932   C1183   1.386   .     S
C934   C946    1.475   .     S
C934   N1000   1.389   .     A
C934   C767    1.421   1_655 S
C935   H994    1.083   .     S
C935   N999    1.358   .     A
C936   C947    1.420   .     A
C936   C189    1.417   1_556 S
C936   C202    1.425   1_556 S
C937   N999    1.343   .     A
C937   H995    1.083   .     S
C938   N1000   1.402   .     A
C938   C953    1.510   .     S
C938   C769    1.416   1_655 S
C939   O1005   1.295   .     A
C939   O1006   1.298   .     A
C940   O1008   1.315   .     A
C940   O1007   1.298   .     A
C940   C942    1.478   .     S
C941   C964    1.391   .     A
C942   C964    1.398   .     A
C942   C963    1.404   .     A
C943   C944    1.388   .     A
C943   H968    1.083   .     S
C944   C189    1.392   1_556 S
C944   H214    1.081   1_556 S
C945   H969    1.078   .     S
C946   C952    1.405   .     A
C946   C948    1.402   .     A
C947   C962    1.409   .     A
C948   H972    1.077   .     S
C948   C949    1.398   .     A
C949   C950    1.397   .     A
C949   H973    1.083   .     S
C950   C951    1.397   .     A
C950   H974    1.082   .     S
C951   H975    1.083   .     S
C951   C952    1.398   .     A
C952   H976    1.082   .     S
C953   C954    1.535   .     S
C953   H983    1.096   .     S
C953   H816    1.115   1_655 S
C954   H981    1.112   .     S
C954   C955    1.531   .     S
C954   H982    1.104   .     S
C955   H980    1.108   .     S
C955   H977    1.110   .     S
C955   H811    1.111   1_655 S
C956   H992    1.113   .     S
C956   H991    1.111   .     S
C956   C957    1.535   .     S
C957   H990    1.106   .     S
C957   H988    1.110   .     S
C957   C959    1.524   .     S
C958   C963    1.407   .     A
C959   H985    1.111   .     S
C959   H986    1.111   .     S
C959   H819    1.110   1_655 S
C960   C961    1.394   .     A
C960   C185    1.400   1_556 S
C960   C202    1.419   1_556 S
C961   C962    1.387   .     A
C961   H996    1.084   .     S
C962   H971    1.081   .     S
C963   H998    1.077   .     S
C964   H967    1.068   .     S
Cu965  Cu966   2.706   .     S
Cu965  O1001   1.949   .     S
Cu965  N999    2.034   .     S
Cu965  O1007   1.922   .     S
Cu965  O1005   1.947   .     S
Cu965  O1003   1.942   .     S
Cu966  O1004   1.922   .     S
Cu966  O1006   1.949   .     S
Cu966  O1008   1.942   .     S
Cu966  O1002   1.947   .     S
Cu966  N1000   2.033   .     S
H997   C185    1.084   1_556 S
C1009  O1085   1.296   .     A
C1009  O1086   1.295   .     A
C1009  C1017   1.436   .     S
C1010  C1012   1.475   .     S
C1010  C1031   1.417   .     A
C1010  C1027   1.402   .     A
C1011  C1017   1.410   .     A
C1011  C1040   1.516   .     S
C1011  C1265   1.393   .     S
C1012  O1088   1.305   .     A
C1012  O1087   1.305   .     A
C1013  C1014   1.396   .     A
C1013  H1062   1.079   .     S
C1014  C1023   1.439   .     S
C1014  C1015   1.394   .     A
C1015  H1073   1.084   .     S
C1016  C1017   1.399   .     A
C1016  H1077   1.084   .     S
C1016  C1267   1.386   .     S
C1018  C1030   1.475   .     S
C1018  N1084   1.389   .     A
C1018  C1103   1.421   .     S
C1019  H1078   1.083   .     S
C1019  N1083   1.358   .     A
C1019  C1186   1.421   1_455 S
C1020  C1031   1.420   .     A
C1020  C273    1.417   1_556 S
C1020  C286    1.425   1_556 S
C1021  N1083   1.343   .     A
C1021  H1079   1.083   .     S
C1021  C1190   1.416   1_455 S
C1022  N1084   1.402   .     A
C1022  C1037   1.510   .     S
C1022  C1105   1.416   .     S
C1023  O1089   1.295   .     A
C1023  O1090   1.298   .     A
C1024  O1092   1.315   .     A
C1024  O1091   1.298   .     A
C1024  C1026   1.478   .     S
C1025  C1048   1.391   .     A
C1026  C1048   1.398   .     A
C1026  C1047   1.404   .     A
C1027  C1028   1.388   .     A
C1027  H1052   1.083   .     S
C1028  C273    1.392   1_556 S
C1028  H298    1.081   1_556 S
C1029  H1053   1.078   .     S
C1030  C1036   1.405   .     A
C1030  C1032   1.402   .     A
C1031  C1046   1.409   .     A
C1032  H1056   1.077   .     S
C1032  C1033   1.398   .     A
C1033  C1034   1.397   .     A
C1033  H1057   1.083   .     S
C1034  C1035   1.397   .     A
C1034  H1058   1.082   .     S
C1035  H1059   1.083   .     S
C1035  C1036   1.398   .     A
C1036  H1060   1.082   .     S
C1037  C1038   1.535   .     S
C1037  H1067   1.096   .     S
C1037  H1152   1.115   .     S
C1038  H1065   1.112   .     S
C1038  C1039   1.531   .     S
C1038  H1066   1.104   .     S
C1039  H1064   1.108   .     S
C1039  H1061   1.110   .     S
C1039  H1147   1.111   .     S
C1040  H1076   1.113   .     S
C1040  H1075   1.111   .     S
C1040  C1041   1.535   .     S
C1041  H1074   1.106   .     S
C1041  H1072   1.110   .     S
C1041  C1043   1.524   .     S
C1042  C1047   1.407   .     A
C1043  H1069   1.111   .     S
C1043  H1070   1.111   .     S
C1043  H1155   1.110   .     S
C1044  C1045   1.394   .     A
C1044  C269    1.400   1_556 S
C1044  C286    1.419   1_556 S
C1045  C1046   1.387   .     A
C1045  H1080   1.084   .     S
C1046  H1055   1.081   .     S
C1047  H1082   1.077   .     S
C1048  H1051   1.068   .     S
Cu1049 Cu1050  2.706   .     S
Cu1049 O1085   1.949   .     S
Cu1049 N1083   2.034   .     S
Cu1049 O1091   1.922   .     S
Cu1049 O1089   1.947   .     S
Cu1049 O1087   1.942   .     S
Cu1050 O1088   1.922   .     S
Cu1050 O1090   1.949   .     S
Cu1050 O1092   1.942   .     S
Cu1050 O1086   1.947   .     S
Cu1050 N1084   2.033   .     S
H1063  C1207   1.111   1_455 S
H1068  C1205   1.115   1_455 S
H1071  C1211   1.110   1_455 S
H1081  C269    1.084   1_556 S
C1093  O1169   1.296   .     A
C1093  O1170   1.295   .     A
C1093  C1101   1.436   .     S
C1094  C1096   1.475   .     S
C1094  C1115   1.417   .     A
C1094  C1111   1.402   .     A
C1095  C1101   1.410   .     A
C1095  C1124   1.516   .     S
C1095  C1349   1.393   .     S
C1096  O1172   1.305   .     A
C1096  O1171   1.305   .     A
C1097  C1098   1.396   .     A
C1097  H1146   1.079   .     S
C1098  C1107   1.439   .     S
C1098  C1099   1.394   .     A
C1099  H1157   1.084   .     S
C1100  C1101   1.399   .     A
C1100  H1161   1.084   .     S
C1100  C1351   1.386   .     S
C1102  C1114   1.475   .     S
C1102  N1168   1.389   .     A
C1102  C1187   1.421   .     S
C1103  H1162   1.083   .     S
C1103  N1167   1.358   .     A
C1104  C1115   1.420   .     A
C1104  C357    1.417   1_556 S
C1104  C370    1.425   1_556 S
C1105  N1167   1.343   .     A
C1105  H1163   1.083   .     S
C1106  N1168   1.402   .     A
C1106  C1121   1.510   .     S
C1106  C1189   1.416   .     S
C1107  O1173   1.295   .     A
C1107  O1174   1.298   .     A
C1108  O1176   1.315   .     A
C1108  O1175   1.298   .     A
C1108  C1110   1.478   .     S
C1109  C1132   1.391   .     A
C1110  C1132   1.398   .     A
C1110  C1131   1.404   .     A
C1111  C1112   1.388   .     A
C1111  H1136   1.083   .     S
C1112  C357    1.392   1_556 S
C1112  H382    1.081   1_556 S
C1113  H1137   1.078   .     S
C1114  C1120   1.405   .     A
C1114  C1116   1.402   .     A
C1115  C1130   1.409   .     A
C1116  H1140   1.077   .     S
C1116  C1117   1.398   .     A
C1117  C1118   1.397   .     A
C1117  H1141   1.083   .     S
C1118  C1119   1.397   .     A
C1118  H1142   1.082   .     S
C1119  H1143   1.083   .     S
C1119  C1120   1.398   .     A
C1120  H1144   1.082   .     S
C1121  C1122   1.535   .     S
C1121  H1151   1.096   .     S
C1121  H1236   1.115   .     S
C1122  H1149   1.112   .     S
C1122  C1123   1.531   .     S
C1122  H1150   1.104   .     S
C1123  H1148   1.108   .     S
C1123  H1145   1.110   .     S
C1123  H1231   1.111   .     S
C1124  H1160   1.113   .     S
C1124  H1159   1.111   .     S
C1124  C1125   1.535   .     S
C1125  H1158   1.106   .     S
C1125  H1156   1.110   .     S
C1125  C1127   1.524   .     S
C1126  C1131   1.407   .     A
C1127  H1153   1.111   .     S
C1127  H1154   1.111   .     S
C1127  H1239   1.110   .     S
C1128  C1129   1.394   .     A
C1128  C353    1.400   1_556 S
C1128  C370    1.419   1_556 S
C1129  C1130   1.387   .     A
C1129  H1164   1.084   .     S
C1130  H1139   1.081   .     S
C1131  H1166   1.077   .     S
C1132  H1135   1.068   .     S
Cu1133 Cu1134  2.706   .     S
Cu1133 O1169   1.949   .     S
Cu1133 N1167   2.034   .     S
Cu1133 O1175   1.922   .     S
Cu1133 O1173   1.947   .     S
Cu1133 O1171   1.942   .     S
Cu1134 O1172   1.922   .     S
Cu1134 O1174   1.949   .     S
Cu1134 O1176   1.942   .     S
Cu1134 O1170   1.947   .     S
Cu1134 N1168   2.033   .     S
H1165  C353    1.084   1_556 S
C1177  O1253   1.296   .     A
C1177  O1254   1.295   .     A
C1177  C1185   1.436   .     S
C1178  C1180   1.475   .     S
C1178  C1199   1.417   .     A
C1178  C1195   1.402   .     A
C1179  C1185   1.410   .     A
C1179  C1208   1.516   .     S
C1179  C1433   1.393   .     S
C1180  O1256   1.305   .     A
C1180  O1255   1.305   .     A
C1181  C1182   1.396   .     A
C1181  H1230   1.079   .     S
C1182  C1191   1.439   .     S
C1182  C1183   1.394   .     A
C1183  H1241   1.084   .     S
C1184  C1185   1.399   .     A
C1184  H1245   1.084   .     S
C1184  C1435   1.386   .     S
C1186  C1198   1.475   .     S
C1186  N1252   1.389   .     A
C1186  C1019   1.421   1_655 S
C1187  H1246   1.083   .     S
C1187  N1251   1.358   .     A
C1188  C1199   1.420   .     A
C1188  C441    1.417   1_556 S
C1188  C454    1.425   1_556 S
C1189  N1251   1.343   .     A
C1189  H1247   1.083   .     S
C1190  N1252   1.402   .     A
C1190  C1205   1.510   .     S
C1190  C1021   1.416   1_655 S
C1191  O1257   1.295   .     A
C1191  O1258   1.298   .     A
C1192  O1260   1.315   .     A
C1192  O1259   1.298   .     A
C1192  C1194   1.478   .     S
C1193  C1216   1.391   .     A
C1194  C1216   1.398   .     A
C1194  C1215   1.404   .     A
C1195  C1196   1.388   .     A
C1195  H1220   1.083   .     S
C1196  C441    1.392   1_556 S
C1196  H466    1.081   1_556 S
C1197  H1221   1.078   .     S
C1198  C1204   1.405   .     A
C1198  C1200   1.402   .     A
C1199  C1214   1.409   .     A
C1200  H1224   1.077   .     S
C1200  C1201   1.398   .     A
C1201  C1202   1.397   .     A
C1201  H1225   1.083   .     S
C1202  C1203   1.397   .     A
C1202  H1226   1.082   .     S
C1203  H1227   1.083   .     S
C1203  C1204   1.398   .     A
C1204  H1228   1.082   .     S
C1205  C1206   1.535   .     S
C1205  H1235   1.096   .     S
C1205  H1068   1.115   1_655 S
C1206  H1233   1.112   .     S
C1206  C1207   1.531   .     S
C1206  H1234   1.104   .     S
C1207  H1232   1.108   .     S
C1207  H1229   1.110   .     S
C1207  H1063   1.111   1_655 S
C1208  H1244   1.113   .     S
C1208  H1243   1.111   .     S
C1208  C1209   1.535   .     S
C1209  H1242   1.106   .     S
C1209  H1240   1.110   .     S
C1209  C1211   1.524   .     S
C1210  C1215   1.407   .     A
C1211  H1237   1.111   .     S
C1211  H1238   1.111   .     S
C1211  H1071   1.110   1_655 S
C1212  C1213   1.394   .     A
C1212  C437    1.400   1_556 S
C1212  C454    1.419   1_556 S
C1213  C1214   1.387   .     A
C1213  H1248   1.084   .     S
C1214  H1223   1.081   .     S
C1215  H1250   1.077   .     S
C1216  H1219   1.068   .     S
Cu1217 Cu1218  2.706   .     S
Cu1217 O1253   1.949   .     S
Cu1217 N1251   2.034   .     S
Cu1217 O1259   1.922   .     S
Cu1217 O1257   1.947   .     S
Cu1217 O1255   1.942   .     S
Cu1218 O1256   1.922   .     S
Cu1218 O1258   1.949   .     S
Cu1218 O1260   1.942   .     S
Cu1218 O1254   1.947   .     S
Cu1218 N1252   2.033   .     S
H1249  C437    1.084   1_556 S
C1261  O1337   1.296   .     A
C1261  O1338   1.295   .     A
C1261  C1269   1.436   .     S
C1262  C1264   1.475   .     S
C1262  C1283   1.417   .     A
C1262  C1279   1.402   .     A
C1263  C1269   1.410   .     A
C1263  C1292   1.516   .     S
C1263  C761    1.393   1_565 S
C1264  O1340   1.305   .     A
C1264  O1339   1.305   .     A
C1265  C1266   1.396   .     A
C1265  H1314   1.079   .     S
C1266  C1275   1.439   .     S
C1266  C1267   1.394   .     A
C1267  H1325   1.084   .     S
C1268  C1269   1.399   .     A
C1268  H1329   1.084   .     S
C1268  C763    1.386   1_565 S
C1270  C1282   1.475   .     S
C1270  N1336   1.389   .     A
C1270  C1355   1.421   .     S
C1271  H1330   1.083   .     S
C1271  N1335   1.358   .     A
C1271  C1438   1.421   1_455 S
C1272  C1283   1.420   .     A
C1272  C525    1.417   1_556 S
C1272  C538    1.425   1_556 S
C1273  N1335   1.343   .     A
C1273  H1331   1.083   .     S
C1273  C1442   1.416   1_455 S
C1274  N1336   1.402   .     A
C1274  C1289   1.510   .     S
C1274  C1357   1.416   .     S
C1275  O1341   1.295   .     A
C1275  O1342   1.298   .     A
C1276  O1344   1.315   .     A
C1276  O1343   1.298   .     A
C1276  C1278   1.478   .     S
C1277  C1300   1.391   .     A
C1278  C1300   1.398   .     A
C1278  C1299   1.404   .     A
C1279  C1280   1.388   .     A
C1279  H1304   1.083   .     S
C1280  C525    1.392   1_556 S
C1280  H550    1.081   1_556 S
C1281  H1305   1.078   .     S
C1282  C1288   1.405   .     A
C1282  C1284   1.402   .     A
C1283  C1298   1.409   .     A
C1284  H1308   1.077   .     S
C1284  C1285   1.398   .     A
C1285  C1286   1.397   .     A
C1285  H1309   1.083   .     S
C1286  C1287   1.397   .     A
C1286  H1310   1.082   .     S
C1287  H1311   1.083   .     S
C1287  C1288   1.398   .     A
C1288  H1312   1.082   .     S
C1289  C1290   1.535   .     S
C1289  H1319   1.096   .     S
C1289  H1404   1.115   .     S
C1290  H1317   1.112   .     S
C1290  C1291   1.531   .     S
C1290  H1318   1.104   .     S
C1291  H1316   1.108   .     S
C1291  H1313   1.110   .     S
C1291  H1399   1.111   .     S
C1292  H1328   1.113   .     S
C1292  H1327   1.111   .     S
C1292  C1293   1.535   .     S
C1293  H1326   1.106   .     S
C1293  H1324   1.110   .     S
C1293  C1295   1.524   .     S
C1294  C1299   1.407   .     A
C1295  H1321   1.111   .     S
C1295  H1322   1.111   .     S
C1295  H1407   1.110   .     S
C1296  C1297   1.394   .     A
C1296  C521    1.400   1_556 S
C1296  C538    1.419   1_556 S
C1297  C1298   1.387   .     A
C1297  H1332   1.084   .     S
C1298  H1307   1.081   .     S
C1299  H1334   1.077   .     S
C1300  H1303   1.068   .     S
Cu1301 Cu1302  2.706   .     S
Cu1301 O1337   1.949   .     S
Cu1301 N1335   2.034   .     S
Cu1301 O1343   1.922   .     S
Cu1301 O1341   1.947   .     S
Cu1301 O1339   1.942   .     S
Cu1302 O1340   1.922   .     S
Cu1302 O1342   1.949   .     S
Cu1302 O1344   1.942   .     S
Cu1302 O1338   1.947   .     S
Cu1302 N1336   2.033   .     S
H1315  C1459   1.111   1_455 S
H1320  C1457   1.115   1_455 S
H1323  C1463   1.110   1_455 S
H1333  C521    1.084   1_556 S
C1345  O1421   1.296   .     A
C1345  O1422   1.295   .     A
C1345  C1353   1.436   .     S
C1346  C1348   1.475   .     S
C1346  C1367   1.417   .     A
C1346  C1363   1.402   .     A
C1347  C1353   1.410   .     A
C1347  C1376   1.516   .     S
C1347  C845    1.393   1_565 S
C1348  O1424   1.305   .     A
C1348  O1423   1.305   .     A
C1349  C1350   1.396   .     A
C1349  H1398   1.079   .     S
C1350  C1359   1.439   .     S
C1350  C1351   1.394   .     A
C1351  H1409   1.084   .     S
C1352  C1353   1.399   .     A
C1352  H1413   1.084   .     S
C1352  C847    1.386   1_565 S
C1354  C1366   1.475   .     S
C1354  N1420   1.389   .     A
C1354  C1439   1.421   .     S
C1355  H1414   1.083   .     S
C1355  N1419   1.358   .     A
C1356  C1367   1.420   .     A
C1356  C609    1.417   1_556 S
C1356  C622    1.425   1_556 S
C1357  N1419   1.343   .     A
C1357  H1415   1.083   .     S
C1358  N1420   1.402   .     A
C1358  C1373   1.510   .     S
C1358  C1441   1.416   .     S
C1359  O1425   1.295   .     A
C1359  O1426   1.298   .     A
C1360  O1428   1.315   .     A
C1360  O1427   1.298   .     A
C1360  C1362   1.478   .     S
C1361  C1384   1.391   .     A
C1362  C1384   1.398   .     A
C1362  C1383   1.404   .     A
C1363  C1364   1.388   .     A
C1363  H1388   1.083   .     S
C1364  C609    1.392   1_556 S
C1364  H634    1.081   1_556 S
C1365  H1389   1.078   .     S
C1366  C1372   1.405   .     A
C1366  C1368   1.402   .     A
C1367  C1382   1.409   .     A
C1368  H1392   1.077   .     S
C1368  C1369   1.398   .     A
C1369  C1370   1.397   .     A
C1369  H1393   1.083   .     S
C1370  C1371   1.397   .     A
C1370  H1394   1.082   .     S
C1371  H1395   1.083   .     S
C1371  C1372   1.398   .     A
C1372  H1396   1.082   .     S
C1373  C1374   1.535   .     S
C1373  H1403   1.096   .     S
C1373  H1488   1.115   .     S
C1374  H1401   1.112   .     S
C1374  C1375   1.531   .     S
C1374  H1402   1.104   .     S
C1375  H1400   1.108   .     S
C1375  H1397   1.110   .     S
C1375  H1483   1.111   .     S
C1376  H1412   1.113   .     S
C1376  H1411   1.111   .     S
C1376  C1377   1.535   .     S
C1377  H1410   1.106   .     S
C1377  H1408   1.110   .     S
C1377  C1379   1.524   .     S
C1378  C1383   1.407   .     A
C1379  H1405   1.111   .     S
C1379  H1406   1.111   .     S
C1379  H1491   1.110   .     S
C1380  C1381   1.394   .     A
C1380  C605    1.400   1_556 S
C1380  C622    1.419   1_556 S
C1381  C1382   1.387   .     A
C1381  H1416   1.084   .     S
C1382  H1391   1.081   .     S
C1383  H1418   1.077   .     S
C1384  H1387   1.068   .     S
Cu1385 Cu1386  2.706   .     S
Cu1385 O1421   1.949   .     S
Cu1385 N1419   2.034   .     S
Cu1385 O1427   1.922   .     S
Cu1385 O1425   1.947   .     S
Cu1385 O1423   1.942   .     S
Cu1386 O1424   1.922   .     S
Cu1386 O1426   1.949   .     S
Cu1386 O1428   1.942   .     S
Cu1386 O1422   1.947   .     S
Cu1386 N1420   2.033   .     S
H1417  C605    1.084   1_556 S
C1429  O1505   1.296   .     A
C1429  O1506   1.295   .     A
C1429  C1437   1.436   .     S
C1430  C1432   1.475   .     S
C1430  C1451   1.417   .     A
C1430  C1447   1.402   .     A
C1431  C1437   1.410   .     A
C1431  C1460   1.516   .     S
C1431  C929    1.393   1_565 S
C1432  O1508   1.305   .     A
C1432  O1507   1.305   .     A
C1433  C1434   1.396   .     A
C1433  H1482   1.079   .     S
C1434  C1443   1.439   .     S
C1434  C1435   1.394   .     A
C1435  H1493   1.084   .     S
C1436  C1437   1.399   .     A
C1436  H1497   1.084   .     S
C1436  C931    1.386   1_565 S
C1438  C1450   1.475   .     S
C1438  N1504   1.389   .     A
C1438  C1271   1.421   1_655 S
C1439  H1498   1.083   .     S
C1439  N1503   1.358   .     A
C1440  C1451   1.420   .     A
C1440  C693    1.417   1_556 S
C1440  C706    1.425   1_556 S
C1441  N1503   1.343   .     A
C1441  H1499   1.083   .     S
C1442  N1504   1.402   .     A
C1442  C1457   1.510   .     S
C1442  C1273   1.416   1_655 S
C1443  O1509   1.295   .     A
C1443  O1510   1.298   .     A
C1444  O1512   1.315   .     A
C1444  O1511   1.298   .     A
C1444  C1446   1.478   .     S
C1445  C1468   1.391   .     A
C1446  C1468   1.398   .     A
C1446  C1467   1.404   .     A
C1447  C1448   1.388   .     A
C1447  H1472   1.083   .     S
C1448  C693    1.392   1_556 S
C1448  H718    1.081   1_556 S
C1449  H1473   1.078   .     S
C1450  C1456   1.405   .     A
C1450  C1452   1.402   .     A
C1451  C1466   1.409   .     A
C1452  H1476   1.077   .     S
C1452  C1453   1.398   .     A
C1453  C1454   1.397   .     A
C1453  H1477   1.083   .     S
C1454  C1455   1.397   .     A
C1454  H1478   1.082   .     S
C1455  H1479   1.083   .     S
C1455  C1456   1.398   .     A
C1456  H1480   1.082   .     S
C1457  C1458   1.535   .     S
C1457  H1487   1.096   .     S
C1457  H1320   1.115   1_655 S
C1458  H1485   1.112   .     S
C1458  C1459   1.531   .     S
C1458  H1486   1.104   .     S
C1459  H1484   1.108   .     S
C1459  H1481   1.110   .     S
C1459  H1315   1.111   1_655 S
C1460  H1496   1.113   .     S
C1460  H1495   1.111   .     S
C1460  C1461   1.535   .     S
C1461  H1494   1.106   .     S
C1461  H1492   1.110   .     S
C1461  C1463   1.524   .     S
C1462  C1467   1.407   .     A
C1463  H1489   1.111   .     S
C1463  H1490   1.111   .     S
C1463  H1323   1.110   1_655 S
C1464  C1465   1.394   .     A
C1464  C689    1.400   1_556 S
C1464  C706    1.419   1_556 S
C1465  C1466   1.387   .     A
C1465  H1500   1.084   .     S
C1466  H1475   1.081   .     S
C1467  H1502   1.077   .     S
C1468  H1471   1.068   .     S
Cu1469 Cu1470  2.706   .     S
Cu1469 O1505   1.949   .     S
Cu1469 N1503   2.034   .     S
Cu1469 O1511   1.922   .     S
Cu1469 O1509   1.947   .     S
Cu1469 O1507   1.942   .     S
Cu1470 O1508   1.922   .     S
Cu1470 O1510   1.949   .     S
Cu1470 O1512   1.942   .     S
Cu1470 O1506   1.947   .     S
Cu1470 N1504   2.033   .     S
H1501  C689    1.084   1_556 S
