data_str_m2_o2_o10_pcu_sym.233
_audit_creation_date              2020-01-03
_audit_creation_method            'Materials Studio'
_symmetry_space_group_name_H-M    'P1'
_symmetry_Int_Tables_number       1
_symmetry_cell_setting            triclinic
loop_
_symmetry_equiv_pos_as_xyz
  x,y,z
_cell_length_a                    26.1926
_cell_length_b                    30.2323
_cell_length_c                    27.7463
_cell_angle_alpha                 89.3679
_cell_angle_beta                  97.9284
_cell_angle_gamma                 90.3142
loop_
_atom_site_label
_atom_site_type_symbol
_atom_site_fract_x
_atom_site_fract_y
_atom_site_fract_z
_atom_site_U_iso_or_equiv
_atom_site_adp_type
_atom_site_occupancy
C1     C     0.16612   0.16488   0.25021   0.00000  Uiso   1.00
C2     C     0.16600   0.33505   0.24959   0.00000  Uiso   1.00
C3     C     0.20901   0.26620   0.05924   0.00000  Uiso   1.00
C4     C     0.13560   0.22041   0.44225   0.00000  Uiso   1.00
C5     C     0.20806   0.26627   0.10980   0.00000  Uiso   1.00
C6     C     0.13579   0.22128   0.39159   0.00000  Uiso   1.00
C7     C     0.12515   0.23393   0.09945   0.00000  Uiso   1.00
C8     C     0.19702   0.27920   0.39880   0.00000  Uiso   1.00
C9     C     0.12405   0.23416   0.04862   0.00000  Uiso   1.00
C10    C     0.19718   0.28012   0.44951   0.00000  Uiso   1.00
C11    C     0.16651   0.25020   0.02726   0.00000  Uiso   1.00
C12    C     0.16647   0.25021   0.47255   0.00000  Uiso   1.00
C13    C     0.06790   0.24997   0.23756   0.00000  Uiso   1.00
C14    C     0.26543   0.24999   0.26244   0.00000  Uiso   1.00
C15    C     0.01264   0.24996   0.23069   0.00000  Uiso   1.00
C16    C     0.32071   0.24993   0.26931   0.00000  Uiso   1.00
C17    C     0.14283   0.04494   0.28070   0.00000  Uiso   1.00
C18    C     0.14180   0.45428   0.21200   0.00000  Uiso   1.00
C19    C     0.13981   0.09096   0.28186   0.00000  Uiso   1.00
C20    C     0.13842   0.40822   0.21095   0.00000  Uiso   1.00
C21    C     0.16716   0.11642   0.25074   0.00000  Uiso   1.00
C22    C     0.16688   0.38342   0.24893   0.00000  Uiso   1.00
C23    C     0.19640   0.09529   0.21907   0.00000  Uiso   1.00
C24    C     0.19749   0.40506   0.28706   0.00000  Uiso   1.00
C25    C     0.19980   0.04913   0.21830   0.00000  Uiso   1.00
C26    C     0.20116   0.45123   0.28787   0.00000  Uiso   1.00
C27    C     0.17261   0.02409   0.24963   0.00000  Uiso   1.00
C28    C     0.17287   0.47571   0.24976   0.00000  Uiso   1.00
Cu29   Cu    0.16667   0.25000   0.29821   0.00000  Uiso   1.00
Cu30   Cu    0.16667   0.25001   0.20178   0.00000  Uiso   1.00
H31    H     0.32601   0.25001   0.19363   0.00000  Uiso   1.00
H32    H     0.00735   0.24985   0.30636   0.00000  Uiso   1.00
H33    H     0.12187   0.02494   0.30415   0.00000  Uiso   1.00
H34    H     0.11981   0.47386   0.18347   0.00000  Uiso   1.00
H35    H     0.21742   0.11508   0.19552   0.00000  Uiso   1.00
H36    H     0.21933   0.38565   0.31581   0.00000  Uiso   1.00
H37    H     0.24336   0.27820   0.04572   0.00000  Uiso   1.00
H38    H     0.11165   0.19607   0.45723   0.00000  Uiso   1.00
H39    H     0.24087   0.27934   0.13331   0.00000  Uiso   1.00
H40    H     0.11096   0.19893   0.36895   0.00000  Uiso   1.00
H41    H     0.09235   0.22093   0.11481   0.00000  Uiso   1.00
H42    H     0.22100   0.30226   0.38189   0.00000  Uiso   1.00
H43    H     0.08962   0.22226   0.02649   0.00000  Uiso   1.00
H44    H     0.22082   0.30469   0.47010   0.00000  Uiso   1.00
N45    N     0.16667   0.25001   0.12934   0.00000  Uiso   1.00
N46    N     0.16667   0.24999   0.37065   0.00000  Uiso   1.00
O47    O     0.16667   0.18573   0.29071   0.00000  Uiso   1.00
O48    O     0.16666   0.31428   0.20928   0.00000  Uiso   1.00
O49    O     0.16667   0.18573   0.20928   0.00000  Uiso   1.00
O50    O     0.16666   0.31427   0.29072   0.00000  Uiso   1.00
O51    O     0.09161   0.25000   0.28132   0.00000  Uiso   1.00
O52    O     0.24172   0.25001   0.21868   0.00000  Uiso   1.00
O53    O     0.09161   0.25000   0.19988   0.00000  Uiso   1.00
O54    O     0.24172   0.25000   0.30011   0.00000  Uiso   1.00
C55    C     0.10665   0.11167   0.31565   0.00000  Uiso   1.00
H56    H     0.13171   0.12773   0.34599   0.00000  Uiso   1.00
H57    H     0.08020   0.13631   0.29564   0.00000  Uiso   1.00
H58    H     0.08262   0.08664   0.33179   0.00000  Uiso   1.00
C59    C     0.10307   0.38665   0.17029   0.00000  Uiso   1.00
H60    H     0.07614   0.36361   0.18558   0.00000  Uiso   1.00
H61    H     0.07955   0.41145   0.14732   0.00000  Uiso   1.00
H62    H     0.12601   0.36833   0.14635   0.00000  Uiso   1.00
C63    C     0.23222   0.02758   0.18544   0.00000  Uiso   1.00
H64    H     0.23673   0.49193   0.18586   0.00000  Uiso   1.00
O65    O     0.25456   0.04945   0.15745   0.00000  Uiso   1.00
C66    C     0.23493   0.47337   0.32802   0.00000  Uiso   1.00
H67    H     0.23982   0.00902   0.32799   0.00000  Uiso   1.00
O68    O     0.25796   0.45201   0.36173   0.00000  Uiso   1.00
C69    C     0.49945   0.16488   0.25021   0.00000  Uiso   1.00
C70    C     0.49933   0.33505   0.24959   0.00000  Uiso   1.00
C71    C     0.54234   0.26620   0.05924   0.00000  Uiso   1.00
C72    C     0.46893   0.22041   0.44225   0.00000  Uiso   1.00
C73    C     0.54139   0.26627   0.10980   0.00000  Uiso   1.00
C74    C     0.46912   0.22128   0.39159   0.00000  Uiso   1.00
C75    C     0.45849   0.23393   0.09945   0.00000  Uiso   1.00
C76    C     0.53035   0.27920   0.39880   0.00000  Uiso   1.00
C77    C     0.45739   0.23416   0.04862   0.00000  Uiso   1.00
C78    C     0.53052   0.28012   0.44951   0.00000  Uiso   1.00
C79    C     0.49984   0.25020   0.02726   0.00000  Uiso   1.00
C80    C     0.49981   0.25021   0.47255   0.00000  Uiso   1.00
C81    C     0.40124   0.24997   0.23756   0.00000  Uiso   1.00
C82    C     0.59877   0.24999   0.26244   0.00000  Uiso   1.00
C83    C     0.34597   0.24996   0.23069   0.00000  Uiso   1.00
C84    C     0.65404   0.24993   0.26931   0.00000  Uiso   1.00
C85    C     0.47617   0.04494   0.28070   0.00000  Uiso   1.00
C86    C     0.47513   0.45428   0.21200   0.00000  Uiso   1.00
C87    C     0.47314   0.09096   0.28186   0.00000  Uiso   1.00
C88    C     0.47175   0.40822   0.21095   0.00000  Uiso   1.00
C89    C     0.50049   0.11642   0.25074   0.00000  Uiso   1.00
C90    C     0.50021   0.38342   0.24893   0.00000  Uiso   1.00
C91    C     0.52973   0.09529   0.21907   0.00000  Uiso   1.00
C92    C     0.53082   0.40506   0.28706   0.00000  Uiso   1.00
C93    C     0.53313   0.04913   0.21830   0.00000  Uiso   1.00
C94    C     0.53449   0.45123   0.28787   0.00000  Uiso   1.00
C95    C     0.50595   0.02409   0.24963   0.00000  Uiso   1.00
C96    C     0.50620   0.47571   0.24976   0.00000  Uiso   1.00
Cu97   Cu    0.50000   0.25000   0.29821   0.00000  Uiso   1.00
Cu98   Cu    0.50000   0.25001   0.20178   0.00000  Uiso   1.00
H99    H     0.65934   0.25001   0.19363   0.00000  Uiso   1.00
H100   H     0.34069   0.24985   0.30636   0.00000  Uiso   1.00
H101   H     0.45521   0.02494   0.30415   0.00000  Uiso   1.00
H102   H     0.45315   0.47386   0.18347   0.00000  Uiso   1.00
H103   H     0.55076   0.11508   0.19552   0.00000  Uiso   1.00
H104   H     0.55267   0.38565   0.31581   0.00000  Uiso   1.00
H105   H     0.57669   0.27820   0.04572   0.00000  Uiso   1.00
H106   H     0.44498   0.19607   0.45723   0.00000  Uiso   1.00
H107   H     0.57420   0.27934   0.13331   0.00000  Uiso   1.00
H108   H     0.44430   0.19893   0.36895   0.00000  Uiso   1.00
H109   H     0.42568   0.22093   0.11481   0.00000  Uiso   1.00
H110   H     0.55434   0.30226   0.38189   0.00000  Uiso   1.00
H111   H     0.42296   0.22226   0.02649   0.00000  Uiso   1.00
H112   H     0.55416   0.30469   0.47010   0.00000  Uiso   1.00
N113   N     0.50000   0.25001   0.12934   0.00000  Uiso   1.00
N114   N     0.50000   0.24999   0.37065   0.00000  Uiso   1.00
O115   O     0.50000   0.18573   0.29071   0.00000  Uiso   1.00
O116   O     0.50000   0.31428   0.20928   0.00000  Uiso   1.00
O117   O     0.50000   0.18573   0.20928   0.00000  Uiso   1.00
O118   O     0.50000   0.31427   0.29072   0.00000  Uiso   1.00
O119   O     0.42495   0.25000   0.28132   0.00000  Uiso   1.00
O120   O     0.57505   0.25001   0.21868   0.00000  Uiso   1.00
O121   O     0.42495   0.25000   0.19988   0.00000  Uiso   1.00
O122   O     0.57505   0.25000   0.30011   0.00000  Uiso   1.00
C123   C     0.43998   0.11167   0.31565   0.00000  Uiso   1.00
H124   H     0.46504   0.12773   0.34599   0.00000  Uiso   1.00
H125   H     0.41353   0.13631   0.29564   0.00000  Uiso   1.00
H126   H     0.41595   0.08664   0.33179   0.00000  Uiso   1.00
C127   C     0.43640   0.38665   0.17029   0.00000  Uiso   1.00
H128   H     0.40948   0.36361   0.18558   0.00000  Uiso   1.00
H129   H     0.41288   0.41145   0.14732   0.00000  Uiso   1.00
H130   H     0.45934   0.36833   0.14635   0.00000  Uiso   1.00
C131   C     0.56556   0.02758   0.18544   0.00000  Uiso   1.00
H132   H     0.57006   0.49193   0.18586   0.00000  Uiso   1.00
O133   O     0.58789   0.04945   0.15745   0.00000  Uiso   1.00
C134   C     0.56826   0.47337   0.32802   0.00000  Uiso   1.00
H135   H     0.57315   0.00902   0.32799   0.00000  Uiso   1.00
O136   O     0.59130   0.45201   0.36173   0.00000  Uiso   1.00
C137   C     0.83278   0.16488   0.25021   0.00000  Uiso   1.00
C138   C     0.83267   0.33505   0.24959   0.00000  Uiso   1.00
C139   C     0.87568   0.26620   0.05924   0.00000  Uiso   1.00
C140   C     0.80227   0.22041   0.44225   0.00000  Uiso   1.00
C141   C     0.87472   0.26627   0.10980   0.00000  Uiso   1.00
C142   C     0.80245   0.22128   0.39159   0.00000  Uiso   1.00
C143   C     0.79182   0.23393   0.09945   0.00000  Uiso   1.00
C144   C     0.86368   0.27920   0.39880   0.00000  Uiso   1.00
C145   C     0.79072   0.23416   0.04862   0.00000  Uiso   1.00
C146   C     0.86385   0.28012   0.44951   0.00000  Uiso   1.00
C147   C     0.83317   0.25020   0.02726   0.00000  Uiso   1.00
C148   C     0.83314   0.25021   0.47255   0.00000  Uiso   1.00
C149   C     0.73457   0.24997   0.23756   0.00000  Uiso   1.00
C150   C     0.93210   0.24999   0.26244   0.00000  Uiso   1.00
C151   C     0.67931   0.24996   0.23069   0.00000  Uiso   1.00
C152   C     0.98737   0.24993   0.26931   0.00000  Uiso   1.00
C153   C     0.80950   0.04494   0.28070   0.00000  Uiso   1.00
C154   C     0.80846   0.45428   0.21200   0.00000  Uiso   1.00
C155   C     0.80647   0.09096   0.28186   0.00000  Uiso   1.00
C156   C     0.80509   0.40822   0.21095   0.00000  Uiso   1.00
C157   C     0.83383   0.11642   0.25074   0.00000  Uiso   1.00
C158   C     0.83355   0.38342   0.24893   0.00000  Uiso   1.00
C159   C     0.86306   0.09529   0.21907   0.00000  Uiso   1.00
C160   C     0.86416   0.40506   0.28706   0.00000  Uiso   1.00
C161   C     0.86646   0.04913   0.21830   0.00000  Uiso   1.00
C162   C     0.86782   0.45123   0.28787   0.00000  Uiso   1.00
C163   C     0.83928   0.02409   0.24963   0.00000  Uiso   1.00
C164   C     0.83954   0.47571   0.24976   0.00000  Uiso   1.00
Cu165  Cu    0.83333   0.25000   0.29821   0.00000  Uiso   1.00
Cu166  Cu    0.83333   0.25001   0.20178   0.00000  Uiso   1.00
H167   H     0.99267   0.25001   0.19363   0.00000  Uiso   1.00
H168   H     0.67402   0.24985   0.30636   0.00000  Uiso   1.00
H169   H     0.78854   0.02494   0.30415   0.00000  Uiso   1.00
H170   H     0.78648   0.47386   0.18347   0.00000  Uiso   1.00
H171   H     0.88409   0.11508   0.19552   0.00000  Uiso   1.00
H172   H     0.88600   0.38565   0.31581   0.00000  Uiso   1.00
H173   H     0.91003   0.27820   0.04572   0.00000  Uiso   1.00
H174   H     0.77832   0.19607   0.45723   0.00000  Uiso   1.00
H175   H     0.90753   0.27934   0.13331   0.00000  Uiso   1.00
H176   H     0.77763   0.19893   0.36895   0.00000  Uiso   1.00
H177   H     0.75902   0.22093   0.11481   0.00000  Uiso   1.00
H178   H     0.88767   0.30226   0.38189   0.00000  Uiso   1.00
H179   H     0.75629   0.22226   0.02649   0.00000  Uiso   1.00
H180   H     0.88749   0.30469   0.47010   0.00000  Uiso   1.00
N181   N     0.83333   0.25001   0.12934   0.00000  Uiso   1.00
N182   N     0.83333   0.24999   0.37065   0.00000  Uiso   1.00
O183   O     0.83334   0.18573   0.29071   0.00000  Uiso   1.00
O184   O     0.83333   0.31428   0.20928   0.00000  Uiso   1.00
O185   O     0.83334   0.18573   0.20928   0.00000  Uiso   1.00
O186   O     0.83333   0.31427   0.29072   0.00000  Uiso   1.00
O187   O     0.75828   0.25000   0.28132   0.00000  Uiso   1.00
O188   O     0.90839   0.25001   0.21868   0.00000  Uiso   1.00
O189   O     0.75828   0.25000   0.19988   0.00000  Uiso   1.00
O190   O     0.90839   0.25000   0.30011   0.00000  Uiso   1.00
C191   C     0.77332   0.11167   0.31565   0.00000  Uiso   1.00
H192   H     0.79838   0.12773   0.34599   0.00000  Uiso   1.00
H193   H     0.74686   0.13631   0.29564   0.00000  Uiso   1.00
H194   H     0.74929   0.08664   0.33179   0.00000  Uiso   1.00
C195   C     0.76974   0.38665   0.17029   0.00000  Uiso   1.00
H196   H     0.74281   0.36361   0.18558   0.00000  Uiso   1.00
H197   H     0.74622   0.41145   0.14732   0.00000  Uiso   1.00
H198   H     0.79267   0.36833   0.14635   0.00000  Uiso   1.00
C199   C     0.89889   0.02758   0.18544   0.00000  Uiso   1.00
H200   H     0.90339   0.49193   0.18586   0.00000  Uiso   1.00
O201   O     0.92122   0.04945   0.15745   0.00000  Uiso   1.00
C202   C     0.90159   0.47337   0.32802   0.00000  Uiso   1.00
H203   H     0.90648   0.00902   0.32799   0.00000  Uiso   1.00
O204   O     0.92463   0.45201   0.36173   0.00000  Uiso   1.00
C205   C     0.16612   0.66488   0.25021   0.00000  Uiso   1.00
C206   C     0.16600   0.83505   0.24959   0.00000  Uiso   1.00
C207   C     0.20901   0.76620   0.05924   0.00000  Uiso   1.00
C208   C     0.13560   0.72041   0.44225   0.00000  Uiso   1.00
C209   C     0.20806   0.76627   0.10980   0.00000  Uiso   1.00
C210   C     0.13579   0.72128   0.39159   0.00000  Uiso   1.00
C211   C     0.12515   0.73393   0.09945   0.00000  Uiso   1.00
C212   C     0.19702   0.77920   0.39880   0.00000  Uiso   1.00
C213   C     0.12405   0.73416   0.04862   0.00000  Uiso   1.00
C214   C     0.19718   0.78012   0.44951   0.00000  Uiso   1.00
C215   C     0.16651   0.75020   0.02726   0.00000  Uiso   1.00
C216   C     0.16647   0.75021   0.47255   0.00000  Uiso   1.00
C217   C     0.06790   0.74997   0.23756   0.00000  Uiso   1.00
C218   C     0.26543   0.74999   0.26244   0.00000  Uiso   1.00
C219   C     0.01264   0.74996   0.23069   0.00000  Uiso   1.00
C220   C     0.32071   0.74993   0.26931   0.00000  Uiso   1.00
C221   C     0.14283   0.54494   0.28070   0.00000  Uiso   1.00
C222   C     0.14180   0.95428   0.21200   0.00000  Uiso   1.00
C223   C     0.13981   0.59096   0.28186   0.00000  Uiso   1.00
C224   C     0.13842   0.90822   0.21095   0.00000  Uiso   1.00
C225   C     0.16716   0.61642   0.25074   0.00000  Uiso   1.00
C226   C     0.16688   0.88342   0.24893   0.00000  Uiso   1.00
C227   C     0.19640   0.59529   0.21907   0.00000  Uiso   1.00
C228   C     0.19749   0.90506   0.28706   0.00000  Uiso   1.00
C229   C     0.19980   0.54913   0.21830   0.00000  Uiso   1.00
C230   C     0.20116   0.95123   0.28787   0.00000  Uiso   1.00
C231   C     0.17261   0.52409   0.24963   0.00000  Uiso   1.00
C232   C     0.17287   0.97571   0.24976   0.00000  Uiso   1.00
Cu233  Cu    0.16667   0.75000   0.29821   0.00000  Uiso   1.00
Cu234  Cu    0.16667   0.75001   0.20178   0.00000  Uiso   1.00
H235   H     0.32601   0.75001   0.19363   0.00000  Uiso   1.00
H236   H     0.00735   0.74985   0.30636   0.00000  Uiso   1.00
H237   H     0.12187   0.52494   0.30415   0.00000  Uiso   1.00
H238   H     0.11981   0.97386   0.18347   0.00000  Uiso   1.00
H239   H     0.21742   0.61508   0.19552   0.00000  Uiso   1.00
H240   H     0.21933   0.88565   0.31581   0.00000  Uiso   1.00
H241   H     0.24336   0.77820   0.04572   0.00000  Uiso   1.00
H242   H     0.11165   0.69607   0.45723   0.00000  Uiso   1.00
H243   H     0.24087   0.77934   0.13331   0.00000  Uiso   1.00
H244   H     0.11096   0.69893   0.36895   0.00000  Uiso   1.00
H245   H     0.09235   0.72093   0.11481   0.00000  Uiso   1.00
H246   H     0.22100   0.80226   0.38189   0.00000  Uiso   1.00
H247   H     0.08962   0.72226   0.02649   0.00000  Uiso   1.00
H248   H     0.22082   0.80469   0.47010   0.00000  Uiso   1.00
N249   N     0.16667   0.75001   0.12934   0.00000  Uiso   1.00
N250   N     0.16667   0.74999   0.37065   0.00000  Uiso   1.00
O251   O     0.16667   0.68573   0.29071   0.00000  Uiso   1.00
O252   O     0.16666   0.81428   0.20928   0.00000  Uiso   1.00
O253   O     0.16667   0.68573   0.20928   0.00000  Uiso   1.00
O254   O     0.16666   0.81427   0.29072   0.00000  Uiso   1.00
O255   O     0.09161   0.75000   0.28132   0.00000  Uiso   1.00
O256   O     0.24172   0.75001   0.21868   0.00000  Uiso   1.00
O257   O     0.09161   0.75000   0.19988   0.00000  Uiso   1.00
O258   O     0.24172   0.75000   0.30011   0.00000  Uiso   1.00
C259   C     0.10665   0.61167   0.31565   0.00000  Uiso   1.00
H260   H     0.13171   0.62773   0.34599   0.00000  Uiso   1.00
H261   H     0.08020   0.63631   0.29564   0.00000  Uiso   1.00
H262   H     0.08262   0.58664   0.33179   0.00000  Uiso   1.00
C263   C     0.10307   0.88665   0.17029   0.00000  Uiso   1.00
H264   H     0.07614   0.86361   0.18558   0.00000  Uiso   1.00
H265   H     0.07955   0.91145   0.14732   0.00000  Uiso   1.00
H266   H     0.12601   0.86833   0.14635   0.00000  Uiso   1.00
C267   C     0.23222   0.52758   0.18544   0.00000  Uiso   1.00
H268   H     0.23673   0.99193   0.18586   0.00000  Uiso   1.00
O269   O     0.25456   0.54945   0.15745   0.00000  Uiso   1.00
C270   C     0.23493   0.97337   0.32802   0.00000  Uiso   1.00
H271   H     0.23982   0.50902   0.32799   0.00000  Uiso   1.00
O272   O     0.25796   0.95201   0.36173   0.00000  Uiso   1.00
C273   C     0.49945   0.66488   0.25021   0.00000  Uiso   1.00
C274   C     0.49933   0.83505   0.24959   0.00000  Uiso   1.00
C275   C     0.54234   0.76620   0.05924   0.00000  Uiso   1.00
C276   C     0.46893   0.72041   0.44225   0.00000  Uiso   1.00
C277   C     0.54139   0.76627   0.10980   0.00000  Uiso   1.00
C278   C     0.46912   0.72128   0.39159   0.00000  Uiso   1.00
C279   C     0.45849   0.73393   0.09945   0.00000  Uiso   1.00
C280   C     0.53035   0.77920   0.39880   0.00000  Uiso   1.00
C281   C     0.45739   0.73416   0.04862   0.00000  Uiso   1.00
C282   C     0.53052   0.78012   0.44951   0.00000  Uiso   1.00
C283   C     0.49984   0.75020   0.02726   0.00000  Uiso   1.00
C284   C     0.49981   0.75021   0.47255   0.00000  Uiso   1.00
C285   C     0.40124   0.74997   0.23756   0.00000  Uiso   1.00
C286   C     0.59877   0.74999   0.26244   0.00000  Uiso   1.00
C287   C     0.34597   0.74996   0.23069   0.00000  Uiso   1.00
C288   C     0.65404   0.74993   0.26931   0.00000  Uiso   1.00
C289   C     0.47617   0.54494   0.28070   0.00000  Uiso   1.00
C290   C     0.47513   0.95428   0.21200   0.00000  Uiso   1.00
C291   C     0.47314   0.59096   0.28186   0.00000  Uiso   1.00
C292   C     0.47175   0.90822   0.21095   0.00000  Uiso   1.00
C293   C     0.50049   0.61642   0.25074   0.00000  Uiso   1.00
C294   C     0.50021   0.88342   0.24893   0.00000  Uiso   1.00
C295   C     0.52973   0.59529   0.21907   0.00000  Uiso   1.00
C296   C     0.53082   0.90506   0.28706   0.00000  Uiso   1.00
C297   C     0.53313   0.54913   0.21830   0.00000  Uiso   1.00
C298   C     0.53449   0.95123   0.28787   0.00000  Uiso   1.00
C299   C     0.50595   0.52409   0.24963   0.00000  Uiso   1.00
C300   C     0.50620   0.97571   0.24976   0.00000  Uiso   1.00
Cu301  Cu    0.50000   0.75000   0.29821   0.00000  Uiso   1.00
Cu302  Cu    0.50000   0.75001   0.20178   0.00000  Uiso   1.00
H303   H     0.65934   0.75001   0.19363   0.00000  Uiso   1.00
H304   H     0.34069   0.74985   0.30636   0.00000  Uiso   1.00
H305   H     0.45521   0.52494   0.30415   0.00000  Uiso   1.00
H306   H     0.45315   0.97386   0.18347   0.00000  Uiso   1.00
H307   H     0.55076   0.61508   0.19552   0.00000  Uiso   1.00
H308   H     0.55267   0.88565   0.31581   0.00000  Uiso   1.00
H309   H     0.57669   0.77820   0.04572   0.00000  Uiso   1.00
H310   H     0.44498   0.69607   0.45723   0.00000  Uiso   1.00
H311   H     0.57420   0.77934   0.13331   0.00000  Uiso   1.00
H312   H     0.44430   0.69893   0.36895   0.00000  Uiso   1.00
H313   H     0.42568   0.72093   0.11481   0.00000  Uiso   1.00
H314   H     0.55434   0.80226   0.38189   0.00000  Uiso   1.00
H315   H     0.42296   0.72226   0.02649   0.00000  Uiso   1.00
H316   H     0.55416   0.80469   0.47010   0.00000  Uiso   1.00
N317   N     0.50000   0.75001   0.12934   0.00000  Uiso   1.00
N318   N     0.50000   0.74999   0.37065   0.00000  Uiso   1.00
O319   O     0.50000   0.68573   0.29071   0.00000  Uiso   1.00
O320   O     0.50000   0.81428   0.20928   0.00000  Uiso   1.00
O321   O     0.50000   0.68573   0.20928   0.00000  Uiso   1.00
O322   O     0.50000   0.81427   0.29072   0.00000  Uiso   1.00
O323   O     0.42495   0.75000   0.28132   0.00000  Uiso   1.00
O324   O     0.57505   0.75001   0.21868   0.00000  Uiso   1.00
O325   O     0.42495   0.75000   0.19988   0.00000  Uiso   1.00
O326   O     0.57505   0.75000   0.30011   0.00000  Uiso   1.00
C327   C     0.43998   0.61167   0.31565   0.00000  Uiso   1.00
H328   H     0.46504   0.62773   0.34599   0.00000  Uiso   1.00
H329   H     0.41353   0.63631   0.29564   0.00000  Uiso   1.00
H330   H     0.41595   0.58664   0.33179   0.00000  Uiso   1.00
C331   C     0.43640   0.88665   0.17029   0.00000  Uiso   1.00
H332   H     0.40948   0.86361   0.18558   0.00000  Uiso   1.00
H333   H     0.41288   0.91145   0.14732   0.00000  Uiso   1.00
H334   H     0.45934   0.86833   0.14635   0.00000  Uiso   1.00
C335   C     0.56556   0.52758   0.18544   0.00000  Uiso   1.00
H336   H     0.57006   0.99193   0.18586   0.00000  Uiso   1.00
O337   O     0.58789   0.54945   0.15745   0.00000  Uiso   1.00
C338   C     0.56826   0.97337   0.32802   0.00000  Uiso   1.00
H339   H     0.57315   0.50902   0.32799   0.00000  Uiso   1.00
O340   O     0.59130   0.95201   0.36173   0.00000  Uiso   1.00
C341   C     0.83278   0.66488   0.25021   0.00000  Uiso   1.00
C342   C     0.83267   0.83505   0.24959   0.00000  Uiso   1.00
C343   C     0.87568   0.76620   0.05924   0.00000  Uiso   1.00
C344   C     0.80227   0.72041   0.44225   0.00000  Uiso   1.00
C345   C     0.87472   0.76627   0.10980   0.00000  Uiso   1.00
C346   C     0.80245   0.72128   0.39159   0.00000  Uiso   1.00
C347   C     0.79182   0.73393   0.09945   0.00000  Uiso   1.00
C348   C     0.86368   0.77920   0.39880   0.00000  Uiso   1.00
C349   C     0.79072   0.73416   0.04862   0.00000  Uiso   1.00
C350   C     0.86385   0.78012   0.44951   0.00000  Uiso   1.00
C351   C     0.83317   0.75020   0.02726   0.00000  Uiso   1.00
C352   C     0.83314   0.75021   0.47255   0.00000  Uiso   1.00
C353   C     0.73457   0.74997   0.23756   0.00000  Uiso   1.00
C354   C     0.93210   0.74999   0.26244   0.00000  Uiso   1.00
C355   C     0.67931   0.74996   0.23069   0.00000  Uiso   1.00
C356   C     0.98737   0.74993   0.26931   0.00000  Uiso   1.00
C357   C     0.80950   0.54494   0.28070   0.00000  Uiso   1.00
C358   C     0.80846   0.95428   0.21200   0.00000  Uiso   1.00
C359   C     0.80647   0.59096   0.28186   0.00000  Uiso   1.00
C360   C     0.80509   0.90822   0.21095   0.00000  Uiso   1.00
C361   C     0.83383   0.61642   0.25074   0.00000  Uiso   1.00
C362   C     0.83355   0.88342   0.24893   0.00000  Uiso   1.00
C363   C     0.86306   0.59529   0.21907   0.00000  Uiso   1.00
C364   C     0.86416   0.90506   0.28706   0.00000  Uiso   1.00
C365   C     0.86646   0.54913   0.21830   0.00000  Uiso   1.00
C366   C     0.86782   0.95123   0.28787   0.00000  Uiso   1.00
C367   C     0.83928   0.52409   0.24963   0.00000  Uiso   1.00
C368   C     0.83954   0.97571   0.24976   0.00000  Uiso   1.00
Cu369  Cu    0.83333   0.75000   0.29821   0.00000  Uiso   1.00
Cu370  Cu    0.83333   0.75001   0.20178   0.00000  Uiso   1.00
H371   H     0.99267   0.75001   0.19363   0.00000  Uiso   1.00
H372   H     0.67402   0.74985   0.30636   0.00000  Uiso   1.00
H373   H     0.78854   0.52494   0.30415   0.00000  Uiso   1.00
H374   H     0.78648   0.97386   0.18347   0.00000  Uiso   1.00
H375   H     0.88409   0.61508   0.19552   0.00000  Uiso   1.00
H376   H     0.88600   0.88565   0.31581   0.00000  Uiso   1.00
H377   H     0.91003   0.77820   0.04572   0.00000  Uiso   1.00
H378   H     0.77832   0.69607   0.45723   0.00000  Uiso   1.00
H379   H     0.90753   0.77934   0.13331   0.00000  Uiso   1.00
H380   H     0.77763   0.69893   0.36895   0.00000  Uiso   1.00
H381   H     0.75902   0.72093   0.11481   0.00000  Uiso   1.00
H382   H     0.88767   0.80226   0.38189   0.00000  Uiso   1.00
H383   H     0.75629   0.72226   0.02649   0.00000  Uiso   1.00
H384   H     0.88749   0.80469   0.47010   0.00000  Uiso   1.00
N385   N     0.83333   0.75001   0.12934   0.00000  Uiso   1.00
N386   N     0.83333   0.74999   0.37065   0.00000  Uiso   1.00
O387   O     0.83334   0.68573   0.29071   0.00000  Uiso   1.00
O388   O     0.83333   0.81428   0.20928   0.00000  Uiso   1.00
O389   O     0.83334   0.68573   0.20928   0.00000  Uiso   1.00
O390   O     0.83333   0.81427   0.29072   0.00000  Uiso   1.00
O391   O     0.75828   0.75000   0.28132   0.00000  Uiso   1.00
O392   O     0.90839   0.75001   0.21868   0.00000  Uiso   1.00
O393   O     0.75828   0.75000   0.19988   0.00000  Uiso   1.00
O394   O     0.90839   0.75000   0.30011   0.00000  Uiso   1.00
C395   C     0.77332   0.61167   0.31565   0.00000  Uiso   1.00
H396   H     0.79838   0.62773   0.34599   0.00000  Uiso   1.00
H397   H     0.74686   0.63631   0.29564   0.00000  Uiso   1.00
H398   H     0.74929   0.58664   0.33179   0.00000  Uiso   1.00
C399   C     0.76974   0.88665   0.17029   0.00000  Uiso   1.00
H400   H     0.74281   0.86361   0.18558   0.00000  Uiso   1.00
H401   H     0.74622   0.91145   0.14732   0.00000  Uiso   1.00
H402   H     0.79267   0.86833   0.14635   0.00000  Uiso   1.00
C403   C     0.89889   0.52758   0.18544   0.00000  Uiso   1.00
H404   H     0.90339   0.99193   0.18586   0.00000  Uiso   1.00
O405   O     0.92122   0.54945   0.15745   0.00000  Uiso   1.00
C406   C     0.90159   0.97337   0.32802   0.00000  Uiso   1.00
H407   H     0.90648   0.50902   0.32799   0.00000  Uiso   1.00
O408   O     0.92463   0.95201   0.36173   0.00000  Uiso   1.00
C409   C     0.16612   0.16488   0.75021   0.00000  Uiso   1.00
C410   C     0.16600   0.33505   0.74959   0.00000  Uiso   1.00
C411   C     0.20901   0.26620   0.55924   0.00000  Uiso   1.00
C412   C     0.13560   0.22041   0.94225   0.00000  Uiso   1.00
C413   C     0.20806   0.26627   0.60980   0.00000  Uiso   1.00
C414   C     0.13579   0.22128   0.89159   0.00000  Uiso   1.00
C415   C     0.12515   0.23393   0.59945   0.00000  Uiso   1.00
C416   C     0.19702   0.27920   0.89880   0.00000  Uiso   1.00
C417   C     0.12405   0.23416   0.54862   0.00000  Uiso   1.00
C418   C     0.19718   0.28012   0.94951   0.00000  Uiso   1.00
C419   C     0.16651   0.25020   0.52726   0.00000  Uiso   1.00
C420   C     0.16647   0.25021   0.97255   0.00000  Uiso   1.00
C421   C     0.06790   0.24997   0.73756   0.00000  Uiso   1.00
C422   C     0.26543   0.24999   0.76244   0.00000  Uiso   1.00
C423   C     0.01264   0.24996   0.73069   0.00000  Uiso   1.00
C424   C     0.32071   0.24993   0.76931   0.00000  Uiso   1.00
C425   C     0.14283   0.04494   0.78070   0.00000  Uiso   1.00
C426   C     0.14180   0.45428   0.71200   0.00000  Uiso   1.00
C427   C     0.13981   0.09096   0.78186   0.00000  Uiso   1.00
C428   C     0.13842   0.40822   0.71095   0.00000  Uiso   1.00
C429   C     0.16716   0.11642   0.75074   0.00000  Uiso   1.00
C430   C     0.16688   0.38342   0.74893   0.00000  Uiso   1.00
C431   C     0.19640   0.09529   0.71907   0.00000  Uiso   1.00
C432   C     0.19749   0.40506   0.78706   0.00000  Uiso   1.00
C433   C     0.19980   0.04913   0.71830   0.00000  Uiso   1.00
C434   C     0.20116   0.45123   0.78787   0.00000  Uiso   1.00
C435   C     0.17261   0.02409   0.74963   0.00000  Uiso   1.00
C436   C     0.17287   0.47571   0.74976   0.00000  Uiso   1.00
Cu437  Cu    0.16667   0.25000   0.79821   0.00000  Uiso   1.00
Cu438  Cu    0.16667   0.25001   0.70178   0.00000  Uiso   1.00
H439   H     0.32601   0.25001   0.69363   0.00000  Uiso   1.00
H440   H     0.00735   0.24985   0.80636   0.00000  Uiso   1.00
H441   H     0.12187   0.02494   0.80415   0.00000  Uiso   1.00
H442   H     0.11981   0.47386   0.68347   0.00000  Uiso   1.00
H443   H     0.21742   0.11508   0.69552   0.00000  Uiso   1.00
H444   H     0.21933   0.38565   0.81581   0.00000  Uiso   1.00
H445   H     0.24336   0.27820   0.54572   0.00000  Uiso   1.00
H446   H     0.11165   0.19607   0.95723   0.00000  Uiso   1.00
H447   H     0.24087   0.27934   0.63331   0.00000  Uiso   1.00
H448   H     0.11096   0.19893   0.86895   0.00000  Uiso   1.00
H449   H     0.09235   0.22093   0.61481   0.00000  Uiso   1.00
H450   H     0.22100   0.30226   0.88189   0.00000  Uiso   1.00
H451   H     0.08962   0.22226   0.52649   0.00000  Uiso   1.00
H452   H     0.22082   0.30469   0.97010   0.00000  Uiso   1.00
N453   N     0.16667   0.25001   0.62934   0.00000  Uiso   1.00
N454   N     0.16667   0.24999   0.87065   0.00000  Uiso   1.00
O455   O     0.16667   0.18573   0.79071   0.00000  Uiso   1.00
O456   O     0.16666   0.31428   0.70928   0.00000  Uiso   1.00
O457   O     0.16667   0.18573   0.70928   0.00000  Uiso   1.00
O458   O     0.16666   0.31427   0.79072   0.00000  Uiso   1.00
O459   O     0.09161   0.25000   0.78132   0.00000  Uiso   1.00
O460   O     0.24172   0.25001   0.71868   0.00000  Uiso   1.00
O461   O     0.09161   0.25000   0.69988   0.00000  Uiso   1.00
O462   O     0.24172   0.25000   0.80011   0.00000  Uiso   1.00
C463   C     0.10665   0.11167   0.81565   0.00000  Uiso   1.00
H464   H     0.13171   0.12773   0.84599   0.00000  Uiso   1.00
H465   H     0.08020   0.13631   0.79564   0.00000  Uiso   1.00
H466   H     0.08262   0.08664   0.83179   0.00000  Uiso   1.00
C467   C     0.10307   0.38665   0.67029   0.00000  Uiso   1.00
H468   H     0.07614   0.36361   0.68558   0.00000  Uiso   1.00
H469   H     0.07955   0.41145   0.64732   0.00000  Uiso   1.00
H470   H     0.12601   0.36833   0.64635   0.00000  Uiso   1.00
C471   C     0.23222   0.02758   0.68544   0.00000  Uiso   1.00
H472   H     0.23673   0.49193   0.68586   0.00000  Uiso   1.00
O473   O     0.25456   0.04945   0.65745   0.00000  Uiso   1.00
C474   C     0.23493   0.47337   0.82802   0.00000  Uiso   1.00
H475   H     0.23982   0.00902   0.82799   0.00000  Uiso   1.00
O476   O     0.25796   0.45201   0.86173   0.00000  Uiso   1.00
C477   C     0.49945   0.16488   0.75021   0.00000  Uiso   1.00
C478   C     0.49933   0.33505   0.74959   0.00000  Uiso   1.00
C479   C     0.54234   0.26620   0.55924   0.00000  Uiso   1.00
C480   C     0.46893   0.22041   0.94225   0.00000  Uiso   1.00
C481   C     0.54139   0.26627   0.60980   0.00000  Uiso   1.00
C482   C     0.46912   0.22128   0.89159   0.00000  Uiso   1.00
C483   C     0.45849   0.23393   0.59945   0.00000  Uiso   1.00
C484   C     0.53035   0.27920   0.89880   0.00000  Uiso   1.00
C485   C     0.45739   0.23416   0.54862   0.00000  Uiso   1.00
C486   C     0.53052   0.28012   0.94951   0.00000  Uiso   1.00
C487   C     0.49984   0.25020   0.52726   0.00000  Uiso   1.00
C488   C     0.49981   0.25021   0.97255   0.00000  Uiso   1.00
C489   C     0.40124   0.24997   0.73756   0.00000  Uiso   1.00
C490   C     0.59877   0.24999   0.76244   0.00000  Uiso   1.00
C491   C     0.34597   0.24996   0.73069   0.00000  Uiso   1.00
C492   C     0.65404   0.24993   0.76931   0.00000  Uiso   1.00
C493   C     0.47617   0.04494   0.78070   0.00000  Uiso   1.00
C494   C     0.47513   0.45428   0.71200   0.00000  Uiso   1.00
C495   C     0.47314   0.09096   0.78186   0.00000  Uiso   1.00
C496   C     0.47175   0.40822   0.71095   0.00000  Uiso   1.00
C497   C     0.50049   0.11642   0.75074   0.00000  Uiso   1.00
C498   C     0.50021   0.38342   0.74893   0.00000  Uiso   1.00
C499   C     0.52973   0.09529   0.71907   0.00000  Uiso   1.00
C500   C     0.53082   0.40506   0.78706   0.00000  Uiso   1.00
C501   C     0.53313   0.04913   0.71830   0.00000  Uiso   1.00
C502   C     0.53449   0.45123   0.78787   0.00000  Uiso   1.00
C503   C     0.50595   0.02409   0.74963   0.00000  Uiso   1.00
C504   C     0.50620   0.47571   0.74976   0.00000  Uiso   1.00
Cu505  Cu    0.50000   0.25000   0.79821   0.00000  Uiso   1.00
Cu506  Cu    0.50000   0.25001   0.70178   0.00000  Uiso   1.00
H507   H     0.65934   0.25001   0.69363   0.00000  Uiso   1.00
H508   H     0.34069   0.24985   0.80636   0.00000  Uiso   1.00
H509   H     0.45521   0.02494   0.80415   0.00000  Uiso   1.00
H510   H     0.45315   0.47386   0.68347   0.00000  Uiso   1.00
H511   H     0.55076   0.11508   0.69552   0.00000  Uiso   1.00
H512   H     0.55267   0.38565   0.81581   0.00000  Uiso   1.00
H513   H     0.57669   0.27820   0.54572   0.00000  Uiso   1.00
H514   H     0.44498   0.19607   0.95723   0.00000  Uiso   1.00
H515   H     0.57420   0.27934   0.63331   0.00000  Uiso   1.00
H516   H     0.44430   0.19893   0.86895   0.00000  Uiso   1.00
H517   H     0.42568   0.22093   0.61481   0.00000  Uiso   1.00
H518   H     0.55434   0.30226   0.88189   0.00000  Uiso   1.00
H519   H     0.42296   0.22226   0.52649   0.00000  Uiso   1.00
H520   H     0.55416   0.30469   0.97010   0.00000  Uiso   1.00
N521   N     0.50000   0.25001   0.62934   0.00000  Uiso   1.00
N522   N     0.50000   0.24999   0.87065   0.00000  Uiso   1.00
O523   O     0.50000   0.18573   0.79071   0.00000  Uiso   1.00
O524   O     0.50000   0.31428   0.70928   0.00000  Uiso   1.00
O525   O     0.50000   0.18573   0.70928   0.00000  Uiso   1.00
O526   O     0.50000   0.31427   0.79072   0.00000  Uiso   1.00
O527   O     0.42495   0.25000   0.78132   0.00000  Uiso   1.00
O528   O     0.57505   0.25001   0.71868   0.00000  Uiso   1.00
O529   O     0.42495   0.25000   0.69988   0.00000  Uiso   1.00
O530   O     0.57505   0.25000   0.80011   0.00000  Uiso   1.00
C531   C     0.43998   0.11167   0.81565   0.00000  Uiso   1.00
H532   H     0.46504   0.12773   0.84599   0.00000  Uiso   1.00
H533   H     0.41353   0.13631   0.79564   0.00000  Uiso   1.00
H534   H     0.41595   0.08664   0.83179   0.00000  Uiso   1.00
C535   C     0.43640   0.38665   0.67029   0.00000  Uiso   1.00
H536   H     0.40948   0.36361   0.68558   0.00000  Uiso   1.00
H537   H     0.41288   0.41145   0.64732   0.00000  Uiso   1.00
H538   H     0.45934   0.36833   0.64635   0.00000  Uiso   1.00
C539   C     0.56556   0.02758   0.68544   0.00000  Uiso   1.00
H540   H     0.57006   0.49193   0.68586   0.00000  Uiso   1.00
O541   O     0.58789   0.04945   0.65745   0.00000  Uiso   1.00
C542   C     0.56826   0.47337   0.82802   0.00000  Uiso   1.00
H543   H     0.57315   0.00902   0.82799   0.00000  Uiso   1.00
O544   O     0.59130   0.45201   0.86173   0.00000  Uiso   1.00
C545   C     0.83278   0.16488   0.75021   0.00000  Uiso   1.00
C546   C     0.83267   0.33505   0.74959   0.00000  Uiso   1.00
C547   C     0.87568   0.26620   0.55924   0.00000  Uiso   1.00
C548   C     0.80227   0.22041   0.94225   0.00000  Uiso   1.00
C549   C     0.87472   0.26627   0.60980   0.00000  Uiso   1.00
C550   C     0.80245   0.22128   0.89159   0.00000  Uiso   1.00
C551   C     0.79182   0.23393   0.59945   0.00000  Uiso   1.00
C552   C     0.86368   0.27920   0.89880   0.00000  Uiso   1.00
C553   C     0.79072   0.23416   0.54862   0.00000  Uiso   1.00
C554   C     0.86385   0.28012   0.94951   0.00000  Uiso   1.00
C555   C     0.83317   0.25020   0.52726   0.00000  Uiso   1.00
C556   C     0.83314   0.25021   0.97255   0.00000  Uiso   1.00
C557   C     0.73457   0.24997   0.73756   0.00000  Uiso   1.00
C558   C     0.93210   0.24999   0.76244   0.00000  Uiso   1.00
C559   C     0.67931   0.24996   0.73069   0.00000  Uiso   1.00
C560   C     0.98737   0.24993   0.76931   0.00000  Uiso   1.00
C561   C     0.80950   0.04494   0.78070   0.00000  Uiso   1.00
C562   C     0.80846   0.45428   0.71200   0.00000  Uiso   1.00
C563   C     0.80647   0.09096   0.78186   0.00000  Uiso   1.00
C564   C     0.80509   0.40822   0.71095   0.00000  Uiso   1.00
C565   C     0.83383   0.11642   0.75074   0.00000  Uiso   1.00
C566   C     0.83355   0.38342   0.74893   0.00000  Uiso   1.00
C567   C     0.86306   0.09529   0.71907   0.00000  Uiso   1.00
C568   C     0.86416   0.40506   0.78706   0.00000  Uiso   1.00
C569   C     0.86646   0.04913   0.71830   0.00000  Uiso   1.00
C570   C     0.86782   0.45123   0.78787   0.00000  Uiso   1.00
C571   C     0.83928   0.02409   0.74963   0.00000  Uiso   1.00
C572   C     0.83954   0.47571   0.74976   0.00000  Uiso   1.00
Cu573  Cu    0.83333   0.25000   0.79821   0.00000  Uiso   1.00
Cu574  Cu    0.83333   0.25001   0.70178   0.00000  Uiso   1.00
H575   H     0.99267   0.25001   0.69363   0.00000  Uiso   1.00
H576   H     0.67402   0.24985   0.80636   0.00000  Uiso   1.00
H577   H     0.78854   0.02494   0.80415   0.00000  Uiso   1.00
H578   H     0.78648   0.47386   0.68347   0.00000  Uiso   1.00
H579   H     0.88409   0.11508   0.69552   0.00000  Uiso   1.00
H580   H     0.88600   0.38565   0.81581   0.00000  Uiso   1.00
H581   H     0.91003   0.27820   0.54572   0.00000  Uiso   1.00
H582   H     0.77832   0.19607   0.95723   0.00000  Uiso   1.00
H583   H     0.90753   0.27934   0.63331   0.00000  Uiso   1.00
H584   H     0.77763   0.19893   0.86895   0.00000  Uiso   1.00
H585   H     0.75902   0.22093   0.61481   0.00000  Uiso   1.00
H586   H     0.88767   0.30226   0.88189   0.00000  Uiso   1.00
H587   H     0.75629   0.22226   0.52649   0.00000  Uiso   1.00
H588   H     0.88749   0.30469   0.97010   0.00000  Uiso   1.00
N589   N     0.83333   0.25001   0.62934   0.00000  Uiso   1.00
N590   N     0.83333   0.24999   0.87065   0.00000  Uiso   1.00
O591   O     0.83334   0.18573   0.79071   0.00000  Uiso   1.00
O592   O     0.83333   0.31428   0.70928   0.00000  Uiso   1.00
O593   O     0.83334   0.18573   0.70928   0.00000  Uiso   1.00
O594   O     0.83333   0.31427   0.79072   0.00000  Uiso   1.00
O595   O     0.75828   0.25000   0.78132   0.00000  Uiso   1.00
O596   O     0.90839   0.25001   0.71868   0.00000  Uiso   1.00
O597   O     0.75828   0.25000   0.69988   0.00000  Uiso   1.00
O598   O     0.90839   0.25000   0.80011   0.00000  Uiso   1.00
C599   C     0.77332   0.11167   0.81565   0.00000  Uiso   1.00
H600   H     0.79838   0.12773   0.84599   0.00000  Uiso   1.00
H601   H     0.74686   0.13631   0.79564   0.00000  Uiso   1.00
H602   H     0.74929   0.08664   0.83179   0.00000  Uiso   1.00
C603   C     0.76974   0.38665   0.67029   0.00000  Uiso   1.00
H604   H     0.74281   0.36361   0.68558   0.00000  Uiso   1.00
H605   H     0.74622   0.41145   0.64732   0.00000  Uiso   1.00
H606   H     0.79267   0.36833   0.64635   0.00000  Uiso   1.00
C607   C     0.89889   0.02758   0.68544   0.00000  Uiso   1.00
H608   H     0.90339   0.49193   0.68586   0.00000  Uiso   1.00
O609   O     0.92122   0.04945   0.65745   0.00000  Uiso   1.00
C610   C     0.90159   0.47337   0.82802   0.00000  Uiso   1.00
H611   H     0.90648   0.00902   0.82799   0.00000  Uiso   1.00
O612   O     0.92463   0.45201   0.86173   0.00000  Uiso   1.00
C613   C     0.16612   0.66488   0.75021   0.00000  Uiso   1.00
C614   C     0.16600   0.83505   0.74959   0.00000  Uiso   1.00
C615   C     0.20901   0.76620   0.55924   0.00000  Uiso   1.00
C616   C     0.13560   0.72041   0.94225   0.00000  Uiso   1.00
C617   C     0.20806   0.76627   0.60980   0.00000  Uiso   1.00
C618   C     0.13579   0.72128   0.89159   0.00000  Uiso   1.00
C619   C     0.12515   0.73393   0.59945   0.00000  Uiso   1.00
C620   C     0.19702   0.77920   0.89880   0.00000  Uiso   1.00
C621   C     0.12405   0.73416   0.54862   0.00000  Uiso   1.00
C622   C     0.19718   0.78012   0.94951   0.00000  Uiso   1.00
C623   C     0.16651   0.75020   0.52726   0.00000  Uiso   1.00
C624   C     0.16647   0.75021   0.97255   0.00000  Uiso   1.00
C625   C     0.06790   0.74997   0.73756   0.00000  Uiso   1.00
C626   C     0.26543   0.74999   0.76244   0.00000  Uiso   1.00
C627   C     0.01264   0.74996   0.73069   0.00000  Uiso   1.00
C628   C     0.32071   0.74993   0.76931   0.00000  Uiso   1.00
C629   C     0.14283   0.54494   0.78070   0.00000  Uiso   1.00
C630   C     0.14180   0.95428   0.71200   0.00000  Uiso   1.00
C631   C     0.13981   0.59096   0.78186   0.00000  Uiso   1.00
C632   C     0.13842   0.90822   0.71095   0.00000  Uiso   1.00
C633   C     0.16716   0.61642   0.75074   0.00000  Uiso   1.00
C634   C     0.16688   0.88342   0.74893   0.00000  Uiso   1.00
C635   C     0.19640   0.59529   0.71907   0.00000  Uiso   1.00
C636   C     0.19749   0.90506   0.78706   0.00000  Uiso   1.00
C637   C     0.19980   0.54913   0.71830   0.00000  Uiso   1.00
C638   C     0.20116   0.95123   0.78787   0.00000  Uiso   1.00
C639   C     0.17261   0.52409   0.74963   0.00000  Uiso   1.00
C640   C     0.17287   0.97571   0.74976   0.00000  Uiso   1.00
Cu641  Cu    0.16667   0.75000   0.79821   0.00000  Uiso   1.00
Cu642  Cu    0.16667   0.75001   0.70178   0.00000  Uiso   1.00
H643   H     0.32601   0.75001   0.69363   0.00000  Uiso   1.00
H644   H     0.00735   0.74985   0.80636   0.00000  Uiso   1.00
H645   H     0.12187   0.52494   0.80415   0.00000  Uiso   1.00
H646   H     0.11981   0.97386   0.68347   0.00000  Uiso   1.00
H647   H     0.21742   0.61508   0.69552   0.00000  Uiso   1.00
H648   H     0.21933   0.88565   0.81581   0.00000  Uiso   1.00
H649   H     0.24336   0.77820   0.54572   0.00000  Uiso   1.00
H650   H     0.11165   0.69607   0.95723   0.00000  Uiso   1.00
H651   H     0.24087   0.77934   0.63331   0.00000  Uiso   1.00
H652   H     0.11096   0.69893   0.86895   0.00000  Uiso   1.00
H653   H     0.09235   0.72093   0.61481   0.00000  Uiso   1.00
H654   H     0.22100   0.80226   0.88189   0.00000  Uiso   1.00
H655   H     0.08962   0.72226   0.52649   0.00000  Uiso   1.00
H656   H     0.22082   0.80469   0.97010   0.00000  Uiso   1.00
N657   N     0.16667   0.75001   0.62934   0.00000  Uiso   1.00
N658   N     0.16667   0.74999   0.87065   0.00000  Uiso   1.00
O659   O     0.16667   0.68573   0.79071   0.00000  Uiso   1.00
O660   O     0.16666   0.81428   0.70928   0.00000  Uiso   1.00
O661   O     0.16667   0.68573   0.70928   0.00000  Uiso   1.00
O662   O     0.16666   0.81427   0.79072   0.00000  Uiso   1.00
O663   O     0.09161   0.75000   0.78132   0.00000  Uiso   1.00
O664   O     0.24172   0.75001   0.71868   0.00000  Uiso   1.00
O665   O     0.09161   0.75000   0.69988   0.00000  Uiso   1.00
O666   O     0.24172   0.75000   0.80011   0.00000  Uiso   1.00
C667   C     0.10665   0.61167   0.81565   0.00000  Uiso   1.00
H668   H     0.13171   0.62773   0.84599   0.00000  Uiso   1.00
H669   H     0.08020   0.63631   0.79564   0.00000  Uiso   1.00
H670   H     0.08262   0.58664   0.83179   0.00000  Uiso   1.00
C671   C     0.10307   0.88665   0.67029   0.00000  Uiso   1.00
H672   H     0.07614   0.86361   0.68558   0.00000  Uiso   1.00
H673   H     0.07955   0.91145   0.64732   0.00000  Uiso   1.00
H674   H     0.12601   0.86833   0.64635   0.00000  Uiso   1.00
C675   C     0.23222   0.52758   0.68544   0.00000  Uiso   1.00
H676   H     0.23673   0.99193   0.68586   0.00000  Uiso   1.00
O677   O     0.25456   0.54945   0.65745   0.00000  Uiso   1.00
C678   C     0.23493   0.97337   0.82802   0.00000  Uiso   1.00
H679   H     0.23982   0.50902   0.82799   0.00000  Uiso   1.00
O680   O     0.25796   0.95201   0.86173   0.00000  Uiso   1.00
C681   C     0.49945   0.66488   0.75021   0.00000  Uiso   1.00
C682   C     0.49933   0.83505   0.74959   0.00000  Uiso   1.00
C683   C     0.54234   0.76620   0.55924   0.00000  Uiso   1.00
C684   C     0.46893   0.72041   0.94225   0.00000  Uiso   1.00
C685   C     0.54139   0.76627   0.60980   0.00000  Uiso   1.00
C686   C     0.46912   0.72128   0.89159   0.00000  Uiso   1.00
C687   C     0.45849   0.73393   0.59945   0.00000  Uiso   1.00
C688   C     0.53035   0.77920   0.89880   0.00000  Uiso   1.00
C689   C     0.45739   0.73416   0.54862   0.00000  Uiso   1.00
C690   C     0.53052   0.78012   0.94951   0.00000  Uiso   1.00
C691   C     0.49984   0.75020   0.52726   0.00000  Uiso   1.00
C692   C     0.49981   0.75021   0.97255   0.00000  Uiso   1.00
C693   C     0.40124   0.74997   0.73756   0.00000  Uiso   1.00
C694   C     0.59877   0.74999   0.76244   0.00000  Uiso   1.00
C695   C     0.34597   0.74996   0.73069   0.00000  Uiso   1.00
C696   C     0.65404   0.74993   0.76931   0.00000  Uiso   1.00
C697   C     0.47617   0.54494   0.78070   0.00000  Uiso   1.00
C698   C     0.47513   0.95428   0.71200   0.00000  Uiso   1.00
C699   C     0.47314   0.59096   0.78186   0.00000  Uiso   1.00
C700   C     0.47175   0.90822   0.71095   0.00000  Uiso   1.00
C701   C     0.50049   0.61642   0.75074   0.00000  Uiso   1.00
C702   C     0.50021   0.88342   0.74893   0.00000  Uiso   1.00
C703   C     0.52973   0.59529   0.71907   0.00000  Uiso   1.00
C704   C     0.53082   0.90506   0.78706   0.00000  Uiso   1.00
C705   C     0.53313   0.54913   0.71830   0.00000  Uiso   1.00
C706   C     0.53449   0.95123   0.78787   0.00000  Uiso   1.00
C707   C     0.50595   0.52409   0.74963   0.00000  Uiso   1.00
C708   C     0.50620   0.97571   0.74976   0.00000  Uiso   1.00
Cu709  Cu    0.50000   0.75000   0.79821   0.00000  Uiso   1.00
Cu710  Cu    0.50000   0.75001   0.70178   0.00000  Uiso   1.00
H711   H     0.65934   0.75001   0.69363   0.00000  Uiso   1.00
H712   H     0.34069   0.74985   0.80636   0.00000  Uiso   1.00
H713   H     0.45521   0.52494   0.80415   0.00000  Uiso   1.00
H714   H     0.45315   0.97386   0.68347   0.00000  Uiso   1.00
H715   H     0.55076   0.61508   0.69552   0.00000  Uiso   1.00
H716   H     0.55267   0.88565   0.81581   0.00000  Uiso   1.00
H717   H     0.57669   0.77820   0.54572   0.00000  Uiso   1.00
H718   H     0.44498   0.69607   0.95723   0.00000  Uiso   1.00
H719   H     0.57420   0.77934   0.63331   0.00000  Uiso   1.00
H720   H     0.44430   0.69893   0.86895   0.00000  Uiso   1.00
H721   H     0.42568   0.72093   0.61481   0.00000  Uiso   1.00
H722   H     0.55434   0.80226   0.88189   0.00000  Uiso   1.00
H723   H     0.42296   0.72226   0.52649   0.00000  Uiso   1.00
H724   H     0.55416   0.80469   0.97010   0.00000  Uiso   1.00
N725   N     0.50000   0.75001   0.62934   0.00000  Uiso   1.00
N726   N     0.50000   0.74999   0.87065   0.00000  Uiso   1.00
O727   O     0.50000   0.68573   0.79071   0.00000  Uiso   1.00
O728   O     0.50000   0.81428   0.70928   0.00000  Uiso   1.00
O729   O     0.50000   0.68573   0.70928   0.00000  Uiso   1.00
O730   O     0.50000   0.81427   0.79072   0.00000  Uiso   1.00
O731   O     0.42495   0.75000   0.78132   0.00000  Uiso   1.00
O732   O     0.57505   0.75001   0.71868   0.00000  Uiso   1.00
O733   O     0.42495   0.75000   0.69988   0.00000  Uiso   1.00
O734   O     0.57505   0.75000   0.80011   0.00000  Uiso   1.00
C735   C     0.43998   0.61167   0.81565   0.00000  Uiso   1.00
H736   H     0.46504   0.62773   0.84599   0.00000  Uiso   1.00
H737   H     0.41353   0.63631   0.79564   0.00000  Uiso   1.00
H738   H     0.41595   0.58664   0.83179   0.00000  Uiso   1.00
C739   C     0.43640   0.88665   0.67029   0.00000  Uiso   1.00
H740   H     0.40948   0.86361   0.68558   0.00000  Uiso   1.00
H741   H     0.41288   0.91145   0.64732   0.00000  Uiso   1.00
H742   H     0.45934   0.86833   0.64635   0.00000  Uiso   1.00
C743   C     0.56556   0.52758   0.68544   0.00000  Uiso   1.00
H744   H     0.57006   0.99193   0.68586   0.00000  Uiso   1.00
O745   O     0.58789   0.54945   0.65745   0.00000  Uiso   1.00
C746   C     0.56826   0.97337   0.82802   0.00000  Uiso   1.00
H747   H     0.57315   0.50902   0.82799   0.00000  Uiso   1.00
O748   O     0.59130   0.95201   0.86173   0.00000  Uiso   1.00
C749   C     0.83278   0.66488   0.75021   0.00000  Uiso   1.00
C750   C     0.83267   0.83505   0.74959   0.00000  Uiso   1.00
C751   C     0.87568   0.76620   0.55924   0.00000  Uiso   1.00
C752   C     0.80227   0.72041   0.94225   0.00000  Uiso   1.00
C753   C     0.87472   0.76627   0.60980   0.00000  Uiso   1.00
C754   C     0.80245   0.72128   0.89159   0.00000  Uiso   1.00
C755   C     0.79182   0.73393   0.59945   0.00000  Uiso   1.00
C756   C     0.86368   0.77920   0.89880   0.00000  Uiso   1.00
C757   C     0.79072   0.73416   0.54862   0.00000  Uiso   1.00
C758   C     0.86385   0.78012   0.94951   0.00000  Uiso   1.00
C759   C     0.83317   0.75020   0.52726   0.00000  Uiso   1.00
C760   C     0.83314   0.75021   0.97255   0.00000  Uiso   1.00
C761   C     0.73457   0.74997   0.73756   0.00000  Uiso   1.00
C762   C     0.93210   0.74999   0.76244   0.00000  Uiso   1.00
C763   C     0.67931   0.74996   0.73069   0.00000  Uiso   1.00
C764   C     0.98737   0.74993   0.76931   0.00000  Uiso   1.00
C765   C     0.80950   0.54494   0.78070   0.00000  Uiso   1.00
C766   C     0.80846   0.95428   0.71200   0.00000  Uiso   1.00
C767   C     0.80647   0.59096   0.78186   0.00000  Uiso   1.00
C768   C     0.80509   0.90822   0.71095   0.00000  Uiso   1.00
C769   C     0.83383   0.61642   0.75074   0.00000  Uiso   1.00
C770   C     0.83355   0.88342   0.74893   0.00000  Uiso   1.00
C771   C     0.86306   0.59529   0.71907   0.00000  Uiso   1.00
C772   C     0.86416   0.90506   0.78706   0.00000  Uiso   1.00
C773   C     0.86646   0.54913   0.71830   0.00000  Uiso   1.00
C774   C     0.86782   0.95123   0.78787   0.00000  Uiso   1.00
C775   C     0.83928   0.52409   0.74963   0.00000  Uiso   1.00
C776   C     0.83954   0.97571   0.74976   0.00000  Uiso   1.00
Cu777  Cu    0.83333   0.75000   0.79821   0.00000  Uiso   1.00
Cu778  Cu    0.83333   0.75001   0.70178   0.00000  Uiso   1.00
H779   H     0.99267   0.75001   0.69363   0.00000  Uiso   1.00
H780   H     0.67402   0.74985   0.80636   0.00000  Uiso   1.00
H781   H     0.78854   0.52494   0.80415   0.00000  Uiso   1.00
H782   H     0.78648   0.97386   0.68347   0.00000  Uiso   1.00
H783   H     0.88409   0.61508   0.69552   0.00000  Uiso   1.00
H784   H     0.88600   0.88565   0.81581   0.00000  Uiso   1.00
H785   H     0.91003   0.77820   0.54572   0.00000  Uiso   1.00
H786   H     0.77832   0.69607   0.95723   0.00000  Uiso   1.00
H787   H     0.90753   0.77934   0.63331   0.00000  Uiso   1.00
H788   H     0.77763   0.69893   0.86895   0.00000  Uiso   1.00
H789   H     0.75902   0.72093   0.61481   0.00000  Uiso   1.00
H790   H     0.88767   0.80226   0.88189   0.00000  Uiso   1.00
H791   H     0.75629   0.72226   0.52649   0.00000  Uiso   1.00
H792   H     0.88749   0.80469   0.97010   0.00000  Uiso   1.00
N793   N     0.83333   0.75001   0.62934   0.00000  Uiso   1.00
N794   N     0.83333   0.74999   0.87065   0.00000  Uiso   1.00
O795   O     0.83334   0.68573   0.79071   0.00000  Uiso   1.00
O796   O     0.83333   0.81428   0.70928   0.00000  Uiso   1.00
O797   O     0.83334   0.68573   0.70928   0.00000  Uiso   1.00
O798   O     0.83333   0.81427   0.79072   0.00000  Uiso   1.00
O799   O     0.75828   0.75000   0.78132   0.00000  Uiso   1.00
O800   O     0.90839   0.75001   0.71868   0.00000  Uiso   1.00
O801   O     0.75828   0.75000   0.69988   0.00000  Uiso   1.00
O802   O     0.90839   0.75000   0.80011   0.00000  Uiso   1.00
C803   C     0.77332   0.61167   0.81565   0.00000  Uiso   1.00
H804   H     0.79838   0.62773   0.84599   0.00000  Uiso   1.00
H805   H     0.74686   0.63631   0.79564   0.00000  Uiso   1.00
H806   H     0.74929   0.58664   0.83179   0.00000  Uiso   1.00
C807   C     0.76974   0.88665   0.67029   0.00000  Uiso   1.00
H808   H     0.74281   0.86361   0.68558   0.00000  Uiso   1.00
H809   H     0.74622   0.91145   0.64732   0.00000  Uiso   1.00
H810   H     0.79267   0.86833   0.64635   0.00000  Uiso   1.00
C811   C     0.89889   0.52758   0.68544   0.00000  Uiso   1.00
H812   H     0.90339   0.99193   0.68586   0.00000  Uiso   1.00
O813   O     0.92122   0.54945   0.65745   0.00000  Uiso   1.00
C814   C     0.90159   0.97337   0.82802   0.00000  Uiso   1.00
H815   H     0.90648   0.50902   0.82799   0.00000  Uiso   1.00
O816   O     0.92463   0.95201   0.86173   0.00000  Uiso   1.00
loop_
_geom_bond_atom_site_label_1
_geom_bond_atom_site_label_2
_geom_bond_distance
_geom_bond_site_symmetry_2
_ccdc_geom_bond_type
C1     C21     1.466   .     S
C1     O49     1.294   .     A
C1     O47     1.293   .     A
C2     C22     1.462   .     S
C2     O50     1.295   .     A
C2     O48     1.291   .     A
C3     C5      1.407   .     A
C3     C11     1.411   .     A
C3     H37     1.081   .     S
C4     H38     1.081   .     S
C4     C6      1.406   .     A
C4     C12     1.412   .     A
C5     N45     1.364   .     A
C5     H39     1.081   .     S
C6     N46     1.362   .     A
C6     H40     1.080   .     S
C7     N45     1.364   .     A
C7     C9      1.407   .     A
C7     H41     1.081   .     S
C8     H42     1.082   .     S
C8     C10     1.407   .     A
C8     N46     1.363   .     A
C9     C11     1.411   .     A
C9     H43     1.081   .     S
C10    C12     1.412   .     A
C10    H44     1.081   .     S
C11    C420    1.518   1_554 S
C12    C419    1.518   .     S
C13    C15     1.434   .     S
C13    O53     1.287   .     A
C13    O51     1.285   .     A
C14    O52     1.285   .     A
C14    O54     1.287   .     A
C14    C16     1.434   .     S
C15    C152    1.335   1_455 S
C15    H167    1.087   1_455 S
C16    C83     1.335   .     S
C16    H100    1.087   .     S
C17    H33     1.085   .     S
C17    C19     1.395   .     A
C17    C27     1.397   .     A
C18    H34     1.085   .     S
C18    C28     1.398   .     A
C18    C20     1.395   .     A
C19    C55     1.506   .     S
C19    C21     1.414   .     A
C20    C59     1.509   .     S
C20    C22     1.414   .     A
C21    C23     1.404   .     A
C22    C24     1.402   .     A
C23    H35     1.084   .     S
C23    C25     1.399   .     A
C24    H36     1.084   .     S
C24    C26     1.399   .     A
C25    C27     1.409   .     A
C25    C63     1.486   .     S
C26    C28     1.410   .     A
C26    C66     1.487   .     S
C27    C232    1.463   1_545 S
C28    C231    1.463   .     S
Cu29   Cu30    2.676   .     S
Cu29   N46     2.010   .     S
Cu29   O47     1.956   .     S
Cu29   O50     1.952   .     S
Cu29   O51     1.957   .     S
Cu29   O54     1.959   .     S
Cu30   N45     2.010   .     S
Cu30   O53     1.959   .     S
Cu30   O48     1.956   .     S
Cu30   O49     1.952   .     S
Cu30   O52     1.957   .     S
H31    C83     1.087   .     S
H32    C152    1.087   1_455 S
C55    H56     1.108   .     S
C55    H57     1.111   .     S
C55    H58     1.111   .     S
C59    H60     1.111   .     S
C59    H61     1.111   .     S
C59    H62     1.110   .     S
C63    O65     1.222   .     D
C63    H268    1.085   1_545 S
H64    C267    1.085   .     S
C66    O68     1.221   .     D
C66    H271    1.085   .     S
H67    C270    1.085   1_545 S
C69    C89     1.466   .     S
C69    O117    1.294   .     A
C69    O115    1.293   .     A
C70    C90     1.462   .     S
C70    O118    1.295   .     A
C70    O116    1.291   .     A
C71    C73     1.407   .     A
C71    C79     1.411   .     A
C71    H105    1.081   .     S
C72    H106    1.081   .     S
C72    C74     1.406   .     A
C72    C80     1.412   .     A
C73    N113    1.364   .     A
C73    H107    1.081   .     S
C74    N114    1.362   .     A
C74    H108    1.080   .     S
C75    N113    1.364   .     A
C75    C77     1.407   .     A
C75    H109    1.081   .     S
C76    H110    1.082   .     S
C76    C78     1.407   .     A
C76    N114    1.363   .     A
C77    C79     1.411   .     A
C77    H111    1.081   .     S
C78    C80     1.412   .     A
C78    H112    1.081   .     S
C79    C488    1.518   1_554 S
C80    C487    1.518   .     S
C81    C83     1.434   .     S
C81    O121    1.287   .     A
C81    O119    1.285   .     A
C82    O120    1.285   .     A
C82    O122    1.287   .     A
C82    C84     1.434   .     S
C84    C151    1.335   .     S
C84    H168    1.087   .     S
C85    H101    1.085   .     S
C85    C87     1.395   .     A
C85    C95     1.397   .     A
C86    H102    1.085   .     S
C86    C96     1.398   .     A
C86    C88     1.395   .     A
C87    C123    1.506   .     S
C87    C89     1.414   .     A
C88    C127    1.509   .     S
C88    C90     1.414   .     A
C89    C91     1.404   .     A
C90    C92     1.402   .     A
C91    H103    1.084   .     S
C91    C93     1.399   .     A
C92    H104    1.084   .     S
C92    C94     1.399   .     A
C93    C95     1.409   .     A
C93    C131    1.486   .     S
C94    C96     1.410   .     A
C94    C134    1.487   .     S
C95    C300    1.463   1_545 S
C96    C299    1.463   .     S
Cu97   Cu98    2.676   .     S
Cu97   N114    2.010   .     S
Cu97   O115    1.956   .     S
Cu97   O118    1.952   .     S
Cu97   O119    1.957   .     S
Cu97   O122    1.959   .     S
Cu98   N113    2.010   .     S
Cu98   O121    1.959   .     S
Cu98   O116    1.956   .     S
Cu98   O117    1.952   .     S
Cu98   O120    1.957   .     S
H99    C151    1.087   .     S
C123   H124    1.108   .     S
C123   H125    1.111   .     S
C123   H126    1.111   .     S
C127   H128    1.111   .     S
C127   H129    1.111   .     S
C127   H130    1.110   .     S
C131   O133    1.222   .     D
C131   H336    1.085   1_545 S
H132   C335    1.085   .     S
C134   O136    1.221   .     D
C134   H339    1.085   .     S
H135   C338    1.085   1_545 S
C137   C157    1.466   .     S
C137   O185    1.294   .     A
C137   O183    1.293   .     A
C138   C158    1.462   .     S
C138   O186    1.295   .     A
C138   O184    1.291   .     A
C139   C141    1.407   .     A
C139   C147    1.411   .     A
C139   H173    1.081   .     S
C140   H174    1.081   .     S
C140   C142    1.406   .     A
C140   C148    1.412   .     A
C141   N181    1.364   .     A
C141   H175    1.081   .     S
C142   N182    1.362   .     A
C142   H176    1.080   .     S
C143   N181    1.364   .     A
C143   C145    1.407   .     A
C143   H177    1.081   .     S
C144   H178    1.082   .     S
C144   C146    1.407   .     A
C144   N182    1.363   .     A
C145   C147    1.411   .     A
C145   H179    1.081   .     S
C146   C148    1.412   .     A
C146   H180    1.081   .     S
C147   C556    1.518   1_554 S
C148   C555    1.518   .     S
C149   C151    1.434   .     S
C149   O189    1.287   .     A
C149   O187    1.285   .     A
C150   O188    1.285   .     A
C150   O190    1.287   .     A
C150   C152    1.434   .     S
C152   C15     1.335   1_655 S
C152   H32     1.087   1_655 S
C153   H169    1.085   .     S
C153   C155    1.395   .     A
C153   C163    1.397   .     A
C154   H170    1.085   .     S
C154   C164    1.398   .     A
C154   C156    1.395   .     A
C155   C191    1.506   .     S
C155   C157    1.414   .     A
C156   C195    1.509   .     S
C156   C158    1.414   .     A
C157   C159    1.404   .     A
C158   C160    1.402   .     A
C159   H171    1.084   .     S
C159   C161    1.399   .     A
C160   H172    1.084   .     S
C160   C162    1.399   .     A
C161   C163    1.409   .     A
C161   C199    1.486   .     S
C162   C164    1.410   .     A
C162   C202    1.487   .     S
C163   C368    1.463   1_545 S
C164   C367    1.463   .     S
Cu165  Cu166   2.676   .     S
Cu165  N182    2.010   .     S
Cu165  O183    1.956   .     S
Cu165  O186    1.952   .     S
Cu165  O187    1.957   .     S
Cu165  O190    1.959   .     S
Cu166  N181    2.010   .     S
Cu166  O189    1.959   .     S
Cu166  O184    1.956   .     S
Cu166  O185    1.952   .     S
Cu166  O188    1.957   .     S
H167   C15     1.087   1_655 S
C191   H192    1.108   .     S
C191   H193    1.111   .     S
C191   H194    1.111   .     S
C195   H196    1.111   .     S
C195   H197    1.111   .     S
C195   H198    1.110   .     S
C199   O201    1.222   .     D
C199   H404    1.085   1_545 S
H200   C403    1.085   .     S
C202   O204    1.221   .     D
C202   H407    1.085   .     S
H203   C406    1.085   1_545 S
C205   C225    1.466   .     S
C205   O253    1.294   .     A
C205   O251    1.293   .     A
C206   C226    1.462   .     S
C206   O254    1.295   .     A
C206   O252    1.291   .     A
C207   C209    1.407   .     A
C207   C215    1.411   .     A
C207   H241    1.081   .     S
C208   H242    1.081   .     S
C208   C210    1.406   .     A
C208   C216    1.412   .     A
C209   N249    1.364   .     A
C209   H243    1.081   .     S
C210   N250    1.362   .     A
C210   H244    1.080   .     S
C211   N249    1.364   .     A
C211   C213    1.407   .     A
C211   H245    1.081   .     S
C212   H246    1.082   .     S
C212   C214    1.407   .     A
C212   N250    1.363   .     A
C213   C215    1.411   .     A
C213   H247    1.081   .     S
C214   C216    1.412   .     A
C214   H248    1.081   .     S
C215   C624    1.518   1_554 S
C216   C623    1.518   .     S
C217   C219    1.434   .     S
C217   O257    1.287   .     A
C217   O255    1.285   .     A
C218   O256    1.285   .     A
C218   O258    1.287   .     A
C218   C220    1.434   .     S
C219   C356    1.335   1_455 S
C219   H371    1.087   1_455 S
C220   C287    1.335   .     S
C220   H304    1.087   .     S
C221   H237    1.085   .     S
C221   C223    1.395   .     A
C221   C231    1.397   .     A
C222   H238    1.085   .     S
C222   C232    1.398   .     A
C222   C224    1.395   .     A
C223   C259    1.506   .     S
C223   C225    1.414   .     A
C224   C263    1.509   .     S
C224   C226    1.414   .     A
C225   C227    1.404   .     A
C226   C228    1.402   .     A
C227   H239    1.084   .     S
C227   C229    1.399   .     A
C228   H240    1.084   .     S
C228   C230    1.399   .     A
C229   C231    1.409   .     A
C229   C267    1.486   .     S
C230   C232    1.410   .     A
C230   C270    1.487   .     S
C232   C27     1.463   1_565 S
Cu233  Cu234   2.676   .     S
Cu233  N250    2.010   .     S
Cu233  O251    1.956   .     S
Cu233  O254    1.952   .     S
Cu233  O255    1.957   .     S
Cu233  O258    1.959   .     S
Cu234  N249    2.010   .     S
Cu234  O257    1.959   .     S
Cu234  O252    1.956   .     S
Cu234  O253    1.952   .     S
Cu234  O256    1.957   .     S
H235   C287    1.087   .     S
H236   C356    1.087   1_455 S
C259   H260    1.108   .     S
C259   H261    1.111   .     S
C259   H262    1.111   .     S
C263   H264    1.111   .     S
C263   H265    1.111   .     S
C263   H266    1.110   .     S
C267   O269    1.222   .     D
H268   C63     1.085   1_565 S
C270   O272    1.221   .     D
C270   H67     1.085   1_565 S
C273   C293    1.466   .     S
C273   O321    1.294   .     A
C273   O319    1.293   .     A
C274   C294    1.462   .     S
C274   O322    1.295   .     A
C274   O320    1.291   .     A
C275   C277    1.407   .     A
C275   C283    1.411   .     A
C275   H309    1.081   .     S
C276   H310    1.081   .     S
C276   C278    1.406   .     A
C276   C284    1.412   .     A
C277   N317    1.364   .     A
C277   H311    1.081   .     S
C278   N318    1.362   .     A
C278   H312    1.080   .     S
C279   N317    1.364   .     A
C279   C281    1.407   .     A
C279   H313    1.081   .     S
C280   H314    1.082   .     S
C280   C282    1.407   .     A
C280   N318    1.363   .     A
C281   C283    1.411   .     A
C281   H315    1.081   .     S
C282   C284    1.412   .     A
C282   H316    1.081   .     S
C283   C692    1.518   1_554 S
C284   C691    1.518   .     S
C285   C287    1.434   .     S
C285   O325    1.287   .     A
C285   O323    1.285   .     A
C286   O324    1.285   .     A
C286   O326    1.287   .     A
C286   C288    1.434   .     S
C288   C355    1.335   .     S
C288   H372    1.087   .     S
C289   H305    1.085   .     S
C289   C291    1.395   .     A
C289   C299    1.397   .     A
C290   H306    1.085   .     S
C290   C300    1.398   .     A
C290   C292    1.395   .     A
C291   C327    1.506   .     S
C291   C293    1.414   .     A
C292   C331    1.509   .     S
C292   C294    1.414   .     A
C293   C295    1.404   .     A
C294   C296    1.402   .     A
C295   H307    1.084   .     S
C295   C297    1.399   .     A
C296   H308    1.084   .     S
C296   C298    1.399   .     A
C297   C299    1.409   .     A
C297   C335    1.486   .     S
C298   C300    1.410   .     A
C298   C338    1.487   .     S
C300   C95     1.463   1_565 S
Cu301  Cu302   2.676   .     S
Cu301  N318    2.010   .     S
Cu301  O319    1.956   .     S
Cu301  O322    1.952   .     S
Cu301  O323    1.957   .     S
Cu301  O326    1.959   .     S
Cu302  N317    2.010   .     S
Cu302  O325    1.959   .     S
Cu302  O320    1.956   .     S
Cu302  O321    1.952   .     S
Cu302  O324    1.957   .     S
H303   C355    1.087   .     S
C327   H328    1.108   .     S
C327   H329    1.111   .     S
C327   H330    1.111   .     S
C331   H332    1.111   .     S
C331   H333    1.111   .     S
C331   H334    1.110   .     S
C335   O337    1.222   .     D
H336   C131    1.085   1_565 S
C338   O340    1.221   .     D
C338   H135    1.085   1_565 S
C341   C361    1.466   .     S
C341   O389    1.294   .     A
C341   O387    1.293   .     A
C342   C362    1.462   .     S
C342   O390    1.295   .     A
C342   O388    1.291   .     A
C343   C345    1.407   .     A
C343   C351    1.411   .     A
C343   H377    1.081   .     S
C344   H378    1.081   .     S
C344   C346    1.406   .     A
C344   C352    1.412   .     A
C345   N385    1.364   .     A
C345   H379    1.081   .     S
C346   N386    1.362   .     A
C346   H380    1.080   .     S
C347   N385    1.364   .     A
C347   C349    1.407   .     A
C347   H381    1.081   .     S
C348   H382    1.082   .     S
C348   C350    1.407   .     A
C348   N386    1.363   .     A
C349   C351    1.411   .     A
C349   H383    1.081   .     S
C350   C352    1.412   .     A
C350   H384    1.081   .     S
C351   C760    1.518   1_554 S
C352   C759    1.518   .     S
C353   C355    1.434   .     S
C353   O393    1.287   .     A
C353   O391    1.285   .     A
C354   O392    1.285   .     A
C354   O394    1.287   .     A
C354   C356    1.434   .     S
C356   C219    1.335   1_655 S
C356   H236    1.087   1_655 S
C357   H373    1.085   .     S
C357   C359    1.395   .     A
C357   C367    1.397   .     A
C358   H374    1.085   .     S
C358   C368    1.398   .     A
C358   C360    1.395   .     A
C359   C395    1.506   .     S
C359   C361    1.414   .     A
C360   C399    1.509   .     S
C360   C362    1.414   .     A
C361   C363    1.404   .     A
C362   C364    1.402   .     A
C363   H375    1.084   .     S
C363   C365    1.399   .     A
C364   H376    1.084   .     S
C364   C366    1.399   .     A
C365   C367    1.409   .     A
C365   C403    1.486   .     S
C366   C368    1.410   .     A
C366   C406    1.487   .     S
C368   C163    1.463   1_565 S
Cu369  Cu370   2.676   .     S
Cu369  N386    2.010   .     S
Cu369  O387    1.956   .     S
Cu369  O390    1.952   .     S
Cu369  O391    1.957   .     S
Cu369  O394    1.959   .     S
Cu370  N385    2.010   .     S
Cu370  O393    1.959   .     S
Cu370  O388    1.956   .     S
Cu370  O389    1.952   .     S
Cu370  O392    1.957   .     S
H371   C219    1.087   1_655 S
C395   H396    1.108   .     S
C395   H397    1.111   .     S
C395   H398    1.111   .     S
C399   H400    1.111   .     S
C399   H401    1.111   .     S
C399   H402    1.110   .     S
C403   O405    1.222   .     D
H404   C199    1.085   1_565 S
C406   O408    1.221   .     D
C406   H203    1.085   1_565 S
C409   C429    1.466   .     S
C409   O457    1.294   .     A
C409   O455    1.293   .     A
C410   C430    1.462   .     S
C410   O458    1.295   .     A
C410   O456    1.291   .     A
C411   C413    1.407   .     A
C411   C419    1.411   .     A
C411   H445    1.081   .     S
C412   H446    1.081   .     S
C412   C414    1.406   .     A
C412   C420    1.412   .     A
C413   N453    1.364   .     A
C413   H447    1.081   .     S
C414   N454    1.362   .     A
C414   H448    1.080   .     S
C415   N453    1.364   .     A
C415   C417    1.407   .     A
C415   H449    1.081   .     S
C416   H450    1.082   .     S
C416   C418    1.407   .     A
C416   N454    1.363   .     A
C417   C419    1.411   .     A
C417   H451    1.081   .     S
C418   C420    1.412   .     A
C418   H452    1.081   .     S
C420   C11     1.518   1_556 S
C421   C423    1.434   .     S
C421   O461    1.287   .     A
C421   O459    1.285   .     A
C422   O460    1.285   .     A
C422   O462    1.287   .     A
C422   C424    1.434   .     S
C423   C560    1.335   1_455 S
C423   H575    1.087   1_455 S
C424   C491    1.335   .     S
C424   H508    1.087   .     S
C425   H441    1.085   .     S
C425   C427    1.395   .     A
C425   C435    1.397   .     A
C426   H442    1.085   .     S
C426   C436    1.398   .     A
C426   C428    1.395   .     A
C427   C463    1.506   .     S
C427   C429    1.414   .     A
C428   C467    1.509   .     S
C428   C430    1.414   .     A
C429   C431    1.404   .     A
C430   C432    1.402   .     A
C431   H443    1.084   .     S
C431   C433    1.399   .     A
C432   H444    1.084   .     S
C432   C434    1.399   .     A
C433   C435    1.409   .     A
C433   C471    1.486   .     S
C434   C436    1.410   .     A
C434   C474    1.487   .     S
C435   C640    1.463   1_545 S
C436   C639    1.463   .     S
Cu437  Cu438   2.676   .     S
Cu437  N454    2.010   .     S
Cu437  O455    1.956   .     S
Cu437  O458    1.952   .     S
Cu437  O459    1.957   .     S
Cu437  O462    1.959   .     S
Cu438  N453    2.010   .     S
Cu438  O461    1.959   .     S
Cu438  O456    1.956   .     S
Cu438  O457    1.952   .     S
Cu438  O460    1.957   .     S
H439   C491    1.087   .     S
H440   C560    1.087   1_455 S
C463   H464    1.108   .     S
C463   H465    1.111   .     S
C463   H466    1.111   .     S
C467   H468    1.111   .     S
C467   H469    1.111   .     S
C467   H470    1.110   .     S
C471   O473    1.222   .     D
C471   H676    1.085   1_545 S
H472   C675    1.085   .     S
C474   O476    1.221   .     D
C474   H679    1.085   .     S
H475   C678    1.085   1_545 S
C477   C497    1.466   .     S
C477   O525    1.294   .     A
C477   O523    1.293   .     A
C478   C498    1.462   .     S
C478   O526    1.295   .     A
C478   O524    1.291   .     A
C479   C481    1.407   .     A
C479   C487    1.411   .     A
C479   H513    1.081   .     S
C480   H514    1.081   .     S
C480   C482    1.406   .     A
C480   C488    1.412   .     A
C481   N521    1.364   .     A
C481   H515    1.081   .     S
C482   N522    1.362   .     A
C482   H516    1.080   .     S
C483   N521    1.364   .     A
C483   C485    1.407   .     A
C483   H517    1.081   .     S
C484   H518    1.082   .     S
C484   C486    1.407   .     A
C484   N522    1.363   .     A
C485   C487    1.411   .     A
C485   H519    1.081   .     S
C486   C488    1.412   .     A
C486   H520    1.081   .     S
C488   C79     1.518   1_556 S
C489   C491    1.434   .     S
C489   O529    1.287   .     A
C489   O527    1.285   .     A
C490   O528    1.285   .     A
C490   O530    1.287   .     A
C490   C492    1.434   .     S
C492   C559    1.335   .     S
C492   H576    1.087   .     S
C493   H509    1.085   .     S
C493   C495    1.395   .     A
C493   C503    1.397   .     A
C494   H510    1.085   .     S
C494   C504    1.398   .     A
C494   C496    1.395   .     A
C495   C531    1.506   .     S
C495   C497    1.414   .     A
C496   C535    1.509   .     S
C496   C498    1.414   .     A
C497   C499    1.404   .     A
C498   C500    1.402   .     A
C499   H511    1.084   .     S
C499   C501    1.399   .     A
C500   H512    1.084   .     S
C500   C502    1.399   .     A
C501   C503    1.409   .     A
C501   C539    1.486   .     S
C502   C504    1.410   .     A
C502   C542    1.487   .     S
C503   C708    1.463   1_545 S
C504   C707    1.463   .     S
Cu505  Cu506   2.676   .     S
Cu505  N522    2.010   .     S
Cu505  O523    1.956   .     S
Cu505  O526    1.952   .     S
Cu505  O527    1.957   .     S
Cu505  O530    1.959   .     S
Cu506  N521    2.010   .     S
Cu506  O529    1.959   .     S
Cu506  O524    1.956   .     S
Cu506  O525    1.952   .     S
Cu506  O528    1.957   .     S
H507   C559    1.087   .     S
C531   H532    1.108   .     S
C531   H533    1.111   .     S
C531   H534    1.111   .     S
C535   H536    1.111   .     S
C535   H537    1.111   .     S
C535   H538    1.110   .     S
C539   O541    1.222   .     D
C539   H744    1.085   1_545 S
H540   C743    1.085   .     S
C542   O544    1.221   .     D
C542   H747    1.085   .     S
H543   C746    1.085   1_545 S
C545   C565    1.466   .     S
C545   O593    1.294   .     A
C545   O591    1.293   .     A
C546   C566    1.462   .     S
C546   O594    1.295   .     A
C546   O592    1.291   .     A
C547   C549    1.407   .     A
C547   C555    1.411   .     A
C547   H581    1.081   .     S
C548   H582    1.081   .     S
C548   C550    1.406   .     A
C548   C556    1.412   .     A
C549   N589    1.364   .     A
C549   H583    1.081   .     S
C550   N590    1.362   .     A
C550   H584    1.080   .     S
C551   N589    1.364   .     A
C551   C553    1.407   .     A
C551   H585    1.081   .     S
C552   H586    1.082   .     S
C552   C554    1.407   .     A
C552   N590    1.363   .     A
C553   C555    1.411   .     A
C553   H587    1.081   .     S
C554   C556    1.412   .     A
C554   H588    1.081   .     S
C556   C147    1.518   1_556 S
C557   C559    1.434   .     S
C557   O597    1.287   .     A
C557   O595    1.285   .     A
C558   O596    1.285   .     A
C558   O598    1.287   .     A
C558   C560    1.434   .     S
C560   C423    1.335   1_655 S
C560   H440    1.087   1_655 S
C561   H577    1.085   .     S
C561   C563    1.395   .     A
C561   C571    1.397   .     A
C562   H578    1.085   .     S
C562   C572    1.398   .     A
C562   C564    1.395   .     A
C563   C599    1.506   .     S
C563   C565    1.414   .     A
C564   C603    1.509   .     S
C564   C566    1.414   .     A
C565   C567    1.404   .     A
C566   C568    1.402   .     A
C567   H579    1.084   .     S
C567   C569    1.399   .     A
C568   H580    1.084   .     S
C568   C570    1.399   .     A
C569   C571    1.409   .     A
C569   C607    1.486   .     S
C570   C572    1.410   .     A
C570   C610    1.487   .     S
C571   C776    1.463   1_545 S
C572   C775    1.463   .     S
Cu573  Cu574   2.676   .     S
Cu573  N590    2.010   .     S
Cu573  O591    1.956   .     S
Cu573  O594    1.952   .     S
Cu573  O595    1.957   .     S
Cu573  O598    1.959   .     S
Cu574  N589    2.010   .     S
Cu574  O597    1.959   .     S
Cu574  O592    1.956   .     S
Cu574  O593    1.952   .     S
Cu574  O596    1.957   .     S
H575   C423    1.087   1_655 S
C599   H600    1.108   .     S
C599   H601    1.111   .     S
C599   H602    1.111   .     S
C603   H604    1.111   .     S
C603   H605    1.111   .     S
C603   H606    1.110   .     S
C607   O609    1.222   .     D
C607   H812    1.085   1_545 S
H608   C811    1.085   .     S
C610   O612    1.221   .     D
C610   H815    1.085   .     S
H611   C814    1.085   1_545 S
C613   C633    1.466   .     S
C613   O661    1.294   .     A
C613   O659    1.293   .     A
C614   C634    1.462   .     S
C614   O662    1.295   .     A
C614   O660    1.291   .     A
C615   C617    1.407   .     A
C615   C623    1.411   .     A
C615   H649    1.081   .     S
C616   H650    1.081   .     S
C616   C618    1.406   .     A
C616   C624    1.412   .     A
C617   N657    1.364   .     A
C617   H651    1.081   .     S
C618   N658    1.362   .     A
C618   H652    1.080   .     S
C619   N657    1.364   .     A
C619   C621    1.407   .     A
C619   H653    1.081   .     S
C620   H654    1.082   .     S
C620   C622    1.407   .     A
C620   N658    1.363   .     A
C621   C623    1.411   .     A
C621   H655    1.081   .     S
C622   C624    1.412   .     A
C622   H656    1.081   .     S
C624   C215    1.518   1_556 S
C625   C627    1.434   .     S
C625   O665    1.287   .     A
C625   O663    1.285   .     A
C626   O664    1.285   .     A
C626   O666    1.287   .     A
C626   C628    1.434   .     S
C627   C764    1.335   1_455 S
C627   H779    1.087   1_455 S
C628   C695    1.335   .     S
C628   H712    1.087   .     S
C629   H645    1.085   .     S
C629   C631    1.395   .     A
C629   C639    1.397   .     A
C630   H646    1.085   .     S
C630   C640    1.398   .     A
C630   C632    1.395   .     A
C631   C667    1.506   .     S
C631   C633    1.414   .     A
C632   C671    1.509   .     S
C632   C634    1.414   .     A
C633   C635    1.404   .     A
C634   C636    1.402   .     A
C635   H647    1.084   .     S
C635   C637    1.399   .     A
C636   H648    1.084   .     S
C636   C638    1.399   .     A
C637   C639    1.409   .     A
C637   C675    1.486   .     S
C638   C640    1.410   .     A
C638   C678    1.487   .     S
C640   C435    1.463   1_565 S
Cu641  Cu642   2.676   .     S
Cu641  N658    2.010   .     S
Cu641  O659    1.956   .     S
Cu641  O662    1.952   .     S
Cu641  O663    1.957   .     S
Cu641  O666    1.959   .     S
Cu642  N657    2.010   .     S
Cu642  O665    1.959   .     S
Cu642  O660    1.956   .     S
Cu642  O661    1.952   .     S
Cu642  O664    1.957   .     S
H643   C695    1.087   .     S
H644   C764    1.087   1_455 S
C667   H668    1.108   .     S
C667   H669    1.111   .     S
C667   H670    1.111   .     S
C671   H672    1.111   .     S
C671   H673    1.111   .     S
C671   H674    1.110   .     S
C675   O677    1.222   .     D
H676   C471    1.085   1_565 S
C678   O680    1.221   .     D
C678   H475    1.085   1_565 S
C681   C701    1.466   .     S
C681   O729    1.294   .     A
C681   O727    1.293   .     A
C682   C702    1.462   .     S
C682   O730    1.295   .     A
C682   O728    1.291   .     A
C683   C685    1.407   .     A
C683   C691    1.411   .     A
C683   H717    1.081   .     S
C684   H718    1.081   .     S
C684   C686    1.406   .     A
C684   C692    1.412   .     A
C685   N725    1.364   .     A
C685   H719    1.081   .     S
C686   N726    1.362   .     A
C686   H720    1.080   .     S
C687   N725    1.364   .     A
C687   C689    1.407   .     A
C687   H721    1.081   .     S
C688   H722    1.082   .     S
C688   C690    1.407   .     A
C688   N726    1.363   .     A
C689   C691    1.411   .     A
C689   H723    1.081   .     S
C690   C692    1.412   .     A
C690   H724    1.081   .     S
C692   C283    1.518   1_556 S
C693   C695    1.434   .     S
C693   O733    1.287   .     A
C693   O731    1.285   .     A
C694   O732    1.285   .     A
C694   O734    1.287   .     A
C694   C696    1.434   .     S
C696   C763    1.335   .     S
C696   H780    1.087   .     S
C697   H713    1.085   .     S
C697   C699    1.395   .     A
C697   C707    1.397   .     A
C698   H714    1.085   .     S
C698   C708    1.398   .     A
C698   C700    1.395   .     A
C699   C735    1.506   .     S
C699   C701    1.414   .     A
C700   C739    1.509   .     S
C700   C702    1.414   .     A
C701   C703    1.404   .     A
C702   C704    1.402   .     A
C703   H715    1.084   .     S
C703   C705    1.399   .     A
C704   H716    1.084   .     S
C704   C706    1.399   .     A
C705   C707    1.409   .     A
C705   C743    1.486   .     S
C706   C708    1.410   .     A
C706   C746    1.487   .     S
C708   C503    1.463   1_565 S
Cu709  Cu710   2.676   .     S
Cu709  N726    2.010   .     S
Cu709  O727    1.956   .     S
Cu709  O730    1.952   .     S
Cu709  O731    1.957   .     S
Cu709  O734    1.959   .     S
Cu710  N725    2.010   .     S
Cu710  O733    1.959   .     S
Cu710  O728    1.956   .     S
Cu710  O729    1.952   .     S
Cu710  O732    1.957   .     S
H711   C763    1.087   .     S
C735   H736    1.108   .     S
C735   H737    1.111   .     S
C735   H738    1.111   .     S
C739   H740    1.111   .     S
C739   H741    1.111   .     S
C739   H742    1.110   .     S
C743   O745    1.222   .     D
H744   C539    1.085   1_565 S
C746   O748    1.221   .     D
C746   H543    1.085   1_565 S
C749   C769    1.466   .     S
C749   O797    1.294   .     A
C749   O795    1.293   .     A
C750   C770    1.462   .     S
C750   O798    1.295   .     A
C750   O796    1.291   .     A
C751   C753    1.407   .     A
C751   C759    1.411   .     A
C751   H785    1.081   .     S
C752   H786    1.081   .     S
C752   C754    1.406   .     A
C752   C760    1.412   .     A
C753   N793    1.364   .     A
C753   H787    1.081   .     S
C754   N794    1.362   .     A
C754   H788    1.080   .     S
C755   N793    1.364   .     A
C755   C757    1.407   .     A
C755   H789    1.081   .     S
C756   H790    1.082   .     S
C756   C758    1.407   .     A
C756   N794    1.363   .     A
C757   C759    1.411   .     A
C757   H791    1.081   .     S
C758   C760    1.412   .     A
C758   H792    1.081   .     S
C760   C351    1.518   1_556 S
C761   C763    1.434   .     S
C761   O801    1.287   .     A
C761   O799    1.285   .     A
C762   O800    1.285   .     A
C762   O802    1.287   .     A
C762   C764    1.434   .     S
C764   C627    1.335   1_655 S
C764   H644    1.087   1_655 S
C765   H781    1.085   .     S
C765   C767    1.395   .     A
C765   C775    1.397   .     A
C766   H782    1.085   .     S
C766   C776    1.398   .     A
C766   C768    1.395   .     A
C767   C803    1.506   .     S
C767   C769    1.414   .     A
C768   C807    1.509   .     S
C768   C770    1.414   .     A
C769   C771    1.404   .     A
C770   C772    1.402   .     A
C771   H783    1.084   .     S
C771   C773    1.399   .     A
C772   H784    1.084   .     S
C772   C774    1.399   .     A
C773   C775    1.409   .     A
C773   C811    1.486   .     S
C774   C776    1.410   .     A
C774   C814    1.487   .     S
C776   C571    1.463   1_565 S
Cu777  Cu778   2.676   .     S
Cu777  N794    2.010   .     S
Cu777  O795    1.956   .     S
Cu777  O798    1.952   .     S
Cu777  O799    1.957   .     S
Cu777  O802    1.959   .     S
Cu778  N793    2.010   .     S
Cu778  O801    1.959   .     S
Cu778  O796    1.956   .     S
Cu778  O797    1.952   .     S
Cu778  O800    1.957   .     S
H779   C627    1.087   1_655 S
C803   H804    1.108   .     S
C803   H805    1.111   .     S
C803   H806    1.111   .     S
C807   H808    1.111   .     S
C807   H809    1.111   .     S
C807   H810    1.110   .     S
C811   O813    1.222   .     D
H812   C607    1.085   1_565 S
C814   O816    1.221   .     D
C814   H611    1.085   1_565 S
