data_str_m2_o1_o1_pcu_sym.2
_audit_creation_date              2020-01-03
_audit_creation_method            'Materials Studio'
_symmetry_space_group_name_H-M    'P1'
_symmetry_Int_Tables_number       1
_symmetry_cell_setting            triclinic
loop_
_symmetry_equiv_pos_as_xyz
  x,y,z
_cell_length_a                    31.3858
_cell_length_b                    29.8125
_cell_length_c                    28.9124
_cell_angle_alpha                 89.9999
_cell_angle_beta                  90.0159
_cell_angle_gamma                 90.0000
loop_
_atom_site_label
_atom_site_type_symbol
_atom_site_fract_x
_atom_site_fract_y
_atom_site_fract_z
_atom_site_U_iso_or_equiv
_atom_site_adp_type
_atom_site_occupancy
C1     C     0.05935   0.19056   0.16667   0.00000  Uiso   1.00
C2     C     0.00114   0.28957   0.30860   0.00000  Uiso   1.00
C3     C     0.49886   0.28957   0.02473   0.00000  Uiso   1.00
C4     C     0.00114   0.21043   0.30860   0.00000  Uiso   1.00
C5     C     0.24886   0.46043   0.02473   0.00000  Uiso   1.00
C6     C     0.25114   0.03957   0.30860   0.00000  Uiso   1.00
C7     C     0.24886   0.03957   0.02473   0.00000  Uiso   1.00
C8     C     0.25114   0.46043   0.30860   0.00000  Uiso   1.00
C9     C     0.38709   0.14528   0.12510   0.00000  Uiso   1.00
C10    C     0.11291   0.35472   0.20823   0.00000  Uiso   1.00
C11    C     0.10516   0.36329   0.12508   0.00000  Uiso   1.00
C12    C     0.44065   0.30944   0.16666   0.00000  Uiso   1.00
C13    C     0.39484   0.13671   0.20826   0.00000  Uiso   1.00
C14    C     0.11290   0.14528   0.20824   0.00000  Uiso   1.00
C15    C     0.38710   0.35472   0.12510   0.00000  Uiso   1.00
C16    C     0.39484   0.36328   0.20826   0.00000  Uiso   1.00
C17    C     0.10516   0.13672   0.12508   0.00000  Uiso   1.00
C18    C     0.13709   0.39528   0.12510   0.00000  Uiso   1.00
C19    C     0.36291   0.10472   0.20823   0.00000  Uiso   1.00
C20    C     0.35516   0.11329   0.12508   0.00000  Uiso   1.00
C21    C     0.14484   0.38671   0.20826   0.00000  Uiso   1.00
C22    C     0.36290   0.39528   0.20824   0.00000  Uiso   1.00
C23    C     0.44065   0.19056   0.16666   0.00000  Uiso   1.00
C24    C     0.13710   0.10472   0.12510   0.00000  Uiso   1.00
C25    C     0.14484   0.11328   0.20826   0.00000  Uiso   1.00
C26    C     0.35516   0.38672   0.12508   0.00000  Uiso   1.00
C27    C     0.09289   0.34291   0.16666   0.00000  Uiso   1.00
C28    C     0.40711   0.15709   0.16667   0.00000  Uiso   1.00
C29    C     0.40711   0.34291   0.16667   0.00000  Uiso   1.00
C30    C     0.09289   0.15709   0.16666   0.00000  Uiso   1.00
C31    C     0.34289   0.09291   0.16666   0.00000  Uiso   1.00
C32    C     0.15711   0.40709   0.16667   0.00000  Uiso   1.00
C33    C     0.15711   0.09291   0.16667   0.00000  Uiso   1.00
C34    C     0.05935   0.30944   0.16667   0.00000  Uiso   1.00
C35    C     0.34289   0.40709   0.16666   0.00000  Uiso   1.00
C36    C     0.49080   0.16729   0.04885   0.00000  Uiso   1.00
C37    C     0.00920   0.33271   0.28448   0.00000  Uiso   1.00
C38    C     0.49080   0.33271   0.04885   0.00000  Uiso   1.00
C39    C     0.00920   0.16729   0.28449   0.00000  Uiso   1.00
C40    C     0.24080   0.41729   0.04885   0.00000  Uiso   1.00
C41    C     0.25920   0.08271   0.28448   0.00000  Uiso   1.00
C42    C     0.24080   0.08271   0.04885   0.00000  Uiso   1.00
C43    C     0.25920   0.41729   0.28449   0.00000  Uiso   1.00
C44    C     0.30935   0.44056   0.16667   0.00000  Uiso   1.00
C45    C     0.19065   0.05944   0.16666   0.00000  Uiso   1.00
C46    C     0.19065   0.44056   0.16666   0.00000  Uiso   1.00
C47    C     0.30935   0.05944   0.16667   0.00000  Uiso   1.00
C48    C     0.49886   0.21043   0.02473   0.00000  Uiso   1.00
Cu49   Cu    0.00000   0.25000   0.21355   0.00000  Uiso   1.00
Cu50   Cu    0.00000   0.25000   0.11978   0.00000  Uiso   1.00
Cu51   Cu    0.25000   0.00000   0.21355   0.00000  Uiso   1.00
Cu52   Cu    0.25000   0.00000   0.11978   0.00000  Uiso   1.00
H53    H     0.39584   0.16090   0.09265   0.00000  Uiso   1.00
H54    H     0.35416   0.08910   0.24068   0.00000  Uiso   1.00
H55    H     0.34002   0.10475   0.09258   0.00000  Uiso   1.00
H56    H     0.15998   0.39525   0.24076   0.00000  Uiso   1.00
H57    H     0.35415   0.41090   0.24068   0.00000  Uiso   1.00
H58    H     0.14585   0.08910   0.09265   0.00000  Uiso   1.00
H59    H     0.15997   0.10474   0.24076   0.00000  Uiso   1.00
H60    H     0.34003   0.39526   0.09257   0.00000  Uiso   1.00
H61    H     0.00726   0.15809   0.08001   0.00000  Uiso   1.00
H62    H     0.49274   0.34191   0.25332   0.00000  Uiso   1.00
H63    H     0.00726   0.34191   0.08001   0.00000  Uiso   1.00
H64    H     0.10416   0.33910   0.24068   0.00000  Uiso   1.00
H65    H     0.49275   0.15809   0.25332   0.00000  Uiso   1.00
H66    H     0.25726   0.40809   0.08001   0.00000  Uiso   1.00
H67    H     0.24274   0.09191   0.25332   0.00000  Uiso   1.00
H68    H     0.25725   0.09191   0.08001   0.00000  Uiso   1.00
H69    H     0.24274   0.40809   0.25332   0.00000  Uiso   1.00
H70    H     0.09002   0.35475   0.09258   0.00000  Uiso   1.00
H71    H     0.40998   0.14525   0.24076   0.00000  Uiso   1.00
H72    H     0.10415   0.16090   0.24068   0.00000  Uiso   1.00
H73    H     0.39585   0.33910   0.09265   0.00000  Uiso   1.00
H74    H     0.40997   0.35474   0.24076   0.00000  Uiso   1.00
H75    H     0.09003   0.14526   0.09257   0.00000  Uiso   1.00
H76    H     0.14584   0.41090   0.09265   0.00000  Uiso   1.00
N77    N    -0.00000   0.25000   0.28402   0.00000  Uiso   1.00
N78    N    -0.00000   0.25000   0.04931   0.00000  Uiso   1.00
N79    N     0.25000   0.00000   0.28402   0.00000  Uiso   1.00
N80    N     0.25000   0.00000   0.04931   0.00000  Uiso   1.00
O81    O     0.04508   0.20491   0.20625   0.00000  Uiso   1.00
O82    O     0.20491   0.04509   0.12709   0.00000  Uiso   1.00
O83    O     0.20491   0.04509   0.20625   0.00000  Uiso   1.00
O84    O     0.29508   0.45491   0.12709   0.00000  Uiso   1.00
O85    O     0.20491   0.45491   0.12709   0.00000  Uiso   1.00
O86    O     0.29508   0.04509   0.20625   0.00000  Uiso   1.00
O87    O     0.29508   0.04509   0.12709   0.00000  Uiso   1.00
O88    O     0.20491   0.45491   0.20625   0.00000  Uiso   1.00
O89    O     0.46454   0.14090   0.03360   0.00000  Uiso   1.00
O90    O     0.03546   0.35910   0.29973   0.00000  Uiso   1.00
O91    O     0.46454   0.35910   0.03360   0.00000  Uiso   1.00
O92    O     0.45491   0.29509   0.12709   0.00000  Uiso   1.00
O93    O     0.03545   0.14090   0.29974   0.00000  Uiso   1.00
O94    O     0.21454   0.39090   0.03360   0.00000  Uiso   1.00
O95    O     0.28546   0.10910   0.29974   0.00000  Uiso   1.00
O96    O     0.21454   0.10910   0.03360   0.00000  Uiso   1.00
O97    O     0.28545   0.39090   0.29974   0.00000  Uiso   1.00
O98    O     0.45491   0.29509   0.20625   0.00000  Uiso   1.00
O99    O     0.04508   0.20491   0.12709   0.00000  Uiso   1.00
O100   O     0.45491   0.20491   0.12709   0.00000  Uiso   1.00
O101   O     0.04508   0.29509   0.20625   0.00000  Uiso   1.00
O102   O     0.04508   0.29509   0.12709   0.00000  Uiso   1.00
O103   O     0.45491   0.20491   0.20625   0.00000  Uiso   1.00
O104   O     0.29508   0.45491   0.20625   0.00000  Uiso   1.00
C105   C     0.55935   0.19056   0.16667   0.00000  Uiso   1.00
C106   C     0.50114   0.28957   0.30860   0.00000  Uiso   1.00
C107   C     0.99886   0.28957   0.02473   0.00000  Uiso   1.00
C108   C     0.50114   0.21043   0.30860   0.00000  Uiso   1.00
C109   C     0.74886   0.46043   0.02473   0.00000  Uiso   1.00
C110   C     0.75114   0.03957   0.30860   0.00000  Uiso   1.00
C111   C     0.74886   0.03957   0.02473   0.00000  Uiso   1.00
C112   C     0.75114   0.46043   0.30860   0.00000  Uiso   1.00
C113   C     0.88709   0.14528   0.12510   0.00000  Uiso   1.00
C114   C     0.61291   0.35472   0.20823   0.00000  Uiso   1.00
C115   C     0.60516   0.36329   0.12508   0.00000  Uiso   1.00
C116   C     0.94065   0.30944   0.16666   0.00000  Uiso   1.00
C117   C     0.89484   0.13671   0.20826   0.00000  Uiso   1.00
C118   C     0.61290   0.14528   0.20824   0.00000  Uiso   1.00
C119   C     0.88710   0.35472   0.12510   0.00000  Uiso   1.00
C120   C     0.89484   0.36328   0.20826   0.00000  Uiso   1.00
C121   C     0.60516   0.13672   0.12508   0.00000  Uiso   1.00
C122   C     0.63709   0.39528   0.12510   0.00000  Uiso   1.00
C123   C     0.86291   0.10472   0.20823   0.00000  Uiso   1.00
C124   C     0.85516   0.11329   0.12508   0.00000  Uiso   1.00
C125   C     0.64484   0.38671   0.20826   0.00000  Uiso   1.00
C126   C     0.86290   0.39528   0.20824   0.00000  Uiso   1.00
C127   C     0.94065   0.19056   0.16666   0.00000  Uiso   1.00
C128   C     0.63710   0.10472   0.12510   0.00000  Uiso   1.00
C129   C     0.64484   0.11328   0.20826   0.00000  Uiso   1.00
C130   C     0.85516   0.38672   0.12508   0.00000  Uiso   1.00
C131   C     0.59289   0.34291   0.16666   0.00000  Uiso   1.00
C132   C     0.90711   0.15709   0.16667   0.00000  Uiso   1.00
C133   C     0.90711   0.34291   0.16667   0.00000  Uiso   1.00
C134   C     0.59289   0.15709   0.16666   0.00000  Uiso   1.00
C135   C     0.84289   0.09291   0.16666   0.00000  Uiso   1.00
C136   C     0.65711   0.40709   0.16667   0.00000  Uiso   1.00
C137   C     0.65711   0.09291   0.16667   0.00000  Uiso   1.00
C138   C     0.55935   0.30944   0.16667   0.00000  Uiso   1.00
C139   C     0.84289   0.40709   0.16666   0.00000  Uiso   1.00
C140   C     0.99080   0.16729   0.04885   0.00000  Uiso   1.00
C141   C     0.50920   0.33271   0.28448   0.00000  Uiso   1.00
C142   C     0.99080   0.33271   0.04885   0.00000  Uiso   1.00
C143   C     0.50920   0.16729   0.28449   0.00000  Uiso   1.00
C144   C     0.74080   0.41729   0.04885   0.00000  Uiso   1.00
C145   C     0.75920   0.08271   0.28448   0.00000  Uiso   1.00
C146   C     0.74080   0.08271   0.04885   0.00000  Uiso   1.00
C147   C     0.75920   0.41729   0.28449   0.00000  Uiso   1.00
C148   C     0.80935   0.44056   0.16667   0.00000  Uiso   1.00
C149   C     0.69065   0.05944   0.16666   0.00000  Uiso   1.00
C150   C     0.69065   0.44056   0.16666   0.00000  Uiso   1.00
C151   C     0.80935   0.05944   0.16667   0.00000  Uiso   1.00
C152   C     0.99886   0.21043   0.02473   0.00000  Uiso   1.00
Cu153  Cu    0.50000   0.25000   0.21355   0.00000  Uiso   1.00
Cu154  Cu    0.50000   0.25000   0.11978   0.00000  Uiso   1.00
Cu155  Cu    0.75000   0.00000   0.21355   0.00000  Uiso   1.00
Cu156  Cu    0.75000   0.00000   0.11978   0.00000  Uiso   1.00
H157   H     0.89584   0.16090   0.09265   0.00000  Uiso   1.00
H158   H     0.85416   0.08910   0.24068   0.00000  Uiso   1.00
H159   H     0.84002   0.10475   0.09258   0.00000  Uiso   1.00
H160   H     0.65998   0.39525   0.24076   0.00000  Uiso   1.00
H161   H     0.85415   0.41090   0.24068   0.00000  Uiso   1.00
H162   H     0.64585   0.08910   0.09265   0.00000  Uiso   1.00
H163   H     0.65997   0.10474   0.24076   0.00000  Uiso   1.00
H164   H     0.84003   0.39526   0.09257   0.00000  Uiso   1.00
H165   H     0.50726   0.15809   0.08001   0.00000  Uiso   1.00
H166   H     0.99274   0.34191   0.25332   0.00000  Uiso   1.00
H167   H     0.50726   0.34191   0.08001   0.00000  Uiso   1.00
H168   H     0.60416   0.33910   0.24068   0.00000  Uiso   1.00
H169   H     0.99275   0.15809   0.25332   0.00000  Uiso   1.00
H170   H     0.75726   0.40809   0.08001   0.00000  Uiso   1.00
H171   H     0.74274   0.09191   0.25332   0.00000  Uiso   1.00
H172   H     0.75725   0.09191   0.08001   0.00000  Uiso   1.00
H173   H     0.74274   0.40809   0.25332   0.00000  Uiso   1.00
H174   H     0.59002   0.35475   0.09258   0.00000  Uiso   1.00
H175   H     0.90998   0.14525   0.24076   0.00000  Uiso   1.00
H176   H     0.60415   0.16090   0.24068   0.00000  Uiso   1.00
H177   H     0.89585   0.33910   0.09265   0.00000  Uiso   1.00
H178   H     0.90997   0.35474   0.24076   0.00000  Uiso   1.00
H179   H     0.59003   0.14526   0.09257   0.00000  Uiso   1.00
H180   H     0.64584   0.41090   0.09265   0.00000  Uiso   1.00
N181   N     0.50000   0.25000   0.28402   0.00000  Uiso   1.00
N182   N     0.50000   0.25000   0.04931   0.00000  Uiso   1.00
N183   N     0.75000   0.00000   0.28402   0.00000  Uiso   1.00
N184   N     0.75000   0.00000   0.04931   0.00000  Uiso   1.00
O185   O     0.54508   0.20491   0.20625   0.00000  Uiso   1.00
O186   O     0.70491   0.04509   0.12709   0.00000  Uiso   1.00
O187   O     0.70491   0.04509   0.20625   0.00000  Uiso   1.00
O188   O     0.79508   0.45491   0.12709   0.00000  Uiso   1.00
O189   O     0.70491   0.45491   0.12709   0.00000  Uiso   1.00
O190   O     0.79508   0.04509   0.20625   0.00000  Uiso   1.00
O191   O     0.79508   0.04509   0.12709   0.00000  Uiso   1.00
O192   O     0.70491   0.45491   0.20625   0.00000  Uiso   1.00
O193   O     0.96454   0.14090   0.03360   0.00000  Uiso   1.00
O194   O     0.53546   0.35910   0.29973   0.00000  Uiso   1.00
O195   O     0.96454   0.35910   0.03360   0.00000  Uiso   1.00
O196   O     0.95491   0.29509   0.12709   0.00000  Uiso   1.00
O197   O     0.53545   0.14090   0.29974   0.00000  Uiso   1.00
O198   O     0.71454   0.39090   0.03360   0.00000  Uiso   1.00
O199   O     0.78546   0.10910   0.29974   0.00000  Uiso   1.00
O200   O     0.71454   0.10910   0.03360   0.00000  Uiso   1.00
O201   O     0.78545   0.39090   0.29974   0.00000  Uiso   1.00
O202   O     0.95491   0.29509   0.20625   0.00000  Uiso   1.00
O203   O     0.54508   0.20491   0.12709   0.00000  Uiso   1.00
O204   O     0.95491   0.20491   0.12709   0.00000  Uiso   1.00
O205   O     0.54508   0.29509   0.20625   0.00000  Uiso   1.00
O206   O     0.54508   0.29509   0.12709   0.00000  Uiso   1.00
O207   O     0.95491   0.20491   0.20625   0.00000  Uiso   1.00
O208   O     0.79508   0.45491   0.20625   0.00000  Uiso   1.00
C209   C     0.05935   0.69056   0.16667   0.00000  Uiso   1.00
C210   C     0.00114   0.78957   0.30860   0.00000  Uiso   1.00
C211   C     0.49886   0.78957   0.02473   0.00000  Uiso   1.00
C212   C     0.00114   0.71043   0.30860   0.00000  Uiso   1.00
C213   C     0.24886   0.96043   0.02473   0.00000  Uiso   1.00
C214   C     0.25114   0.53957   0.30860   0.00000  Uiso   1.00
C215   C     0.24886   0.53957   0.02473   0.00000  Uiso   1.00
C216   C     0.25114   0.96043   0.30860   0.00000  Uiso   1.00
C217   C     0.38709   0.64528   0.12510   0.00000  Uiso   1.00
C218   C     0.11291   0.85472   0.20823   0.00000  Uiso   1.00
C219   C     0.10516   0.86329   0.12508   0.00000  Uiso   1.00
C220   C     0.44065   0.80944   0.16666   0.00000  Uiso   1.00
C221   C     0.39484   0.63671   0.20826   0.00000  Uiso   1.00
C222   C     0.11290   0.64528   0.20824   0.00000  Uiso   1.00
C223   C     0.38710   0.85472   0.12510   0.00000  Uiso   1.00
C224   C     0.39484   0.86328   0.20826   0.00000  Uiso   1.00
C225   C     0.10516   0.63672   0.12508   0.00000  Uiso   1.00
C226   C     0.13709   0.89528   0.12510   0.00000  Uiso   1.00
C227   C     0.36291   0.60472   0.20823   0.00000  Uiso   1.00
C228   C     0.35516   0.61329   0.12508   0.00000  Uiso   1.00
C229   C     0.14484   0.88671   0.20826   0.00000  Uiso   1.00
C230   C     0.36290   0.89528   0.20824   0.00000  Uiso   1.00
C231   C     0.44065   0.69056   0.16666   0.00000  Uiso   1.00
C232   C     0.13710   0.60472   0.12510   0.00000  Uiso   1.00
C233   C     0.14484   0.61328   0.20826   0.00000  Uiso   1.00
C234   C     0.35516   0.88672   0.12508   0.00000  Uiso   1.00
C235   C     0.09289   0.84291   0.16666   0.00000  Uiso   1.00
C236   C     0.40711   0.65709   0.16667   0.00000  Uiso   1.00
C237   C     0.40711   0.84291   0.16667   0.00000  Uiso   1.00
C238   C     0.09289   0.65709   0.16666   0.00000  Uiso   1.00
C239   C     0.34289   0.59291   0.16666   0.00000  Uiso   1.00
C240   C     0.15711   0.90709   0.16667   0.00000  Uiso   1.00
C241   C     0.15711   0.59291   0.16667   0.00000  Uiso   1.00
C242   C     0.05935   0.80944   0.16667   0.00000  Uiso   1.00
C243   C     0.34289   0.90709   0.16666   0.00000  Uiso   1.00
C244   C     0.49080   0.66729   0.04885   0.00000  Uiso   1.00
C245   C     0.00920   0.83271   0.28448   0.00000  Uiso   1.00
C246   C     0.49080   0.83271   0.04885   0.00000  Uiso   1.00
C247   C     0.00920   0.66729   0.28449   0.00000  Uiso   1.00
C248   C     0.24080   0.91729   0.04885   0.00000  Uiso   1.00
C249   C     0.25920   0.58271   0.28448   0.00000  Uiso   1.00
C250   C     0.24080   0.58271   0.04885   0.00000  Uiso   1.00
C251   C     0.25920   0.91729   0.28449   0.00000  Uiso   1.00
C252   C     0.30935   0.94056   0.16667   0.00000  Uiso   1.00
C253   C     0.19065   0.55944   0.16666   0.00000  Uiso   1.00
C254   C     0.19065   0.94056   0.16666   0.00000  Uiso   1.00
C255   C     0.30935   0.55944   0.16667   0.00000  Uiso   1.00
C256   C     0.49886   0.71043   0.02473   0.00000  Uiso   1.00
Cu257  Cu    0.00000   0.75000   0.21355   0.00000  Uiso   1.00
Cu258  Cu    0.00000   0.75000   0.11978   0.00000  Uiso   1.00
Cu259  Cu    0.25000   0.50000   0.21355   0.00000  Uiso   1.00
Cu260  Cu    0.25000   0.50000   0.11978   0.00000  Uiso   1.00
H261   H     0.39584   0.66090   0.09265   0.00000  Uiso   1.00
H262   H     0.35416   0.58910   0.24068   0.00000  Uiso   1.00
H263   H     0.34002   0.60475   0.09258   0.00000  Uiso   1.00
H264   H     0.15998   0.89525   0.24076   0.00000  Uiso   1.00
H265   H     0.35415   0.91090   0.24068   0.00000  Uiso   1.00
H266   H     0.14585   0.58910   0.09265   0.00000  Uiso   1.00
H267   H     0.15997   0.60474   0.24076   0.00000  Uiso   1.00
H268   H     0.34003   0.89526   0.09257   0.00000  Uiso   1.00
H269   H     0.00726   0.65809   0.08001   0.00000  Uiso   1.00
H270   H     0.49274   0.84191   0.25332   0.00000  Uiso   1.00
H271   H     0.00726   0.84191   0.08001   0.00000  Uiso   1.00
H272   H     0.10416   0.83910   0.24068   0.00000  Uiso   1.00
H273   H     0.49275   0.65809   0.25332   0.00000  Uiso   1.00
H274   H     0.25726   0.90809   0.08001   0.00000  Uiso   1.00
H275   H     0.24274   0.59191   0.25332   0.00000  Uiso   1.00
H276   H     0.25725   0.59191   0.08001   0.00000  Uiso   1.00
H277   H     0.24274   0.90809   0.25332   0.00000  Uiso   1.00
H278   H     0.09002   0.85475   0.09258   0.00000  Uiso   1.00
H279   H     0.40998   0.64525   0.24076   0.00000  Uiso   1.00
H280   H     0.10415   0.66090   0.24068   0.00000  Uiso   1.00
H281   H     0.39585   0.83910   0.09265   0.00000  Uiso   1.00
H282   H     0.40997   0.85474   0.24076   0.00000  Uiso   1.00
H283   H     0.09003   0.64526   0.09257   0.00000  Uiso   1.00
H284   H     0.14584   0.91090   0.09265   0.00000  Uiso   1.00
N285   N    -0.00000   0.75000   0.28402   0.00000  Uiso   1.00
N286   N    -0.00000   0.75000   0.04931   0.00000  Uiso   1.00
N287   N     0.25000   0.50000   0.28402   0.00000  Uiso   1.00
N288   N     0.25000   0.50000   0.04931   0.00000  Uiso   1.00
O289   O     0.04508   0.70491   0.20625   0.00000  Uiso   1.00
O290   O     0.20491   0.54509   0.12709   0.00000  Uiso   1.00
O291   O     0.20491   0.54509   0.20625   0.00000  Uiso   1.00
O292   O     0.29508   0.95491   0.12709   0.00000  Uiso   1.00
O293   O     0.20491   0.95491   0.12709   0.00000  Uiso   1.00
O294   O     0.29508   0.54509   0.20625   0.00000  Uiso   1.00
O295   O     0.29508   0.54509   0.12709   0.00000  Uiso   1.00
O296   O     0.20491   0.95491   0.20625   0.00000  Uiso   1.00
O297   O     0.46454   0.64090   0.03360   0.00000  Uiso   1.00
O298   O     0.03546   0.85910   0.29973   0.00000  Uiso   1.00
O299   O     0.46454   0.85910   0.03360   0.00000  Uiso   1.00
O300   O     0.45491   0.79509   0.12709   0.00000  Uiso   1.00
O301   O     0.03545   0.64090   0.29974   0.00000  Uiso   1.00
O302   O     0.21454   0.89090   0.03360   0.00000  Uiso   1.00
O303   O     0.28546   0.60910   0.29974   0.00000  Uiso   1.00
O304   O     0.21454   0.60910   0.03360   0.00000  Uiso   1.00
O305   O     0.28545   0.89090   0.29974   0.00000  Uiso   1.00
O306   O     0.45491   0.79509   0.20625   0.00000  Uiso   1.00
O307   O     0.04508   0.70491   0.12709   0.00000  Uiso   1.00
O308   O     0.45491   0.70491   0.12709   0.00000  Uiso   1.00
O309   O     0.04508   0.79509   0.20625   0.00000  Uiso   1.00
O310   O     0.04508   0.79509   0.12709   0.00000  Uiso   1.00
O311   O     0.45491   0.70491   0.20625   0.00000  Uiso   1.00
O312   O     0.29508   0.95491   0.20625   0.00000  Uiso   1.00
C313   C     0.55935   0.69056   0.16667   0.00000  Uiso   1.00
C314   C     0.50114   0.78957   0.30860   0.00000  Uiso   1.00
C315   C     0.99886   0.78957   0.02473   0.00000  Uiso   1.00
C316   C     0.50114   0.71043   0.30860   0.00000  Uiso   1.00
C317   C     0.74886   0.96043   0.02473   0.00000  Uiso   1.00
C318   C     0.75114   0.53957   0.30860   0.00000  Uiso   1.00
C319   C     0.74886   0.53957   0.02473   0.00000  Uiso   1.00
C320   C     0.75114   0.96043   0.30860   0.00000  Uiso   1.00
C321   C     0.88709   0.64528   0.12510   0.00000  Uiso   1.00
C322   C     0.61291   0.85472   0.20823   0.00000  Uiso   1.00
C323   C     0.60516   0.86329   0.12508   0.00000  Uiso   1.00
C324   C     0.94065   0.80944   0.16666   0.00000  Uiso   1.00
C325   C     0.89484   0.63671   0.20826   0.00000  Uiso   1.00
C326   C     0.61290   0.64528   0.20824   0.00000  Uiso   1.00
C327   C     0.88710   0.85472   0.12510   0.00000  Uiso   1.00
C328   C     0.89484   0.86328   0.20826   0.00000  Uiso   1.00
C329   C     0.60516   0.63672   0.12508   0.00000  Uiso   1.00
C330   C     0.63709   0.89528   0.12510   0.00000  Uiso   1.00
C331   C     0.86291   0.60472   0.20823   0.00000  Uiso   1.00
C332   C     0.85516   0.61329   0.12508   0.00000  Uiso   1.00
C333   C     0.64484   0.88671   0.20826   0.00000  Uiso   1.00
C334   C     0.86290   0.89528   0.20824   0.00000  Uiso   1.00
C335   C     0.94065   0.69056   0.16666   0.00000  Uiso   1.00
C336   C     0.63710   0.60472   0.12510   0.00000  Uiso   1.00
C337   C     0.64484   0.61328   0.20826   0.00000  Uiso   1.00
C338   C     0.85516   0.88672   0.12508   0.00000  Uiso   1.00
C339   C     0.59289   0.84291   0.16666   0.00000  Uiso   1.00
C340   C     0.90711   0.65709   0.16667   0.00000  Uiso   1.00
C341   C     0.90711   0.84291   0.16667   0.00000  Uiso   1.00
C342   C     0.59289   0.65709   0.16666   0.00000  Uiso   1.00
C343   C     0.84289   0.59291   0.16666   0.00000  Uiso   1.00
C344   C     0.65711   0.90709   0.16667   0.00000  Uiso   1.00
C345   C     0.65711   0.59291   0.16667   0.00000  Uiso   1.00
C346   C     0.55935   0.80944   0.16667   0.00000  Uiso   1.00
C347   C     0.84289   0.90709   0.16666   0.00000  Uiso   1.00
C348   C     0.99080   0.66729   0.04885   0.00000  Uiso   1.00
C349   C     0.50920   0.83271   0.28448   0.00000  Uiso   1.00
C350   C     0.99080   0.83271   0.04885   0.00000  Uiso   1.00
C351   C     0.50920   0.66729   0.28449   0.00000  Uiso   1.00
C352   C     0.74080   0.91729   0.04885   0.00000  Uiso   1.00
C353   C     0.75920   0.58271   0.28448   0.00000  Uiso   1.00
C354   C     0.74080   0.58271   0.04885   0.00000  Uiso   1.00
C355   C     0.75920   0.91729   0.28449   0.00000  Uiso   1.00
C356   C     0.80935   0.94056   0.16667   0.00000  Uiso   1.00
C357   C     0.69065   0.55944   0.16666   0.00000  Uiso   1.00
C358   C     0.69065   0.94056   0.16666   0.00000  Uiso   1.00
C359   C     0.80935   0.55944   0.16667   0.00000  Uiso   1.00
C360   C     0.99886   0.71043   0.02473   0.00000  Uiso   1.00
Cu361  Cu    0.50000   0.75000   0.21355   0.00000  Uiso   1.00
Cu362  Cu    0.50000   0.75000   0.11978   0.00000  Uiso   1.00
Cu363  Cu    0.75000   0.50000   0.21355   0.00000  Uiso   1.00
Cu364  Cu    0.75000   0.50000   0.11978   0.00000  Uiso   1.00
H365   H     0.89584   0.66090   0.09265   0.00000  Uiso   1.00
H366   H     0.85416   0.58910   0.24068   0.00000  Uiso   1.00
H367   H     0.84002   0.60475   0.09258   0.00000  Uiso   1.00
H368   H     0.65998   0.89525   0.24076   0.00000  Uiso   1.00
H369   H     0.85415   0.91090   0.24068   0.00000  Uiso   1.00
H370   H     0.64585   0.58910   0.09265   0.00000  Uiso   1.00
H371   H     0.65997   0.60474   0.24076   0.00000  Uiso   1.00
H372   H     0.84003   0.89526   0.09257   0.00000  Uiso   1.00
H373   H     0.50726   0.65809   0.08001   0.00000  Uiso   1.00
H374   H     0.99274   0.84191   0.25332   0.00000  Uiso   1.00
H375   H     0.50726   0.84191   0.08001   0.00000  Uiso   1.00
H376   H     0.60416   0.83910   0.24068   0.00000  Uiso   1.00
H377   H     0.99275   0.65809   0.25332   0.00000  Uiso   1.00
H378   H     0.75726   0.90809   0.08001   0.00000  Uiso   1.00
H379   H     0.74274   0.59191   0.25332   0.00000  Uiso   1.00
H380   H     0.75725   0.59191   0.08001   0.00000  Uiso   1.00
H381   H     0.74274   0.90809   0.25332   0.00000  Uiso   1.00
H382   H     0.59002   0.85475   0.09258   0.00000  Uiso   1.00
H383   H     0.90998   0.64525   0.24076   0.00000  Uiso   1.00
H384   H     0.60415   0.66090   0.24068   0.00000  Uiso   1.00
H385   H     0.89585   0.83910   0.09265   0.00000  Uiso   1.00
H386   H     0.90997   0.85474   0.24076   0.00000  Uiso   1.00
H387   H     0.59003   0.64526   0.09257   0.00000  Uiso   1.00
H388   H     0.64584   0.91090   0.09265   0.00000  Uiso   1.00
N389   N     0.50000   0.75000   0.28402   0.00000  Uiso   1.00
N390   N     0.50000   0.75000   0.04931   0.00000  Uiso   1.00
N391   N     0.75000   0.50000   0.28402   0.00000  Uiso   1.00
N392   N     0.75000   0.50000   0.04931   0.00000  Uiso   1.00
O393   O     0.54508   0.70491   0.20625   0.00000  Uiso   1.00
O394   O     0.70491   0.54509   0.12709   0.00000  Uiso   1.00
O395   O     0.70491   0.54509   0.20625   0.00000  Uiso   1.00
O396   O     0.79508   0.95491   0.12709   0.00000  Uiso   1.00
O397   O     0.70491   0.95491   0.12709   0.00000  Uiso   1.00
O398   O     0.79508   0.54509   0.20625   0.00000  Uiso   1.00
O399   O     0.79508   0.54509   0.12709   0.00000  Uiso   1.00
O400   O     0.70491   0.95491   0.20625   0.00000  Uiso   1.00
O401   O     0.96454   0.64090   0.03360   0.00000  Uiso   1.00
O402   O     0.53546   0.85910   0.29973   0.00000  Uiso   1.00
O403   O     0.96454   0.85910   0.03360   0.00000  Uiso   1.00
O404   O     0.95491   0.79509   0.12709   0.00000  Uiso   1.00
O405   O     0.53545   0.64090   0.29974   0.00000  Uiso   1.00
O406   O     0.71454   0.89090   0.03360   0.00000  Uiso   1.00
O407   O     0.78546   0.60910   0.29974   0.00000  Uiso   1.00
O408   O     0.71454   0.60910   0.03360   0.00000  Uiso   1.00
O409   O     0.78545   0.89090   0.29974   0.00000  Uiso   1.00
O410   O     0.95491   0.79509   0.20625   0.00000  Uiso   1.00
O411   O     0.54508   0.70491   0.12709   0.00000  Uiso   1.00
O412   O     0.95491   0.70491   0.12709   0.00000  Uiso   1.00
O413   O     0.54508   0.79509   0.20625   0.00000  Uiso   1.00
O414   O     0.54508   0.79509   0.12709   0.00000  Uiso   1.00
O415   O     0.95491   0.70491   0.20625   0.00000  Uiso   1.00
O416   O     0.79508   0.95491   0.20625   0.00000  Uiso   1.00
C417   C     0.05935   0.19056   0.50000   0.00000  Uiso   1.00
C418   C     0.00114   0.28957   0.64193   0.00000  Uiso   1.00
C419   C     0.49886   0.28957   0.35806   0.00000  Uiso   1.00
C420   C     0.00114   0.21043   0.64193   0.00000  Uiso   1.00
C421   C     0.24886   0.46043   0.35807   0.00000  Uiso   1.00
C422   C     0.25114   0.03957   0.64193   0.00000  Uiso   1.00
C423   C     0.24886   0.03957   0.35806   0.00000  Uiso   1.00
C424   C     0.25114   0.46043   0.64193   0.00000  Uiso   1.00
C425   C     0.38709   0.14528   0.45843   0.00000  Uiso   1.00
C426   C     0.11291   0.35472   0.54157   0.00000  Uiso   1.00
C427   C     0.10516   0.36329   0.45841   0.00000  Uiso   1.00
C428   C     0.44065   0.30944   0.50000   0.00000  Uiso   1.00
C429   C     0.39484   0.13671   0.54159   0.00000  Uiso   1.00
C430   C     0.11290   0.14528   0.54157   0.00000  Uiso   1.00
C431   C     0.38710   0.35472   0.45843   0.00000  Uiso   1.00
C432   C     0.39484   0.36328   0.54159   0.00000  Uiso   1.00
C433   C     0.10516   0.13672   0.45841   0.00000  Uiso   1.00
C434   C     0.13709   0.39528   0.45843   0.00000  Uiso   1.00
C435   C     0.36291   0.10472   0.54157   0.00000  Uiso   1.00
C436   C     0.35516   0.11329   0.45841   0.00000  Uiso   1.00
C437   C     0.14484   0.38671   0.54159   0.00000  Uiso   1.00
C438   C     0.36290   0.39528   0.54157   0.00000  Uiso   1.00
C439   C     0.44065   0.19056   0.50000   0.00000  Uiso   1.00
C440   C     0.13710   0.10472   0.45843   0.00000  Uiso   1.00
C441   C     0.14484   0.11328   0.54159   0.00000  Uiso   1.00
C442   C     0.35516   0.38672   0.45841   0.00000  Uiso   1.00
C443   C     0.09289   0.34291   0.49999   0.00000  Uiso   1.00
C444   C     0.40711   0.15709   0.50000   0.00000  Uiso   1.00
C445   C     0.40711   0.34291   0.50000   0.00000  Uiso   1.00
C446   C     0.09289   0.15709   0.49999   0.00000  Uiso   1.00
C447   C     0.34289   0.09291   0.49999   0.00000  Uiso   1.00
C448   C     0.15711   0.40709   0.50000   0.00000  Uiso   1.00
C449   C     0.15711   0.09291   0.50000   0.00000  Uiso   1.00
C450   C     0.05935   0.30944   0.50000   0.00000  Uiso   1.00
C451   C     0.34289   0.40709   0.49999   0.00000  Uiso   1.00
C452   C     0.49080   0.16729   0.38218   0.00000  Uiso   1.00
C453   C     0.00920   0.33271   0.61782   0.00000  Uiso   1.00
C454   C     0.49080   0.33271   0.38218   0.00000  Uiso   1.00
C455   C     0.00920   0.16729   0.61782   0.00000  Uiso   1.00
C456   C     0.24080   0.41729   0.38218   0.00000  Uiso   1.00
C457   C     0.25920   0.08271   0.61782   0.00000  Uiso   1.00
C458   C     0.24080   0.08271   0.38218   0.00000  Uiso   1.00
C459   C     0.25920   0.41729   0.61782   0.00000  Uiso   1.00
C460   C     0.30935   0.44056   0.50000   0.00000  Uiso   1.00
C461   C     0.19065   0.05944   0.50000   0.00000  Uiso   1.00
C462   C     0.19065   0.44056   0.50000   0.00000  Uiso   1.00
C463   C     0.30935   0.05944   0.50000   0.00000  Uiso   1.00
C464   C     0.49886   0.21043   0.35807   0.00000  Uiso   1.00
Cu465  Cu    0.00000   0.25000   0.54689   0.00000  Uiso   1.00
Cu466  Cu    0.00000   0.25000   0.45311   0.00000  Uiso   1.00
Cu467  Cu    0.25000   0.00000   0.54689   0.00000  Uiso   1.00
Cu468  Cu    0.25000   0.00000   0.45311   0.00000  Uiso   1.00
H469   H     0.39584   0.16090   0.42598   0.00000  Uiso   1.00
H470   H     0.35416   0.08910   0.57402   0.00000  Uiso   1.00
H471   H     0.34002   0.10475   0.42591   0.00000  Uiso   1.00
H472   H     0.15998   0.39525   0.57409   0.00000  Uiso   1.00
H473   H     0.35415   0.41090   0.57402   0.00000  Uiso   1.00
H474   H     0.14585   0.08910   0.42598   0.00000  Uiso   1.00
H475   H     0.15997   0.10474   0.57409   0.00000  Uiso   1.00
H476   H     0.34003   0.39526   0.42591   0.00000  Uiso   1.00
H477   H     0.00726   0.15809   0.41334   0.00000  Uiso   1.00
H478   H     0.49274   0.34191   0.58666   0.00000  Uiso   1.00
H479   H     0.00726   0.34191   0.41334   0.00000  Uiso   1.00
H480   H     0.10416   0.33910   0.57402   0.00000  Uiso   1.00
H481   H     0.49275   0.15809   0.58665   0.00000  Uiso   1.00
H482   H     0.25726   0.40809   0.41334   0.00000  Uiso   1.00
H483   H     0.24274   0.09191   0.58666   0.00000  Uiso   1.00
H484   H     0.25725   0.09191   0.41334   0.00000  Uiso   1.00
H485   H     0.24274   0.40809   0.58665   0.00000  Uiso   1.00
H486   H     0.09002   0.35475   0.42591   0.00000  Uiso   1.00
H487   H     0.40998   0.14525   0.57409   0.00000  Uiso   1.00
H488   H     0.10415   0.16090   0.57402   0.00000  Uiso   1.00
H489   H     0.39585   0.33910   0.42598   0.00000  Uiso   1.00
H490   H     0.40997   0.35474   0.57409   0.00000  Uiso   1.00
H491   H     0.09003   0.14526   0.42591   0.00000  Uiso   1.00
H492   H     0.14584   0.41090   0.42598   0.00000  Uiso   1.00
N493   N    -0.00000   0.25000   0.61736   0.00000  Uiso   1.00
N494   N    -0.00000   0.25000   0.38264   0.00000  Uiso   1.00
N495   N     0.25000   0.00000   0.61736   0.00000  Uiso   1.00
N496   N     0.25000   0.00000   0.38264   0.00000  Uiso   1.00
O497   O     0.04508   0.20491   0.53958   0.00000  Uiso   1.00
O498   O     0.20491   0.04509   0.46042   0.00000  Uiso   1.00
O499   O     0.20491   0.04509   0.53958   0.00000  Uiso   1.00
O500   O     0.29508   0.45491   0.46042   0.00000  Uiso   1.00
O501   O     0.20491   0.45491   0.46042   0.00000  Uiso   1.00
O502   O     0.29508   0.04509   0.53958   0.00000  Uiso   1.00
O503   O     0.29508   0.04509   0.46042   0.00000  Uiso   1.00
O504   O     0.20491   0.45491   0.53958   0.00000  Uiso   1.00
O505   O     0.46454   0.14090   0.36693   0.00000  Uiso   1.00
O506   O     0.03546   0.35910   0.63307   0.00000  Uiso   1.00
O507   O     0.46454   0.35910   0.36693   0.00000  Uiso   1.00
O508   O     0.45491   0.29509   0.46042   0.00000  Uiso   1.00
O509   O     0.03545   0.14090   0.63307   0.00000  Uiso   1.00
O510   O     0.21454   0.39090   0.36693   0.00000  Uiso   1.00
O511   O     0.28546   0.10910   0.63307   0.00000  Uiso   1.00
O512   O     0.21454   0.10910   0.36693   0.00000  Uiso   1.00
O513   O     0.28545   0.39090   0.63307   0.00000  Uiso   1.00
O514   O     0.45491   0.29509   0.53958   0.00000  Uiso   1.00
O515   O     0.04508   0.20491   0.46042   0.00000  Uiso   1.00
O516   O     0.45491   0.20491   0.46042   0.00000  Uiso   1.00
O517   O     0.04508   0.29509   0.53958   0.00000  Uiso   1.00
O518   O     0.04508   0.29509   0.46042   0.00000  Uiso   1.00
O519   O     0.45491   0.20491   0.53958   0.00000  Uiso   1.00
O520   O     0.29508   0.45491   0.53958   0.00000  Uiso   1.00
C521   C     0.55935   0.19056   0.50000   0.00000  Uiso   1.00
C522   C     0.50114   0.28957   0.64193   0.00000  Uiso   1.00
C523   C     0.99886   0.28957   0.35806   0.00000  Uiso   1.00
C524   C     0.50114   0.21043   0.64193   0.00000  Uiso   1.00
C525   C     0.74886   0.46043   0.35807   0.00000  Uiso   1.00
C526   C     0.75114   0.03957   0.64193   0.00000  Uiso   1.00
C527   C     0.74886   0.03957   0.35806   0.00000  Uiso   1.00
C528   C     0.75114   0.46043   0.64193   0.00000  Uiso   1.00
C529   C     0.88709   0.14528   0.45843   0.00000  Uiso   1.00
C530   C     0.61291   0.35472   0.54157   0.00000  Uiso   1.00
C531   C     0.60516   0.36329   0.45841   0.00000  Uiso   1.00
C532   C     0.94065   0.30944   0.50000   0.00000  Uiso   1.00
C533   C     0.89484   0.13671   0.54159   0.00000  Uiso   1.00
C534   C     0.61290   0.14528   0.54157   0.00000  Uiso   1.00
C535   C     0.88710   0.35472   0.45843   0.00000  Uiso   1.00
C536   C     0.89484   0.36328   0.54159   0.00000  Uiso   1.00
C537   C     0.60516   0.13672   0.45841   0.00000  Uiso   1.00
C538   C     0.63709   0.39528   0.45843   0.00000  Uiso   1.00
C539   C     0.86291   0.10472   0.54157   0.00000  Uiso   1.00
C540   C     0.85516   0.11329   0.45841   0.00000  Uiso   1.00
C541   C     0.64484   0.38671   0.54159   0.00000  Uiso   1.00
C542   C     0.86290   0.39528   0.54157   0.00000  Uiso   1.00
C543   C     0.94065   0.19056   0.50000   0.00000  Uiso   1.00
C544   C     0.63710   0.10472   0.45843   0.00000  Uiso   1.00
C545   C     0.64484   0.11328   0.54159   0.00000  Uiso   1.00
C546   C     0.85516   0.38672   0.45841   0.00000  Uiso   1.00
C547   C     0.59289   0.34291   0.49999   0.00000  Uiso   1.00
C548   C     0.90711   0.15709   0.50000   0.00000  Uiso   1.00
C549   C     0.90711   0.34291   0.50000   0.00000  Uiso   1.00
C550   C     0.59289   0.15709   0.49999   0.00000  Uiso   1.00
C551   C     0.84289   0.09291   0.49999   0.00000  Uiso   1.00
C552   C     0.65711   0.40709   0.50000   0.00000  Uiso   1.00
C553   C     0.65711   0.09291   0.50000   0.00000  Uiso   1.00
C554   C     0.55935   0.30944   0.50000   0.00000  Uiso   1.00
C555   C     0.84289   0.40709   0.49999   0.00000  Uiso   1.00
C556   C     0.99080   0.16729   0.38218   0.00000  Uiso   1.00
C557   C     0.50920   0.33271   0.61782   0.00000  Uiso   1.00
C558   C     0.99080   0.33271   0.38218   0.00000  Uiso   1.00
C559   C     0.50920   0.16729   0.61782   0.00000  Uiso   1.00
C560   C     0.74080   0.41729   0.38218   0.00000  Uiso   1.00
C561   C     0.75920   0.08271   0.61782   0.00000  Uiso   1.00
C562   C     0.74080   0.08271   0.38218   0.00000  Uiso   1.00
C563   C     0.75920   0.41729   0.61782   0.00000  Uiso   1.00
C564   C     0.80935   0.44056   0.50000   0.00000  Uiso   1.00
C565   C     0.69065   0.05944   0.50000   0.00000  Uiso   1.00
C566   C     0.69065   0.44056   0.50000   0.00000  Uiso   1.00
C567   C     0.80935   0.05944   0.50000   0.00000  Uiso   1.00
C568   C     0.99886   0.21043   0.35807   0.00000  Uiso   1.00
Cu569  Cu    0.50000   0.25000   0.54689   0.00000  Uiso   1.00
Cu570  Cu    0.50000   0.25000   0.45311   0.00000  Uiso   1.00
Cu571  Cu    0.75000   0.00000   0.54689   0.00000  Uiso   1.00
Cu572  Cu    0.75000   0.00000   0.45311   0.00000  Uiso   1.00
H573   H     0.89584   0.16090   0.42598   0.00000  Uiso   1.00
H574   H     0.85416   0.08910   0.57402   0.00000  Uiso   1.00
H575   H     0.84002   0.10475   0.42591   0.00000  Uiso   1.00
H576   H     0.65998   0.39525   0.57409   0.00000  Uiso   1.00
H577   H     0.85415   0.41090   0.57402   0.00000  Uiso   1.00
H578   H     0.64585   0.08910   0.42598   0.00000  Uiso   1.00
H579   H     0.65997   0.10474   0.57409   0.00000  Uiso   1.00
H580   H     0.84003   0.39526   0.42591   0.00000  Uiso   1.00
H581   H     0.50726   0.15809   0.41334   0.00000  Uiso   1.00
H582   H     0.99274   0.34191   0.58666   0.00000  Uiso   1.00
H583   H     0.50726   0.34191   0.41334   0.00000  Uiso   1.00
H584   H     0.60416   0.33910   0.57402   0.00000  Uiso   1.00
H585   H     0.99275   0.15809   0.58665   0.00000  Uiso   1.00
H586   H     0.75726   0.40809   0.41334   0.00000  Uiso   1.00
H587   H     0.74274   0.09191   0.58666   0.00000  Uiso   1.00
H588   H     0.75725   0.09191   0.41334   0.00000  Uiso   1.00
H589   H     0.74274   0.40809   0.58665   0.00000  Uiso   1.00
H590   H     0.59002   0.35475   0.42591   0.00000  Uiso   1.00
H591   H     0.90998   0.14525   0.57409   0.00000  Uiso   1.00
H592   H     0.60415   0.16090   0.57402   0.00000  Uiso   1.00
H593   H     0.89585   0.33910   0.42598   0.00000  Uiso   1.00
H594   H     0.90997   0.35474   0.57409   0.00000  Uiso   1.00
H595   H     0.59003   0.14526   0.42591   0.00000  Uiso   1.00
H596   H     0.64584   0.41090   0.42598   0.00000  Uiso   1.00
N597   N     0.50000   0.25000   0.61736   0.00000  Uiso   1.00
N598   N     0.50000   0.25000   0.38264   0.00000  Uiso   1.00
N599   N     0.75000   0.00000   0.61736   0.00000  Uiso   1.00
N600   N     0.75000   0.00000   0.38264   0.00000  Uiso   1.00
O601   O     0.54508   0.20491   0.53958   0.00000  Uiso   1.00
O602   O     0.70491   0.04509   0.46042   0.00000  Uiso   1.00
O603   O     0.70491   0.04509   0.53958   0.00000  Uiso   1.00
O604   O     0.79508   0.45491   0.46042   0.00000  Uiso   1.00
O605   O     0.70491   0.45491   0.46042   0.00000  Uiso   1.00
O606   O     0.79508   0.04509   0.53958   0.00000  Uiso   1.00
O607   O     0.79508   0.04509   0.46042   0.00000  Uiso   1.00
O608   O     0.70491   0.45491   0.53958   0.00000  Uiso   1.00
O609   O     0.96454   0.14090   0.36693   0.00000  Uiso   1.00
O610   O     0.53546   0.35910   0.63307   0.00000  Uiso   1.00
O611   O     0.96454   0.35910   0.36693   0.00000  Uiso   1.00
O612   O     0.95491   0.29509   0.46042   0.00000  Uiso   1.00
O613   O     0.53545   0.14090   0.63307   0.00000  Uiso   1.00
O614   O     0.71454   0.39090   0.36693   0.00000  Uiso   1.00
O615   O     0.78546   0.10910   0.63307   0.00000  Uiso   1.00
O616   O     0.71454   0.10910   0.36693   0.00000  Uiso   1.00
O617   O     0.78545   0.39090   0.63307   0.00000  Uiso   1.00
O618   O     0.95491   0.29509   0.53958   0.00000  Uiso   1.00
O619   O     0.54508   0.20491   0.46042   0.00000  Uiso   1.00
O620   O     0.95491   0.20491   0.46042   0.00000  Uiso   1.00
O621   O     0.54508   0.29509   0.53958   0.00000  Uiso   1.00
O622   O     0.54508   0.29509   0.46042   0.00000  Uiso   1.00
O623   O     0.95491   0.20491   0.53958   0.00000  Uiso   1.00
O624   O     0.79508   0.45491   0.53958   0.00000  Uiso   1.00
C625   C     0.05935   0.69056   0.50000   0.00000  Uiso   1.00
C626   C     0.00114   0.78957   0.64193   0.00000  Uiso   1.00
C627   C     0.49886   0.78957   0.35806   0.00000  Uiso   1.00
C628   C     0.00114   0.71043   0.64193   0.00000  Uiso   1.00
C629   C     0.24886   0.96043   0.35807   0.00000  Uiso   1.00
C630   C     0.25114   0.53957   0.64193   0.00000  Uiso   1.00
C631   C     0.24886   0.53957   0.35806   0.00000  Uiso   1.00
C632   C     0.25114   0.96043   0.64193   0.00000  Uiso   1.00
C633   C     0.38709   0.64528   0.45843   0.00000  Uiso   1.00
C634   C     0.11291   0.85472   0.54157   0.00000  Uiso   1.00
C635   C     0.10516   0.86329   0.45841   0.00000  Uiso   1.00
C636   C     0.44065   0.80944   0.50000   0.00000  Uiso   1.00
C637   C     0.39484   0.63671   0.54159   0.00000  Uiso   1.00
C638   C     0.11290   0.64528   0.54157   0.00000  Uiso   1.00
C639   C     0.38710   0.85472   0.45843   0.00000  Uiso   1.00
C640   C     0.39484   0.86328   0.54159   0.00000  Uiso   1.00
C641   C     0.10516   0.63672   0.45841   0.00000  Uiso   1.00
C642   C     0.13709   0.89528   0.45843   0.00000  Uiso   1.00
C643   C     0.36291   0.60472   0.54157   0.00000  Uiso   1.00
C644   C     0.35516   0.61329   0.45841   0.00000  Uiso   1.00
C645   C     0.14484   0.88671   0.54159   0.00000  Uiso   1.00
C646   C     0.36290   0.89528   0.54157   0.00000  Uiso   1.00
C647   C     0.44065   0.69056   0.50000   0.00000  Uiso   1.00
C648   C     0.13710   0.60472   0.45843   0.00000  Uiso   1.00
C649   C     0.14484   0.61328   0.54159   0.00000  Uiso   1.00
C650   C     0.35516   0.88672   0.45841   0.00000  Uiso   1.00
C651   C     0.09289   0.84291   0.49999   0.00000  Uiso   1.00
C652   C     0.40711   0.65709   0.50000   0.00000  Uiso   1.00
C653   C     0.40711   0.84291   0.50000   0.00000  Uiso   1.00
C654   C     0.09289   0.65709   0.49999   0.00000  Uiso   1.00
C655   C     0.34289   0.59291   0.49999   0.00000  Uiso   1.00
C656   C     0.15711   0.90709   0.50000   0.00000  Uiso   1.00
C657   C     0.15711   0.59291   0.50000   0.00000  Uiso   1.00
C658   C     0.05935   0.80944   0.50000   0.00000  Uiso   1.00
C659   C     0.34289   0.90709   0.49999   0.00000  Uiso   1.00
C660   C     0.49080   0.66729   0.38218   0.00000  Uiso   1.00
C661   C     0.00920   0.83271   0.61782   0.00000  Uiso   1.00
C662   C     0.49080   0.83271   0.38218   0.00000  Uiso   1.00
C663   C     0.00920   0.66729   0.61782   0.00000  Uiso   1.00
C664   C     0.24080   0.91729   0.38218   0.00000  Uiso   1.00
C665   C     0.25920   0.58271   0.61782   0.00000  Uiso   1.00
C666   C     0.24080   0.58271   0.38218   0.00000  Uiso   1.00
C667   C     0.25920   0.91729   0.61782   0.00000  Uiso   1.00
C668   C     0.30935   0.94056   0.50000   0.00000  Uiso   1.00
C669   C     0.19065   0.55944   0.50000   0.00000  Uiso   1.00
C670   C     0.19065   0.94056   0.50000   0.00000  Uiso   1.00
C671   C     0.30935   0.55944   0.50000   0.00000  Uiso   1.00
C672   C     0.49886   0.71043   0.35807   0.00000  Uiso   1.00
Cu673  Cu    0.00000   0.75000   0.54689   0.00000  Uiso   1.00
Cu674  Cu    0.00000   0.75000   0.45311   0.00000  Uiso   1.00
Cu675  Cu    0.25000   0.50000   0.54689   0.00000  Uiso   1.00
Cu676  Cu    0.25000   0.50000   0.45311   0.00000  Uiso   1.00
H677   H     0.39584   0.66090   0.42598   0.00000  Uiso   1.00
H678   H     0.35416   0.58910   0.57402   0.00000  Uiso   1.00
H679   H     0.34002   0.60475   0.42591   0.00000  Uiso   1.00
H680   H     0.15998   0.89525   0.57409   0.00000  Uiso   1.00
H681   H     0.35415   0.91090   0.57402   0.00000  Uiso   1.00
H682   H     0.14585   0.58910   0.42598   0.00000  Uiso   1.00
H683   H     0.15997   0.60474   0.57409   0.00000  Uiso   1.00
H684   H     0.34003   0.89526   0.42591   0.00000  Uiso   1.00
H685   H     0.00726   0.65809   0.41334   0.00000  Uiso   1.00
H686   H     0.49274   0.84191   0.58666   0.00000  Uiso   1.00
H687   H     0.00726   0.84191   0.41334   0.00000  Uiso   1.00
H688   H     0.10416   0.83910   0.57402   0.00000  Uiso   1.00
H689   H     0.49275   0.65809   0.58665   0.00000  Uiso   1.00
H690   H     0.25726   0.90809   0.41334   0.00000  Uiso   1.00
H691   H     0.24274   0.59191   0.58666   0.00000  Uiso   1.00
H692   H     0.25725   0.59191   0.41334   0.00000  Uiso   1.00
H693   H     0.24274   0.90809   0.58665   0.00000  Uiso   1.00
H694   H     0.09002   0.85475   0.42591   0.00000  Uiso   1.00
H695   H     0.40998   0.64525   0.57409   0.00000  Uiso   1.00
H696   H     0.10415   0.66090   0.57402   0.00000  Uiso   1.00
H697   H     0.39585   0.83910   0.42598   0.00000  Uiso   1.00
H698   H     0.40997   0.85474   0.57409   0.00000  Uiso   1.00
H699   H     0.09003   0.64526   0.42591   0.00000  Uiso   1.00
H700   H     0.14584   0.91090   0.42598   0.00000  Uiso   1.00
N701   N    -0.00000   0.75000   0.61736   0.00000  Uiso   1.00
N702   N    -0.00000   0.75000   0.38264   0.00000  Uiso   1.00
N703   N     0.25000   0.50000   0.61736   0.00000  Uiso   1.00
N704   N     0.25000   0.50000   0.38264   0.00000  Uiso   1.00
O705   O     0.04508   0.70491   0.53958   0.00000  Uiso   1.00
O706   O     0.20491   0.54509   0.46042   0.00000  Uiso   1.00
O707   O     0.20491   0.54509   0.53958   0.00000  Uiso   1.00
O708   O     0.29508   0.95491   0.46042   0.00000  Uiso   1.00
O709   O     0.20491   0.95491   0.46042   0.00000  Uiso   1.00
O710   O     0.29508   0.54509   0.53958   0.00000  Uiso   1.00
O711   O     0.29508   0.54509   0.46042   0.00000  Uiso   1.00
O712   O     0.20491   0.95491   0.53958   0.00000  Uiso   1.00
O713   O     0.46454   0.64090   0.36693   0.00000  Uiso   1.00
O714   O     0.03546   0.85910   0.63307   0.00000  Uiso   1.00
O715   O     0.46454   0.85910   0.36693   0.00000  Uiso   1.00
O716   O     0.45491   0.79509   0.46042   0.00000  Uiso   1.00
O717   O     0.03545   0.64090   0.63307   0.00000  Uiso   1.00
O718   O     0.21454   0.89090   0.36693   0.00000  Uiso   1.00
O719   O     0.28546   0.60910   0.63307   0.00000  Uiso   1.00
O720   O     0.21454   0.60910   0.36693   0.00000  Uiso   1.00
O721   O     0.28545   0.89090   0.63307   0.00000  Uiso   1.00
O722   O     0.45491   0.79509   0.53958   0.00000  Uiso   1.00
O723   O     0.04508   0.70491   0.46042   0.00000  Uiso   1.00
O724   O     0.45491   0.70491   0.46042   0.00000  Uiso   1.00
O725   O     0.04508   0.79509   0.53958   0.00000  Uiso   1.00
O726   O     0.04508   0.79509   0.46042   0.00000  Uiso   1.00
O727   O     0.45491   0.70491   0.53958   0.00000  Uiso   1.00
O728   O     0.29508   0.95491   0.53958   0.00000  Uiso   1.00
C729   C     0.55935   0.69056   0.50000   0.00000  Uiso   1.00
C730   C     0.50114   0.78957   0.64193   0.00000  Uiso   1.00
C731   C     0.99886   0.78957   0.35806   0.00000  Uiso   1.00
C732   C     0.50114   0.71043   0.64193   0.00000  Uiso   1.00
C733   C     0.74886   0.96043   0.35807   0.00000  Uiso   1.00
C734   C     0.75114   0.53957   0.64193   0.00000  Uiso   1.00
C735   C     0.74886   0.53957   0.35806   0.00000  Uiso   1.00
C736   C     0.75114   0.96043   0.64193   0.00000  Uiso   1.00
C737   C     0.88709   0.64528   0.45843   0.00000  Uiso   1.00
C738   C     0.61291   0.85472   0.54157   0.00000  Uiso   1.00
C739   C     0.60516   0.86329   0.45841   0.00000  Uiso   1.00
C740   C     0.94065   0.80944   0.50000   0.00000  Uiso   1.00
C741   C     0.89484   0.63671   0.54159   0.00000  Uiso   1.00
C742   C     0.61290   0.64528   0.54157   0.00000  Uiso   1.00
C743   C     0.88710   0.85472   0.45843   0.00000  Uiso   1.00
C744   C     0.89484   0.86328   0.54159   0.00000  Uiso   1.00
C745   C     0.60516   0.63672   0.45841   0.00000  Uiso   1.00
C746   C     0.63709   0.89528   0.45843   0.00000  Uiso   1.00
C747   C     0.86291   0.60472   0.54157   0.00000  Uiso   1.00
C748   C     0.85516   0.61329   0.45841   0.00000  Uiso   1.00
C749   C     0.64484   0.88671   0.54159   0.00000  Uiso   1.00
C750   C     0.86290   0.89528   0.54157   0.00000  Uiso   1.00
C751   C     0.94065   0.69056   0.50000   0.00000  Uiso   1.00
C752   C     0.63710   0.60472   0.45843   0.00000  Uiso   1.00
C753   C     0.64484   0.61328   0.54159   0.00000  Uiso   1.00
C754   C     0.85516   0.88672   0.45841   0.00000  Uiso   1.00
C755   C     0.59289   0.84291   0.49999   0.00000  Uiso   1.00
C756   C     0.90711   0.65709   0.50000   0.00000  Uiso   1.00
C757   C     0.90711   0.84291   0.50000   0.00000  Uiso   1.00
C758   C     0.59289   0.65709   0.49999   0.00000  Uiso   1.00
C759   C     0.84289   0.59291   0.49999   0.00000  Uiso   1.00
C760   C     0.65711   0.90709   0.50000   0.00000  Uiso   1.00
C761   C     0.65711   0.59291   0.50000   0.00000  Uiso   1.00
C762   C     0.55935   0.80944   0.50000   0.00000  Uiso   1.00
C763   C     0.84289   0.90709   0.49999   0.00000  Uiso   1.00
C764   C     0.99080   0.66729   0.38218   0.00000  Uiso   1.00
C765   C     0.50920   0.83271   0.61782   0.00000  Uiso   1.00
C766   C     0.99080   0.83271   0.38218   0.00000  Uiso   1.00
C767   C     0.50920   0.66729   0.61782   0.00000  Uiso   1.00
C768   C     0.74080   0.91729   0.38218   0.00000  Uiso   1.00
C769   C     0.75920   0.58271   0.61782   0.00000  Uiso   1.00
C770   C     0.74080   0.58271   0.38218   0.00000  Uiso   1.00
C771   C     0.75920   0.91729   0.61782   0.00000  Uiso   1.00
C772   C     0.80935   0.94056   0.50000   0.00000  Uiso   1.00
C773   C     0.69065   0.55944   0.50000   0.00000  Uiso   1.00
C774   C     0.69065   0.94056   0.50000   0.00000  Uiso   1.00
C775   C     0.80935   0.55944   0.50000   0.00000  Uiso   1.00
C776   C     0.99886   0.71043   0.35807   0.00000  Uiso   1.00
Cu777  Cu    0.50000   0.75000   0.54689   0.00000  Uiso   1.00
Cu778  Cu    0.50000   0.75000   0.45311   0.00000  Uiso   1.00
Cu779  Cu    0.75000   0.50000   0.54689   0.00000  Uiso   1.00
Cu780  Cu    0.75000   0.50000   0.45311   0.00000  Uiso   1.00
H781   H     0.89584   0.66090   0.42598   0.00000  Uiso   1.00
H782   H     0.85416   0.58910   0.57402   0.00000  Uiso   1.00
H783   H     0.84002   0.60475   0.42591   0.00000  Uiso   1.00
H784   H     0.65998   0.89525   0.57409   0.00000  Uiso   1.00
H785   H     0.85415   0.91090   0.57402   0.00000  Uiso   1.00
H786   H     0.64585   0.58910   0.42598   0.00000  Uiso   1.00
H787   H     0.65997   0.60474   0.57409   0.00000  Uiso   1.00
H788   H     0.84003   0.89526   0.42591   0.00000  Uiso   1.00
H789   H     0.50726   0.65809   0.41334   0.00000  Uiso   1.00
H790   H     0.99274   0.84191   0.58666   0.00000  Uiso   1.00
H791   H     0.50726   0.84191   0.41334   0.00000  Uiso   1.00
H792   H     0.60416   0.83910   0.57402   0.00000  Uiso   1.00
H793   H     0.99275   0.65809   0.58665   0.00000  Uiso   1.00
H794   H     0.75726   0.90809   0.41334   0.00000  Uiso   1.00
H795   H     0.74274   0.59191   0.58666   0.00000  Uiso   1.00
H796   H     0.75725   0.59191   0.41334   0.00000  Uiso   1.00
H797   H     0.74274   0.90809   0.58665   0.00000  Uiso   1.00
H798   H     0.59002   0.85475   0.42591   0.00000  Uiso   1.00
H799   H     0.90998   0.64525   0.57409   0.00000  Uiso   1.00
H800   H     0.60415   0.66090   0.57402   0.00000  Uiso   1.00
H801   H     0.89585   0.83910   0.42598   0.00000  Uiso   1.00
H802   H     0.90997   0.85474   0.57409   0.00000  Uiso   1.00
H803   H     0.59003   0.64526   0.42591   0.00000  Uiso   1.00
H804   H     0.64584   0.91090   0.42598   0.00000  Uiso   1.00
N805   N     0.50000   0.75000   0.61736   0.00000  Uiso   1.00
N806   N     0.50000   0.75000   0.38264   0.00000  Uiso   1.00
N807   N     0.75000   0.50000   0.61736   0.00000  Uiso   1.00
N808   N     0.75000   0.50000   0.38264   0.00000  Uiso   1.00
O809   O     0.54508   0.70491   0.53958   0.00000  Uiso   1.00
O810   O     0.70491   0.54509   0.46042   0.00000  Uiso   1.00
O811   O     0.70491   0.54509   0.53958   0.00000  Uiso   1.00
O812   O     0.79508   0.95491   0.46042   0.00000  Uiso   1.00
O813   O     0.70491   0.95491   0.46042   0.00000  Uiso   1.00
O814   O     0.79508   0.54509   0.53958   0.00000  Uiso   1.00
O815   O     0.79508   0.54509   0.46042   0.00000  Uiso   1.00
O816   O     0.70491   0.95491   0.53958   0.00000  Uiso   1.00
O817   O     0.96454   0.64090   0.36693   0.00000  Uiso   1.00
O818   O     0.53546   0.85910   0.63307   0.00000  Uiso   1.00
O819   O     0.96454   0.85910   0.36693   0.00000  Uiso   1.00
O820   O     0.95491   0.79509   0.46042   0.00000  Uiso   1.00
O821   O     0.53545   0.64090   0.63307   0.00000  Uiso   1.00
O822   O     0.71454   0.89090   0.36693   0.00000  Uiso   1.00
O823   O     0.78546   0.60910   0.63307   0.00000  Uiso   1.00
O824   O     0.71454   0.60910   0.36693   0.00000  Uiso   1.00
O825   O     0.78545   0.89090   0.63307   0.00000  Uiso   1.00
O826   O     0.95491   0.79509   0.53958   0.00000  Uiso   1.00
O827   O     0.54508   0.70491   0.46042   0.00000  Uiso   1.00
O828   O     0.95491   0.70491   0.46042   0.00000  Uiso   1.00
O829   O     0.54508   0.79509   0.53958   0.00000  Uiso   1.00
O830   O     0.54508   0.79509   0.46042   0.00000  Uiso   1.00
O831   O     0.95491   0.70491   0.53958   0.00000  Uiso   1.00
O832   O     0.79508   0.95491   0.53958   0.00000  Uiso   1.00
C833   C     0.05935   0.19056   0.83334   0.00000  Uiso   1.00
C834   C     0.00114   0.28957   0.97527   0.00000  Uiso   1.00
C835   C     0.49886   0.28957   0.69140   0.00000  Uiso   1.00
C836   C     0.00114   0.21043   0.97527   0.00000  Uiso   1.00
C837   C     0.24886   0.46043   0.69140   0.00000  Uiso   1.00
C838   C     0.25114   0.03957   0.97527   0.00000  Uiso   1.00
C839   C     0.24886   0.03957   0.69140   0.00000  Uiso   1.00
C840   C     0.25114   0.46043   0.97527   0.00000  Uiso   1.00
C841   C     0.38709   0.14528   0.79176   0.00000  Uiso   1.00
C842   C     0.11291   0.35472   0.87490   0.00000  Uiso   1.00
C843   C     0.10516   0.36329   0.79174   0.00000  Uiso   1.00
C844   C     0.44065   0.30944   0.83333   0.00000  Uiso   1.00
C845   C     0.39484   0.13671   0.87492   0.00000  Uiso   1.00
C846   C     0.11290   0.14528   0.87490   0.00000  Uiso   1.00
C847   C     0.38710   0.35472   0.79176   0.00000  Uiso   1.00
C848   C     0.39484   0.36328   0.87492   0.00000  Uiso   1.00
C849   C     0.10516   0.13672   0.79174   0.00000  Uiso   1.00
C850   C     0.13709   0.39528   0.79176   0.00000  Uiso   1.00
C851   C     0.36291   0.10472   0.87490   0.00000  Uiso   1.00
C852   C     0.35516   0.11329   0.79174   0.00000  Uiso   1.00
C853   C     0.14484   0.38671   0.87492   0.00000  Uiso   1.00
C854   C     0.36290   0.39528   0.87490   0.00000  Uiso   1.00
C855   C     0.44065   0.19056   0.83333   0.00000  Uiso   1.00
C856   C     0.13710   0.10472   0.79176   0.00000  Uiso   1.00
C857   C     0.14484   0.11328   0.87492   0.00000  Uiso   1.00
C858   C     0.35516   0.38672   0.79174   0.00000  Uiso   1.00
C859   C     0.09289   0.34291   0.83333   0.00000  Uiso   1.00
C860   C     0.40711   0.15709   0.83334   0.00000  Uiso   1.00
C861   C     0.40711   0.34291   0.83334   0.00000  Uiso   1.00
C862   C     0.09289   0.15709   0.83333   0.00000  Uiso   1.00
C863   C     0.34289   0.09291   0.83333   0.00000  Uiso   1.00
C864   C     0.15711   0.40709   0.83334   0.00000  Uiso   1.00
C865   C     0.15711   0.09291   0.83334   0.00000  Uiso   1.00
C866   C     0.05935   0.30944   0.83334   0.00000  Uiso   1.00
C867   C     0.34289   0.40709   0.83333   0.00000  Uiso   1.00
C868   C     0.49080   0.16729   0.71552   0.00000  Uiso   1.00
C869   C     0.00920   0.33271   0.95115   0.00000  Uiso   1.00
C870   C     0.49080   0.33271   0.71551   0.00000  Uiso   1.00
C871   C     0.00920   0.16729   0.95115   0.00000  Uiso   1.00
C872   C     0.24080   0.41729   0.71551   0.00000  Uiso   1.00
C873   C     0.25920   0.08271   0.95115   0.00000  Uiso   1.00
C874   C     0.24080   0.08271   0.71551   0.00000  Uiso   1.00
C875   C     0.25920   0.41729   0.95115   0.00000  Uiso   1.00
C876   C     0.30935   0.44056   0.83334   0.00000  Uiso   1.00
C877   C     0.19065   0.05944   0.83333   0.00000  Uiso   1.00
C878   C     0.19065   0.44056   0.83333   0.00000  Uiso   1.00
C879   C     0.30935   0.05944   0.83334   0.00000  Uiso   1.00
C880   C     0.49886   0.21043   0.69140   0.00000  Uiso   1.00
Cu881  Cu    0.00000   0.25000   0.88022   0.00000  Uiso   1.00
Cu882  Cu    0.00000   0.25000   0.78645   0.00000  Uiso   1.00
Cu883  Cu    0.25000   0.00000   0.88022   0.00000  Uiso   1.00
Cu884  Cu    0.25000   0.00000   0.78645   0.00000  Uiso   1.00
H885   H     0.39584   0.16090   0.75932   0.00000  Uiso   1.00
H886   H     0.35416   0.08910   0.90735   0.00000  Uiso   1.00
H887   H     0.34002   0.10475   0.75924   0.00000  Uiso   1.00
H888   H     0.15998   0.39525   0.90742   0.00000  Uiso   1.00
H889   H     0.35415   0.41090   0.90735   0.00000  Uiso   1.00
H890   H     0.14585   0.08910   0.75932   0.00000  Uiso   1.00
H891   H     0.15997   0.10474   0.90743   0.00000  Uiso   1.00
H892   H     0.34003   0.39526   0.75924   0.00000  Uiso   1.00
H893   H     0.00726   0.15809   0.74668   0.00000  Uiso   1.00
H894   H     0.49274   0.34191   0.91999   0.00000  Uiso   1.00
H895   H     0.00726   0.34191   0.74668   0.00000  Uiso   1.00
H896   H     0.10416   0.33910   0.90735   0.00000  Uiso   1.00
H897   H     0.49275   0.15809   0.91999   0.00000  Uiso   1.00
H898   H     0.25726   0.40809   0.74668   0.00000  Uiso   1.00
H899   H     0.24274   0.09191   0.91999   0.00000  Uiso   1.00
H900   H     0.25725   0.09191   0.74668   0.00000  Uiso   1.00
H901   H     0.24274   0.40809   0.91999   0.00000  Uiso   1.00
H902   H     0.09002   0.35475   0.75924   0.00000  Uiso   1.00
H903   H     0.40998   0.14525   0.90742   0.00000  Uiso   1.00
H904   H     0.10415   0.16090   0.90735   0.00000  Uiso   1.00
H905   H     0.39585   0.33910   0.75932   0.00000  Uiso   1.00
H906   H     0.40997   0.35474   0.90743   0.00000  Uiso   1.00
H907   H     0.09003   0.14526   0.75924   0.00000  Uiso   1.00
H908   H     0.14584   0.41090   0.75932   0.00000  Uiso   1.00
N909   N    -0.00000   0.25000   0.95069   0.00000  Uiso   1.00
N910   N    -0.00000   0.25000   0.71598   0.00000  Uiso   1.00
N911   N     0.25000   0.00000   0.95069   0.00000  Uiso   1.00
N912   N     0.25000   0.00000   0.71598   0.00000  Uiso   1.00
O913   O     0.04508   0.20491   0.87291   0.00000  Uiso   1.00
O914   O     0.20491   0.04509   0.79375   0.00000  Uiso   1.00
O915   O     0.20491   0.04509   0.87291   0.00000  Uiso   1.00
O916   O     0.29508   0.45491   0.79375   0.00000  Uiso   1.00
O917   O     0.20491   0.45491   0.79375   0.00000  Uiso   1.00
O918   O     0.29508   0.04509   0.87291   0.00000  Uiso   1.00
O919   O     0.29508   0.04509   0.79375   0.00000  Uiso   1.00
O920   O     0.20491   0.45491   0.87291   0.00000  Uiso   1.00
O921   O     0.46454   0.14090   0.70027   0.00000  Uiso   1.00
O922   O     0.03546   0.35910   0.96640   0.00000  Uiso   1.00
O923   O     0.46454   0.35910   0.70026   0.00000  Uiso   1.00
O924   O     0.45491   0.29509   0.79375   0.00000  Uiso   1.00
O925   O     0.03545   0.14090   0.96640   0.00000  Uiso   1.00
O926   O     0.21454   0.39090   0.70026   0.00000  Uiso   1.00
O927   O     0.28546   0.10910   0.96640   0.00000  Uiso   1.00
O928   O     0.21454   0.10910   0.70026   0.00000  Uiso   1.00
O929   O     0.28545   0.39090   0.96640   0.00000  Uiso   1.00
O930   O     0.45491   0.29509   0.87291   0.00000  Uiso   1.00
O931   O     0.04508   0.20491   0.79375   0.00000  Uiso   1.00
O932   O     0.45491   0.20491   0.79375   0.00000  Uiso   1.00
O933   O     0.04508   0.29509   0.87291   0.00000  Uiso   1.00
O934   O     0.04508   0.29509   0.79375   0.00000  Uiso   1.00
O935   O     0.45491   0.20491   0.87291   0.00000  Uiso   1.00
O936   O     0.29508   0.45491   0.87291   0.00000  Uiso   1.00
C937   C     0.55935   0.19056   0.83334   0.00000  Uiso   1.00
C938   C     0.50114   0.28957   0.97527   0.00000  Uiso   1.00
C939   C     0.99886   0.28957   0.69140   0.00000  Uiso   1.00
C940   C     0.50114   0.21043   0.97527   0.00000  Uiso   1.00
C941   C     0.74886   0.46043   0.69140   0.00000  Uiso   1.00
C942   C     0.75114   0.03957   0.97527   0.00000  Uiso   1.00
C943   C     0.74886   0.03957   0.69140   0.00000  Uiso   1.00
C944   C     0.75114   0.46043   0.97527   0.00000  Uiso   1.00
C945   C     0.88709   0.14528   0.79176   0.00000  Uiso   1.00
C946   C     0.61291   0.35472   0.87490   0.00000  Uiso   1.00
C947   C     0.60516   0.36329   0.79174   0.00000  Uiso   1.00
C948   C     0.94065   0.30944   0.83333   0.00000  Uiso   1.00
C949   C     0.89484   0.13671   0.87492   0.00000  Uiso   1.00
C950   C     0.61290   0.14528   0.87490   0.00000  Uiso   1.00
C951   C     0.88710   0.35472   0.79176   0.00000  Uiso   1.00
C952   C     0.89484   0.36328   0.87492   0.00000  Uiso   1.00
C953   C     0.60516   0.13672   0.79174   0.00000  Uiso   1.00
C954   C     0.63709   0.39528   0.79176   0.00000  Uiso   1.00
C955   C     0.86291   0.10472   0.87490   0.00000  Uiso   1.00
C956   C     0.85516   0.11329   0.79174   0.00000  Uiso   1.00
C957   C     0.64484   0.38671   0.87492   0.00000  Uiso   1.00
C958   C     0.86290   0.39528   0.87490   0.00000  Uiso   1.00
C959   C     0.94065   0.19056   0.83333   0.00000  Uiso   1.00
C960   C     0.63710   0.10472   0.79176   0.00000  Uiso   1.00
C961   C     0.64484   0.11328   0.87492   0.00000  Uiso   1.00
C962   C     0.85516   0.38672   0.79174   0.00000  Uiso   1.00
C963   C     0.59289   0.34291   0.83333   0.00000  Uiso   1.00
C964   C     0.90711   0.15709   0.83334   0.00000  Uiso   1.00
C965   C     0.90711   0.34291   0.83334   0.00000  Uiso   1.00
C966   C     0.59289   0.15709   0.83333   0.00000  Uiso   1.00
C967   C     0.84289   0.09291   0.83333   0.00000  Uiso   1.00
C968   C     0.65711   0.40709   0.83334   0.00000  Uiso   1.00
C969   C     0.65711   0.09291   0.83334   0.00000  Uiso   1.00
C970   C     0.55935   0.30944   0.83334   0.00000  Uiso   1.00
C971   C     0.84289   0.40709   0.83333   0.00000  Uiso   1.00
C972   C     0.99080   0.16729   0.71552   0.00000  Uiso   1.00
C973   C     0.50920   0.33271   0.95115   0.00000  Uiso   1.00
C974   C     0.99080   0.33271   0.71551   0.00000  Uiso   1.00
C975   C     0.50920   0.16729   0.95115   0.00000  Uiso   1.00
C976   C     0.74080   0.41729   0.71551   0.00000  Uiso   1.00
C977   C     0.75920   0.08271   0.95115   0.00000  Uiso   1.00
C978   C     0.74080   0.08271   0.71551   0.00000  Uiso   1.00
C979   C     0.75920   0.41729   0.95115   0.00000  Uiso   1.00
C980   C     0.80935   0.44056   0.83334   0.00000  Uiso   1.00
C981   C     0.69065   0.05944   0.83333   0.00000  Uiso   1.00
C982   C     0.69065   0.44056   0.83333   0.00000  Uiso   1.00
C983   C     0.80935   0.05944   0.83334   0.00000  Uiso   1.00
C984   C     0.99886   0.21043   0.69140   0.00000  Uiso   1.00
Cu985  Cu    0.50000   0.25000   0.88022   0.00000  Uiso   1.00
Cu986  Cu    0.50000   0.25000   0.78645   0.00000  Uiso   1.00
Cu987  Cu    0.75000   0.00000   0.88022   0.00000  Uiso   1.00
Cu988  Cu    0.75000   0.00000   0.78645   0.00000  Uiso   1.00
H989   H     0.89584   0.16090   0.75932   0.00000  Uiso   1.00
H990   H     0.85416   0.08910   0.90735   0.00000  Uiso   1.00
H991   H     0.84002   0.10475   0.75924   0.00000  Uiso   1.00
H992   H     0.65998   0.39525   0.90742   0.00000  Uiso   1.00
H993   H     0.85415   0.41090   0.90735   0.00000  Uiso   1.00
H994   H     0.64585   0.08910   0.75932   0.00000  Uiso   1.00
H995   H     0.65997   0.10474   0.90743   0.00000  Uiso   1.00
H996   H     0.84003   0.39526   0.75924   0.00000  Uiso   1.00
H997   H     0.50726   0.15809   0.74668   0.00000  Uiso   1.00
H998   H     0.99274   0.34191   0.91999   0.00000  Uiso   1.00
H999   H     0.50726   0.34191   0.74668   0.00000  Uiso   1.00
H1000  H     0.60416   0.33910   0.90735   0.00000  Uiso   1.00
H1001  H     0.99275   0.15809   0.91999   0.00000  Uiso   1.00
H1002  H     0.75726   0.40809   0.74668   0.00000  Uiso   1.00
H1003  H     0.74274   0.09191   0.91999   0.00000  Uiso   1.00
H1004  H     0.75725   0.09191   0.74668   0.00000  Uiso   1.00
H1005  H     0.74274   0.40809   0.91999   0.00000  Uiso   1.00
H1006  H     0.59002   0.35475   0.75924   0.00000  Uiso   1.00
H1007  H     0.90998   0.14525   0.90742   0.00000  Uiso   1.00
H1008  H     0.60415   0.16090   0.90735   0.00000  Uiso   1.00
H1009  H     0.89585   0.33910   0.75932   0.00000  Uiso   1.00
H1010  H     0.90997   0.35474   0.90743   0.00000  Uiso   1.00
H1011  H     0.59003   0.14526   0.75924   0.00000  Uiso   1.00
H1012  H     0.64584   0.41090   0.75932   0.00000  Uiso   1.00
N1013  N     0.50000   0.25000   0.95069   0.00000  Uiso   1.00
N1014  N     0.50000   0.25000   0.71598   0.00000  Uiso   1.00
N1015  N     0.75000   0.00000   0.95069   0.00000  Uiso   1.00
N1016  N     0.75000   0.00000   0.71598   0.00000  Uiso   1.00
O1017  O     0.54508   0.20491   0.87291   0.00000  Uiso   1.00
O1018  O     0.70491   0.04509   0.79375   0.00000  Uiso   1.00
O1019  O     0.70491   0.04509   0.87291   0.00000  Uiso   1.00
O1020  O     0.79508   0.45491   0.79375   0.00000  Uiso   1.00
O1021  O     0.70491   0.45491   0.79375   0.00000  Uiso   1.00
O1022  O     0.79508   0.04509   0.87291   0.00000  Uiso   1.00
O1023  O     0.79508   0.04509   0.79375   0.00000  Uiso   1.00
O1024  O     0.70491   0.45491   0.87291   0.00000  Uiso   1.00
O1025  O     0.96454   0.14090   0.70027   0.00000  Uiso   1.00
O1026  O     0.53546   0.35910   0.96640   0.00000  Uiso   1.00
O1027  O     0.96454   0.35910   0.70026   0.00000  Uiso   1.00
O1028  O     0.95491   0.29509   0.79375   0.00000  Uiso   1.00
O1029  O     0.53545   0.14090   0.96640   0.00000  Uiso   1.00
O1030  O     0.71454   0.39090   0.70026   0.00000  Uiso   1.00
O1031  O     0.78546   0.10910   0.96640   0.00000  Uiso   1.00
O1032  O     0.71454   0.10910   0.70026   0.00000  Uiso   1.00
O1033  O     0.78545   0.39090   0.96640   0.00000  Uiso   1.00
O1034  O     0.95491   0.29509   0.87291   0.00000  Uiso   1.00
O1035  O     0.54508   0.20491   0.79375   0.00000  Uiso   1.00
O1036  O     0.95491   0.20491   0.79375   0.00000  Uiso   1.00
O1037  O     0.54508   0.29509   0.87291   0.00000  Uiso   1.00
O1038  O     0.54508   0.29509   0.79375   0.00000  Uiso   1.00
O1039  O     0.95491   0.20491   0.87291   0.00000  Uiso   1.00
O1040  O     0.79508   0.45491   0.87291   0.00000  Uiso   1.00
C1041  C     0.05935   0.69056   0.83334   0.00000  Uiso   1.00
C1042  C     0.00114   0.78957   0.97527   0.00000  Uiso   1.00
C1043  C     0.49886   0.78957   0.69140   0.00000  Uiso   1.00
C1044  C     0.00114   0.71043   0.97527   0.00000  Uiso   1.00
C1045  C     0.24886   0.96043   0.69140   0.00000  Uiso   1.00
C1046  C     0.25114   0.53957   0.97527   0.00000  Uiso   1.00
C1047  C     0.24886   0.53957   0.69140   0.00000  Uiso   1.00
C1048  C     0.25114   0.96043   0.97527   0.00000  Uiso   1.00
C1049  C     0.38709   0.64528   0.79176   0.00000  Uiso   1.00
C1050  C     0.11291   0.85472   0.87490   0.00000  Uiso   1.00
C1051  C     0.10516   0.86329   0.79174   0.00000  Uiso   1.00
C1052  C     0.44065   0.80944   0.83333   0.00000  Uiso   1.00
C1053  C     0.39484   0.63671   0.87492   0.00000  Uiso   1.00
C1054  C     0.11290   0.64528   0.87490   0.00000  Uiso   1.00
C1055  C     0.38710   0.85472   0.79176   0.00000  Uiso   1.00
C1056  C     0.39484   0.86328   0.87492   0.00000  Uiso   1.00
C1057  C     0.10516   0.63672   0.79174   0.00000  Uiso   1.00
C1058  C     0.13709   0.89528   0.79176   0.00000  Uiso   1.00
C1059  C     0.36291   0.60472   0.87490   0.00000  Uiso   1.00
C1060  C     0.35516   0.61329   0.79174   0.00000  Uiso   1.00
C1061  C     0.14484   0.88671   0.87492   0.00000  Uiso   1.00
C1062  C     0.36290   0.89528   0.87490   0.00000  Uiso   1.00
C1063  C     0.44065   0.69056   0.83333   0.00000  Uiso   1.00
C1064  C     0.13710   0.60472   0.79176   0.00000  Uiso   1.00
C1065  C     0.14484   0.61328   0.87492   0.00000  Uiso   1.00
C1066  C     0.35516   0.88672   0.79174   0.00000  Uiso   1.00
C1067  C     0.09289   0.84291   0.83333   0.00000  Uiso   1.00
C1068  C     0.40711   0.65709   0.83334   0.00000  Uiso   1.00
C1069  C     0.40711   0.84291   0.83334   0.00000  Uiso   1.00
C1070  C     0.09289   0.65709   0.83333   0.00000  Uiso   1.00
C1071  C     0.34289   0.59291   0.83333   0.00000  Uiso   1.00
C1072  C     0.15711   0.90709   0.83334   0.00000  Uiso   1.00
C1073  C     0.15711   0.59291   0.83334   0.00000  Uiso   1.00
C1074  C     0.05935   0.80944   0.83334   0.00000  Uiso   1.00
C1075  C     0.34289   0.90709   0.83333   0.00000  Uiso   1.00
C1076  C     0.49080   0.66729   0.71552   0.00000  Uiso   1.00
C1077  C     0.00920   0.83271   0.95115   0.00000  Uiso   1.00
C1078  C     0.49080   0.83271   0.71551   0.00000  Uiso   1.00
C1079  C     0.00920   0.66729   0.95115   0.00000  Uiso   1.00
C1080  C     0.24080   0.91729   0.71551   0.00000  Uiso   1.00
C1081  C     0.25920   0.58271   0.95115   0.00000  Uiso   1.00
C1082  C     0.24080   0.58271   0.71551   0.00000  Uiso   1.00
C1083  C     0.25920   0.91729   0.95115   0.00000  Uiso   1.00
C1084  C     0.30935   0.94056   0.83334   0.00000  Uiso   1.00
C1085  C     0.19065   0.55944   0.83333   0.00000  Uiso   1.00
C1086  C     0.19065   0.94056   0.83333   0.00000  Uiso   1.00
C1087  C     0.30935   0.55944   0.83334   0.00000  Uiso   1.00
C1088  C     0.49886   0.71043   0.69140   0.00000  Uiso   1.00
Cu1089 Cu    0.00000   0.75000   0.88022   0.00000  Uiso   1.00
Cu1090 Cu    0.00000   0.75000   0.78645   0.00000  Uiso   1.00
Cu1091 Cu    0.25000   0.50000   0.88022   0.00000  Uiso   1.00
Cu1092 Cu    0.25000   0.50000   0.78645   0.00000  Uiso   1.00
H1093  H     0.39584   0.66090   0.75932   0.00000  Uiso   1.00
H1094  H     0.35416   0.58910   0.90735   0.00000  Uiso   1.00
H1095  H     0.34002   0.60475   0.75924   0.00000  Uiso   1.00
H1096  H     0.15998   0.89525   0.90742   0.00000  Uiso   1.00
H1097  H     0.35415   0.91090   0.90735   0.00000  Uiso   1.00
H1098  H     0.14585   0.58910   0.75932   0.00000  Uiso   1.00
H1099  H     0.15997   0.60474   0.90743   0.00000  Uiso   1.00
H1100  H     0.34003   0.89526   0.75924   0.00000  Uiso   1.00
H1101  H     0.00726   0.65809   0.74668   0.00000  Uiso   1.00
H1102  H     0.49274   0.84191   0.91999   0.00000  Uiso   1.00
H1103  H     0.00726   0.84191   0.74668   0.00000  Uiso   1.00
H1104  H     0.10416   0.83910   0.90735   0.00000  Uiso   1.00
H1105  H     0.49275   0.65809   0.91999   0.00000  Uiso   1.00
H1106  H     0.25726   0.90809   0.74668   0.00000  Uiso   1.00
H1107  H     0.24274   0.59191   0.91999   0.00000  Uiso   1.00
H1108  H     0.25725   0.59191   0.74668   0.00000  Uiso   1.00
H1109  H     0.24274   0.90809   0.91999   0.00000  Uiso   1.00
H1110  H     0.09002   0.85475   0.75924   0.00000  Uiso   1.00
H1111  H     0.40998   0.64525   0.90742   0.00000  Uiso   1.00
H1112  H     0.10415   0.66090   0.90735   0.00000  Uiso   1.00
H1113  H     0.39585   0.83910   0.75932   0.00000  Uiso   1.00
H1114  H     0.40997   0.85474   0.90743   0.00000  Uiso   1.00
H1115  H     0.09003   0.64526   0.75924   0.00000  Uiso   1.00
H1116  H     0.14584   0.91090   0.75932   0.00000  Uiso   1.00
N1117  N    -0.00000   0.75000   0.95069   0.00000  Uiso   1.00
N1118  N    -0.00000   0.75000   0.71598   0.00000  Uiso   1.00
N1119  N     0.25000   0.50000   0.95069   0.00000  Uiso   1.00
N1120  N     0.25000   0.50000   0.71598   0.00000  Uiso   1.00
O1121  O     0.04508   0.70491   0.87291   0.00000  Uiso   1.00
O1122  O     0.20491   0.54509   0.79375   0.00000  Uiso   1.00
O1123  O     0.20491   0.54509   0.87291   0.00000  Uiso   1.00
O1124  O     0.29508   0.95491   0.79375   0.00000  Uiso   1.00
O1125  O     0.20491   0.95491   0.79375   0.00000  Uiso   1.00
O1126  O     0.29508   0.54509   0.87291   0.00000  Uiso   1.00
O1127  O     0.29508   0.54509   0.79375   0.00000  Uiso   1.00
O1128  O     0.20491   0.95491   0.87291   0.00000  Uiso   1.00
O1129  O     0.46454   0.64090   0.70027   0.00000  Uiso   1.00
O1130  O     0.03546   0.85910   0.96640   0.00000  Uiso   1.00
O1131  O     0.46454   0.85910   0.70026   0.00000  Uiso   1.00
O1132  O     0.45491   0.79509   0.79375   0.00000  Uiso   1.00
O1133  O     0.03545   0.64090   0.96640   0.00000  Uiso   1.00
O1134  O     0.21454   0.89090   0.70026   0.00000  Uiso   1.00
O1135  O     0.28546   0.60910   0.96640   0.00000  Uiso   1.00
O1136  O     0.21454   0.60910   0.70026   0.00000  Uiso   1.00
O1137  O     0.28545   0.89090   0.96640   0.00000  Uiso   1.00
O1138  O     0.45491   0.79509   0.87291   0.00000  Uiso   1.00
O1139  O     0.04508   0.70491   0.79375   0.00000  Uiso   1.00
O1140  O     0.45491   0.70491   0.79375   0.00000  Uiso   1.00
O1141  O     0.04508   0.79509   0.87291   0.00000  Uiso   1.00
O1142  O     0.04508   0.79509   0.79375   0.00000  Uiso   1.00
O1143  O     0.45491   0.70491   0.87291   0.00000  Uiso   1.00
O1144  O     0.29508   0.95491   0.87291   0.00000  Uiso   1.00
C1145  C     0.55935   0.69056   0.83334   0.00000  Uiso   1.00
C1146  C     0.50114   0.78957   0.97527   0.00000  Uiso   1.00
C1147  C     0.99886   0.78957   0.69140   0.00000  Uiso   1.00
C1148  C     0.50114   0.71043   0.97527   0.00000  Uiso   1.00
C1149  C     0.74886   0.96043   0.69140   0.00000  Uiso   1.00
C1150  C     0.75114   0.53957   0.97527   0.00000  Uiso   1.00
C1151  C     0.74886   0.53957   0.69140   0.00000  Uiso   1.00
C1152  C     0.75114   0.96043   0.97527   0.00000  Uiso   1.00
C1153  C     0.88709   0.64528   0.79176   0.00000  Uiso   1.00
C1154  C     0.61291   0.85472   0.87490   0.00000  Uiso   1.00
C1155  C     0.60516   0.86329   0.79174   0.00000  Uiso   1.00
C1156  C     0.94065   0.80944   0.83333   0.00000  Uiso   1.00
C1157  C     0.89484   0.63671   0.87492   0.00000  Uiso   1.00
C1158  C     0.61290   0.64528   0.87490   0.00000  Uiso   1.00
C1159  C     0.88710   0.85472   0.79176   0.00000  Uiso   1.00
C1160  C     0.89484   0.86328   0.87492   0.00000  Uiso   1.00
C1161  C     0.60516   0.63672   0.79174   0.00000  Uiso   1.00
C1162  C     0.63709   0.89528   0.79176   0.00000  Uiso   1.00
C1163  C     0.86291   0.60472   0.87490   0.00000  Uiso   1.00
C1164  C     0.85516   0.61329   0.79174   0.00000  Uiso   1.00
C1165  C     0.64484   0.88671   0.87492   0.00000  Uiso   1.00
C1166  C     0.86290   0.89528   0.87490   0.00000  Uiso   1.00
C1167  C     0.94065   0.69056   0.83333   0.00000  Uiso   1.00
C1168  C     0.63710   0.60472   0.79176   0.00000  Uiso   1.00
C1169  C     0.64484   0.61328   0.87492   0.00000  Uiso   1.00
C1170  C     0.85516   0.88672   0.79174   0.00000  Uiso   1.00
C1171  C     0.59289   0.84291   0.83333   0.00000  Uiso   1.00
C1172  C     0.90711   0.65709   0.83334   0.00000  Uiso   1.00
C1173  C     0.90711   0.84291   0.83334   0.00000  Uiso   1.00
C1174  C     0.59289   0.65709   0.83333   0.00000  Uiso   1.00
C1175  C     0.84289   0.59291   0.83333   0.00000  Uiso   1.00
C1176  C     0.65711   0.90709   0.83334   0.00000  Uiso   1.00
C1177  C     0.65711   0.59291   0.83334   0.00000  Uiso   1.00
C1178  C     0.55935   0.80944   0.83334   0.00000  Uiso   1.00
C1179  C     0.84289   0.90709   0.83333   0.00000  Uiso   1.00
C1180  C     0.99080   0.66729   0.71552   0.00000  Uiso   1.00
C1181  C     0.50920   0.83271   0.95115   0.00000  Uiso   1.00
C1182  C     0.99080   0.83271   0.71551   0.00000  Uiso   1.00
C1183  C     0.50920   0.66729   0.95115   0.00000  Uiso   1.00
C1184  C     0.74080   0.91729   0.71551   0.00000  Uiso   1.00
C1185  C     0.75920   0.58271   0.95115   0.00000  Uiso   1.00
C1186  C     0.74080   0.58271   0.71551   0.00000  Uiso   1.00
C1187  C     0.75920   0.91729   0.95115   0.00000  Uiso   1.00
C1188  C     0.80935   0.94056   0.83334   0.00000  Uiso   1.00
C1189  C     0.69065   0.55944   0.83333   0.00000  Uiso   1.00
C1190  C     0.69065   0.94056   0.83333   0.00000  Uiso   1.00
C1191  C     0.80935   0.55944   0.83334   0.00000  Uiso   1.00
C1192  C     0.99886   0.71043   0.69140   0.00000  Uiso   1.00
Cu1193 Cu    0.50000   0.75000   0.88022   0.00000  Uiso   1.00
Cu1194 Cu    0.50000   0.75000   0.78645   0.00000  Uiso   1.00
Cu1195 Cu    0.75000   0.50000   0.88022   0.00000  Uiso   1.00
Cu1196 Cu    0.75000   0.50000   0.78645   0.00000  Uiso   1.00
H1197  H     0.89584   0.66090   0.75932   0.00000  Uiso   1.00
H1198  H     0.85416   0.58910   0.90735   0.00000  Uiso   1.00
H1199  H     0.84002   0.60475   0.75924   0.00000  Uiso   1.00
H1200  H     0.65998   0.89525   0.90742   0.00000  Uiso   1.00
H1201  H     0.85415   0.91090   0.90735   0.00000  Uiso   1.00
H1202  H     0.64585   0.58910   0.75932   0.00000  Uiso   1.00
H1203  H     0.65997   0.60474   0.90743   0.00000  Uiso   1.00
H1204  H     0.84003   0.89526   0.75924   0.00000  Uiso   1.00
H1205  H     0.50726   0.65809   0.74668   0.00000  Uiso   1.00
H1206  H     0.99274   0.84191   0.91999   0.00000  Uiso   1.00
H1207  H     0.50726   0.84191   0.74668   0.00000  Uiso   1.00
H1208  H     0.60416   0.83910   0.90735   0.00000  Uiso   1.00
H1209  H     0.99275   0.65809   0.91999   0.00000  Uiso   1.00
H1210  H     0.75726   0.90809   0.74668   0.00000  Uiso   1.00
H1211  H     0.74274   0.59191   0.91999   0.00000  Uiso   1.00
H1212  H     0.75725   0.59191   0.74668   0.00000  Uiso   1.00
H1213  H     0.74274   0.90809   0.91999   0.00000  Uiso   1.00
H1214  H     0.59002   0.85475   0.75924   0.00000  Uiso   1.00
H1215  H     0.90998   0.64525   0.90742   0.00000  Uiso   1.00
H1216  H     0.60415   0.66090   0.90735   0.00000  Uiso   1.00
H1217  H     0.89585   0.83910   0.75932   0.00000  Uiso   1.00
H1218  H     0.90997   0.85474   0.90743   0.00000  Uiso   1.00
H1219  H     0.59003   0.64526   0.75924   0.00000  Uiso   1.00
H1220  H     0.64584   0.91090   0.75932   0.00000  Uiso   1.00
N1221  N     0.50000   0.75000   0.95069   0.00000  Uiso   1.00
N1222  N     0.50000   0.75000   0.71598   0.00000  Uiso   1.00
N1223  N     0.75000   0.50000   0.95069   0.00000  Uiso   1.00
N1224  N     0.75000   0.50000   0.71598   0.00000  Uiso   1.00
O1225  O     0.54508   0.70491   0.87291   0.00000  Uiso   1.00
O1226  O     0.70491   0.54509   0.79375   0.00000  Uiso   1.00
O1227  O     0.70491   0.54509   0.87291   0.00000  Uiso   1.00
O1228  O     0.79508   0.95491   0.79375   0.00000  Uiso   1.00
O1229  O     0.70491   0.95491   0.79375   0.00000  Uiso   1.00
O1230  O     0.79508   0.54509   0.87291   0.00000  Uiso   1.00
O1231  O     0.79508   0.54509   0.79375   0.00000  Uiso   1.00
O1232  O     0.70491   0.95491   0.87291   0.00000  Uiso   1.00
O1233  O     0.96454   0.64090   0.70027   0.00000  Uiso   1.00
O1234  O     0.53546   0.85910   0.96640   0.00000  Uiso   1.00
O1235  O     0.96454   0.85910   0.70026   0.00000  Uiso   1.00
O1236  O     0.95491   0.79509   0.79375   0.00000  Uiso   1.00
O1237  O     0.53545   0.64090   0.96640   0.00000  Uiso   1.00
O1238  O     0.71454   0.89090   0.70026   0.00000  Uiso   1.00
O1239  O     0.78546   0.60910   0.96640   0.00000  Uiso   1.00
O1240  O     0.71454   0.60910   0.70026   0.00000  Uiso   1.00
O1241  O     0.78545   0.89090   0.96640   0.00000  Uiso   1.00
O1242  O     0.95491   0.79509   0.87291   0.00000  Uiso   1.00
O1243  O     0.54508   0.70491   0.79375   0.00000  Uiso   1.00
O1244  O     0.95491   0.70491   0.79375   0.00000  Uiso   1.00
O1245  O     0.54508   0.79509   0.87291   0.00000  Uiso   1.00
O1246  O     0.54508   0.79509   0.79375   0.00000  Uiso   1.00
O1247  O     0.95491   0.70491   0.87291   0.00000  Uiso   1.00
O1248  O     0.79508   0.95491   0.87291   0.00000  Uiso   1.00
loop_
_geom_bond_atom_site_label_1
_geom_bond_atom_site_label_2
_geom_bond_distance
_geom_bond_site_symmetry_2
_ccdc_geom_bond_type
C1     O99     1.301   .     A
C1     O81     1.301   .     A
C1     C30     1.451   .     S
C2     C37     1.485   .     S
C2     C523    1.432   1_455 S
C2     N77     1.378   .     S
C3     C38     1.485   .     S
C3     N182    1.378   .     A
C3     C938    1.432   1_554 S
C4     C39     1.485   .     S
C4     C568    1.432   1_455 S
C4     N77     1.378   .     S
C5     N288    1.378   .     A
C5     C40     1.485   .     S
C5     C840    1.432   1_554 S
C6     C41     1.485   .     S
C6     N79     1.378   .     A
C6     C423    1.432   .     S
C7     C42     1.485   .     S
C7     C838    1.432   1_554 S
C7     N80     1.378   .     S
C8     C43     1.485   .     S
C8     C421    1.432   .     S
C8     N287    1.378   .     S
C9     C20     1.384   .     A
C9     H53     1.083   .     S
C9     C28     1.401   .     A
C10    C27     1.401   .     A
C10    C21     1.384   .     A
C10    H64     1.083   .     S
C11    C18     1.384   .     A
C11    H70     1.083   .     S
C11    C27     1.401   .     A
C12    C29     1.451   .     S
C12    O98     1.301   .     A
C12    O92     1.301   .     A
C13    C28     1.401   .     A
C13    C19     1.384   .     A
C13    H71     1.083   .     S
C14    C30     1.401   .     A
C14    H72     1.083   .     S
C14    C25     1.384   .     A
C15    C29     1.401   .     A
C15    C26     1.384   .     A
C15    H73     1.083   .     S
C16    H74     1.083   .     S
C16    C22     1.384   .     A
C16    C29     1.401   .     A
C17    C30     1.401   .     A
C17    C24     1.384   .     A
C17    H75     1.083   .     S
C18    H76     1.083   .     S
C18    C32     1.401   .     A
C19    C31     1.401   .     A
C19    H54     1.083   .     S
C20    H55     1.083   .     S
C20    C31     1.401   .     A
C21    C32     1.401   .     A
C21    H56     1.083   .     S
C22    H57     1.083   .     S
C22    C35     1.401   .     A
C23    O103    1.301   .     A
C23    O100    1.301   .     A
C23    C28     1.451   .     S
C24    H58     1.083   .     S
C24    C33     1.401   .     A
C25    H59     1.083   .     S
C25    C33     1.401   .     A
C26    C35     1.401   .     A
C26    H60     1.083   .     S
C27    C34     1.451   .     S
C31    C47     1.451   .     S
C32    C46     1.451   .     S
C33    C45     1.451   .     S
C34    O102    1.301   .     A
C34    O101    1.301   .     A
C35    C44     1.451   .     S
C36    O89     1.221   .     D
C36    C48     1.485   .     S
C36    H165    1.074   .     S
C37    O90     1.221   .     D
C37    H166    1.074   1_455 S
C38    O91     1.221   .     D
C38    H167    1.074   .     S
C39    O93     1.221   .     D
C39    H169    1.074   1_455 S
C40    H66     1.074   .     S
C40    O94     1.221   .     D
C41    H67     1.074   .     S
C41    O95     1.221   .     D
C42    H68     1.074   .     S
C42    O96     1.221   .     D
C43    O97     1.221   .     D
C43    H69     1.074   .     S
C44    O104    1.301   .     A
C44    O84     1.301   .     A
C45    O82     1.301   .     A
C45    O83     1.301   .     A
C46    O85     1.301   .     A
C46    O88     1.301   .     A
C47    O86     1.301   .     A
C47    O87     1.301   .     A
C48    N182    1.378   .     A
C48    C940    1.432   1_554 S
Cu49   O101    1.963   .     S
Cu49   O81     1.963   .     S
Cu49   Cu50    2.711   .     S
Cu49   N77     2.037   .     S
Cu49   O202    1.963   1_455 S
Cu49   O207    1.963   1_455 S
Cu50   O99     1.963   .     S
Cu50   O102    1.963   .     S
Cu50   N78     2.037   .     S
Cu50   O196    1.963   1_455 S
Cu50   O204    1.963   1_455 S
Cu51   O296    1.963   1_545 S
Cu51   O312    1.963   1_545 S
Cu51   Cu52    2.711   .     S
Cu51   N79     2.037   .     S
Cu51   O83     1.963   .     S
Cu51   O86     1.963   .     S
Cu52   O82     1.963   .     S
Cu52   O87     1.963   .     S
Cu52   N80     2.037   .     S
Cu52   O292    1.963   1_545 S
Cu52   O293    1.963   1_545 S
H61    C140    1.074   1_455 S
H62    C141    1.074   .     S
H63    C142    1.074   1_455 S
H65    C143    1.074   .     S
N78    C152    1.378   1_455 A
N78    C107    1.378   1_455 A
N79    C216    1.378   1_545 S
N80    C213    1.378   1_545 A
O84    Cu260   1.963   .     S
O85    Cu260   1.963   .     S
O88    Cu259   1.963   .     S
O92    Cu154   1.963   .     S
O98    Cu153   1.963   .     S
O100   Cu154   1.963   .     S
O103   Cu153   1.963   .     S
O104   Cu259   1.963   .     S
C105   O203    1.301   .     A
C105   O185    1.301   .     A
C105   C134    1.451   .     S
C106   C141    1.485   .     S
C106   C419    1.432   .     S
C106   N181    1.378   .     S
C107   C142    1.485   .     S
C107   N78     1.378   1_655 A
C107   C834    1.432   1_654 S
C108   C143    1.485   .     S
C108   C464    1.432   .     S
C108   N181    1.378   .     S
C109   N392    1.378   .     A
C109   C144    1.485   .     S
C109   C944    1.432   1_554 S
C110   C145    1.485   .     S
C110   N183    1.378   .     A
C110   C527    1.432   .     S
C111   C146    1.485   .     S
C111   C942    1.432   1_554 S
C111   N184    1.378   .     S
C112   C147    1.485   .     S
C112   C525    1.432   .     S
C112   N391    1.378   .     S
C113   C124    1.384   .     A
C113   H157    1.083   .     S
C113   C132    1.401   .     A
C114   C131    1.401   .     A
C114   C125    1.384   .     A
C114   H168    1.083   .     S
C115   C122    1.384   .     A
C115   H174    1.083   .     S
C115   C131    1.401   .     A
C116   C133    1.451   .     S
C116   O202    1.301   .     A
C116   O196    1.301   .     A
C117   C132    1.401   .     A
C117   C123    1.384   .     A
C117   H175    1.083   .     S
C118   C134    1.401   .     A
C118   H176    1.083   .     S
C118   C129    1.384   .     A
C119   C133    1.401   .     A
C119   C130    1.384   .     A
C119   H177    1.083   .     S
C120   H178    1.083   .     S
C120   C126    1.384   .     A
C120   C133    1.401   .     A
C121   C134    1.401   .     A
C121   C128    1.384   .     A
C121   H179    1.083   .     S
C122   H180    1.083   .     S
C122   C136    1.401   .     A
C123   C135    1.401   .     A
C123   H158    1.083   .     S
C124   H159    1.083   .     S
C124   C135    1.401   .     A
C125   C136    1.401   .     A
C125   H160    1.083   .     S
C126   H161    1.083   .     S
C126   C139    1.401   .     A
C127   O207    1.301   .     A
C127   O204    1.301   .     A
C127   C132    1.451   .     S
C128   H162    1.083   .     S
C128   C137    1.401   .     A
C129   H163    1.083   .     S
C129   C137    1.401   .     A
C130   C139    1.401   .     A
C130   H164    1.083   .     S
C131   C138    1.451   .     S
C135   C151    1.451   .     S
C136   C150    1.451   .     S
C137   C149    1.451   .     S
C138   O206    1.301   .     A
C138   O205    1.301   .     A
C139   C148    1.451   .     S
C140   O193    1.221   .     D
C140   C152    1.485   .     S
C140   H61     1.074   1_655 S
C141   O194    1.221   .     D
C142   O195    1.221   .     D
C142   H63     1.074   1_655 S
C143   O197    1.221   .     D
C144   H170    1.074   .     S
C144   O198    1.221   .     D
C145   H171    1.074   .     S
C145   O199    1.221   .     D
C146   H172    1.074   .     S
C146   O200    1.221   .     D
C147   O201    1.221   .     D
C147   H173    1.074   .     S
C148   O208    1.301   .     A
C148   O188    1.301   .     A
C149   O186    1.301   .     A
C149   O187    1.301   .     A
C150   O189    1.301   .     A
C150   O192    1.301   .     A
C151   O190    1.301   .     A
C151   O191    1.301   .     A
C152   N78     1.378   1_655 A
C152   C836    1.432   1_654 S
Cu153  O205    1.963   .     S
Cu153  O185    1.963   .     S
Cu153  Cu154   2.711   .     S
Cu153  N181    2.037   .     S
Cu154  O203    1.963   .     S
Cu154  O206    1.963   .     S
Cu154  N182    2.037   .     S
Cu155  O400    1.963   1_545 S
Cu155  O416    1.963   1_545 S
Cu155  Cu156   2.711   .     S
Cu155  N183    2.037   .     S
Cu155  O187    1.963   .     S
Cu155  O190    1.963   .     S
Cu156  O186    1.963   .     S
Cu156  O191    1.963   .     S
Cu156  N184    2.037   .     S
Cu156  O396    1.963   1_545 S
Cu156  O397    1.963   1_545 S
H166   C37     1.074   1_655 S
H169   C39     1.074   1_655 S
N183   C320    1.378   1_545 S
N184   C317    1.378   1_545 A
O188   Cu364   1.963   .     S
O189   Cu364   1.963   .     S
O192   Cu363   1.963   .     S
O196   Cu50    1.963   1_655 S
O202   Cu49    1.963   1_655 S
O204   Cu50    1.963   1_655 S
O207   Cu49    1.963   1_655 S
O208   Cu363   1.963   .     S
C209   O307    1.301   .     A
C209   O289    1.301   .     A
C209   C238    1.451   .     S
C210   C245    1.485   .     S
C210   C731    1.432   1_455 S
C210   N285    1.378   .     S
C211   C246    1.485   .     S
C211   N390    1.378   .     A
C211   C1146   1.432   1_554 S
C212   C247    1.485   .     S
C212   C776    1.432   1_455 S
C212   N285    1.378   .     S
C213   N80     1.378   1_565 A
C213   C248    1.485   .     S
C213   C1048   1.432   1_554 S
C214   C249    1.485   .     S
C214   N287    1.378   .     A
C214   C631    1.432   .     S
C215   C250    1.485   .     S
C215   C1046   1.432   1_554 S
C215   N288    1.378   .     S
C216   C251    1.485   .     S
C216   C629    1.432   .     S
C216   N79     1.378   1_565 S
C217   C228    1.384   .     A
C217   H261    1.083   .     S
C217   C236    1.401   .     A
C218   C235    1.401   .     A
C218   C229    1.384   .     A
C218   H272    1.083   .     S
C219   C226    1.384   .     A
C219   H278    1.083   .     S
C219   C235    1.401   .     A
C220   C237    1.451   .     S
C220   O306    1.301   .     A
C220   O300    1.301   .     A
C221   C236    1.401   .     A
C221   C227    1.384   .     A
C221   H279    1.083   .     S
C222   C238    1.401   .     A
C222   H280    1.083   .     S
C222   C233    1.384   .     A
C223   C237    1.401   .     A
C223   C234    1.384   .     A
C223   H281    1.083   .     S
C224   H282    1.083   .     S
C224   C230    1.384   .     A
C224   C237    1.401   .     A
C225   C238    1.401   .     A
C225   C232    1.384   .     A
C225   H283    1.083   .     S
C226   H284    1.083   .     S
C226   C240    1.401   .     A
C227   C239    1.401   .     A
C227   H262    1.083   .     S
C228   H263    1.083   .     S
C228   C239    1.401   .     A
C229   C240    1.401   .     A
C229   H264    1.083   .     S
C230   H265    1.083   .     S
C230   C243    1.401   .     A
C231   O311    1.301   .     A
C231   O308    1.301   .     A
C231   C236    1.451   .     S
C232   H266    1.083   .     S
C232   C241    1.401   .     A
C233   H267    1.083   .     S
C233   C241    1.401   .     A
C234   C243    1.401   .     A
C234   H268    1.083   .     S
C235   C242    1.451   .     S
C239   C255    1.451   .     S
C240   C254    1.451   .     S
C241   C253    1.451   .     S
C242   O310    1.301   .     A
C242   O309    1.301   .     A
C243   C252    1.451   .     S
C244   O297    1.221   .     D
C244   C256    1.485   .     S
C244   H373    1.074   .     S
C245   O298    1.221   .     D
C245   H374    1.074   1_455 S
C246   O299    1.221   .     D
C246   H375    1.074   .     S
C247   O301    1.221   .     D
C247   H377    1.074   1_455 S
C248   H274    1.074   .     S
C248   O302    1.221   .     D
C249   H275    1.074   .     S
C249   O303    1.221   .     D
C250   H276    1.074   .     S
C250   O304    1.221   .     D
C251   O305    1.221   .     D
C251   H277    1.074   .     S
C252   O312    1.301   .     A
C252   O292    1.301   .     A
C253   O290    1.301   .     A
C253   O291    1.301   .     A
C254   O293    1.301   .     A
C254   O296    1.301   .     A
C255   O294    1.301   .     A
C255   O295    1.301   .     A
C256   N390    1.378   .     A
C256   C1148   1.432   1_554 S
Cu257  O309    1.963   .     S
Cu257  O289    1.963   .     S
Cu257  Cu258   2.711   .     S
Cu257  N285    2.037   .     S
Cu257  O410    1.963   1_455 S
Cu257  O415    1.963   1_455 S
Cu258  O307    1.963   .     S
Cu258  O310    1.963   .     S
Cu258  N286    2.037   .     S
Cu258  O404    1.963   1_455 S
Cu258  O412    1.963   1_455 S
Cu259  Cu260   2.711   .     S
Cu259  N287    2.037   .     S
Cu259  O291    1.963   .     S
Cu259  O294    1.963   .     S
Cu260  O290    1.963   .     S
Cu260  O295    1.963   .     S
Cu260  N288    2.037   .     S
H269   C348    1.074   1_455 S
H270   C349    1.074   .     S
H271   C350    1.074   1_455 S
H273   C351    1.074   .     S
N286   C360    1.378   1_455 A
N286   C315    1.378   1_455 A
O292   Cu52    1.963   1_565 S
O293   Cu52    1.963   1_565 S
O296   Cu51    1.963   1_565 S
O300   Cu362   1.963   .     S
O306   Cu361   1.963   .     S
O308   Cu362   1.963   .     S
O311   Cu361   1.963   .     S
O312   Cu51    1.963   1_565 S
C313   O411    1.301   .     A
C313   O393    1.301   .     A
C313   C342    1.451   .     S
C314   C349    1.485   .     S
C314   C627    1.432   .     S
C314   N389    1.378   .     S
C315   C350    1.485   .     S
C315   N286    1.378   1_655 A
C315   C1042   1.432   1_654 S
C316   C351    1.485   .     S
C316   C672    1.432   .     S
C316   N389    1.378   .     S
C317   N184    1.378   1_565 A
C317   C352    1.485   .     S
C317   C1152   1.432   1_554 S
C318   C353    1.485   .     S
C318   N391    1.378   .     A
C318   C735    1.432   .     S
C319   C354    1.485   .     S
C319   C1150   1.432   1_554 S
C319   N392    1.378   .     S
C320   C355    1.485   .     S
C320   C733    1.432   .     S
C320   N183    1.378   1_565 S
C321   C332    1.384   .     A
C321   H365    1.083   .     S
C321   C340    1.401   .     A
C322   C339    1.401   .     A
C322   C333    1.384   .     A
C322   H376    1.083   .     S
C323   C330    1.384   .     A
C323   H382    1.083   .     S
C323   C339    1.401   .     A
C324   C341    1.451   .     S
C324   O410    1.301   .     A
C324   O404    1.301   .     A
C325   C340    1.401   .     A
C325   C331    1.384   .     A
C325   H383    1.083   .     S
C326   C342    1.401   .     A
C326   H384    1.083   .     S
C326   C337    1.384   .     A
C327   C341    1.401   .     A
C327   C338    1.384   .     A
C327   H385    1.083   .     S
C328   H386    1.083   .     S
C328   C334    1.384   .     A
C328   C341    1.401   .     A
C329   C342    1.401   .     A
C329   C336    1.384   .     A
C329   H387    1.083   .     S
C330   H388    1.083   .     S
C330   C344    1.401   .     A
C331   C343    1.401   .     A
C331   H366    1.083   .     S
C332   H367    1.083   .     S
C332   C343    1.401   .     A
C333   C344    1.401   .     A
C333   H368    1.083   .     S
C334   H369    1.083   .     S
C334   C347    1.401   .     A
C335   O415    1.301   .     A
C335   O412    1.301   .     A
C335   C340    1.451   .     S
C336   H370    1.083   .     S
C336   C345    1.401   .     A
C337   H371    1.083   .     S
C337   C345    1.401   .     A
C338   C347    1.401   .     A
C338   H372    1.083   .     S
C339   C346    1.451   .     S
C343   C359    1.451   .     S
C344   C358    1.451   .     S
C345   C357    1.451   .     S
C346   O414    1.301   .     A
C346   O413    1.301   .     A
C347   C356    1.451   .     S
C348   O401    1.221   .     D
C348   C360    1.485   .     S
C348   H269    1.074   1_655 S
C349   O402    1.221   .     D
C350   O403    1.221   .     D
C350   H271    1.074   1_655 S
C351   O405    1.221   .     D
C352   H378    1.074   .     S
C352   O406    1.221   .     D
C353   H379    1.074   .     S
C353   O407    1.221   .     D
C354   H380    1.074   .     S
C354   O408    1.221   .     D
C355   O409    1.221   .     D
C355   H381    1.074   .     S
C356   O416    1.301   .     A
C356   O396    1.301   .     A
C357   O394    1.301   .     A
C357   O395    1.301   .     A
C358   O397    1.301   .     A
C358   O400    1.301   .     A
C359   O398    1.301   .     A
C359   O399    1.301   .     A
C360   N286    1.378   1_655 A
C360   C1044   1.432   1_654 S
Cu361  O413    1.963   .     S
Cu361  O393    1.963   .     S
Cu361  Cu362   2.711   .     S
Cu361  N389    2.037   .     S
Cu362  O411    1.963   .     S
Cu362  O414    1.963   .     S
Cu362  N390    2.037   .     S
Cu363  Cu364   2.711   .     S
Cu363  N391    2.037   .     S
Cu363  O395    1.963   .     S
Cu363  O398    1.963   .     S
Cu364  O394    1.963   .     S
Cu364  O399    1.963   .     S
Cu364  N392    2.037   .     S
H374   C245    1.074   1_655 S
H377   C247    1.074   1_655 S
O396   Cu156   1.963   1_565 S
O397   Cu156   1.963   1_565 S
O400   Cu155   1.963   1_565 S
O404   Cu258   1.963   1_655 S
O410   Cu257   1.963   1_655 S
O412   Cu258   1.963   1_655 S
O415   Cu257   1.963   1_655 S
O416   Cu155   1.963   1_565 S
C417   O515    1.301   .     A
C417   O497    1.301   .     A
C417   C446    1.451   .     S
C418   C453    1.485   .     S
C418   C939    1.432   1_455 S
C418   N493    1.378   .     S
C419   C454    1.485   .     S
C419   N598    1.378   .     A
C420   C455    1.485   .     S
C420   C984    1.432   1_455 S
C420   N493    1.378   .     S
C421   N704    1.378   .     A
C421   C456    1.485   .     S
C422   C457    1.485   .     S
C422   N495    1.378   .     A
C422   C839    1.432   .     S
C423   C458    1.485   .     S
C423   N496    1.378   .     S
C424   C459    1.485   .     S
C424   C837    1.432   .     S
C424   N703    1.378   .     S
C425   C436    1.384   .     A
C425   H469    1.083   .     S
C425   C444    1.401   .     A
C426   C443    1.401   .     A
C426   C437    1.384   .     A
C426   H480    1.083   .     S
C427   C434    1.384   .     A
C427   H486    1.083   .     S
C427   C443    1.401   .     A
C428   C445    1.451   .     S
C428   O514    1.301   .     A
C428   O508    1.301   .     A
C429   C444    1.401   .     A
C429   C435    1.384   .     A
C429   H487    1.083   .     S
C430   C446    1.401   .     A
C430   H488    1.083   .     S
C430   C441    1.384   .     A
C431   C445    1.401   .     A
C431   C442    1.384   .     A
C431   H489    1.083   .     S
C432   H490    1.083   .     S
C432   C438    1.384   .     A
C432   C445    1.401   .     A
C433   C446    1.401   .     A
C433   C440    1.384   .     A
C433   H491    1.083   .     S
C434   H492    1.083   .     S
C434   C448    1.401   .     A
C435   C447    1.401   .     A
C435   H470    1.083   .     S
C436   H471    1.083   .     S
C436   C447    1.401   .     A
C437   C448    1.401   .     A
C437   H472    1.083   .     S
C438   H473    1.083   .     S
C438   C451    1.401   .     A
C439   O519    1.301   .     A
C439   O516    1.301   .     A
C439   C444    1.451   .     S
C440   H474    1.083   .     S
C440   C449    1.401   .     A
C441   H475    1.083   .     S
C441   C449    1.401   .     A
C442   C451    1.401   .     A
C442   H476    1.083   .     S
C443   C450    1.451   .     S
C447   C463    1.451   .     S
C448   C462    1.451   .     S
C449   C461    1.451   .     S
C450   O518    1.301   .     A
C450   O517    1.301   .     A
C451   C460    1.451   .     S
C452   O505    1.221   .     D
C452   C464    1.485   .     S
C452   H581    1.074   .     S
C453   O506    1.221   .     D
C453   H582    1.074   1_455 S
C454   O507    1.221   .     D
C454   H583    1.074   .     S
C455   O509    1.221   .     D
C455   H585    1.074   1_455 S
C456   H482    1.074   .     S
C456   O510    1.221   .     D
C457   H483    1.074   .     S
C457   O511    1.221   .     D
C458   H484    1.074   .     S
C458   O512    1.221   .     D
C459   O513    1.221   .     D
C459   H485    1.074   .     S
C460   O520    1.301   .     A
C460   O500    1.301   .     A
C461   O498    1.301   .     A
C461   O499    1.301   .     A
C462   O501    1.301   .     A
C462   O504    1.301   .     A
C463   O502    1.301   .     A
C463   O503    1.301   .     A
C464   N598    1.378   .     A
Cu465  O517    1.963   .     S
Cu465  O497    1.963   .     S
Cu465  Cu466   2.711   .     S
Cu465  N493    2.037   .     S
Cu465  O618    1.963   1_455 S
Cu465  O623    1.963   1_455 S
Cu466  O515    1.963   .     S
Cu466  O518    1.963   .     S
Cu466  N494    2.037   .     S
Cu466  O612    1.963   1_455 S
Cu466  O620    1.963   1_455 S
Cu467  O712    1.963   1_545 S
Cu467  O728    1.963   1_545 S
Cu467  Cu468   2.711   .     S
Cu467  N495    2.037   .     S
Cu467  O499    1.963   .     S
Cu467  O502    1.963   .     S
Cu468  O498    1.963   .     S
Cu468  O503    1.963   .     S
Cu468  N496    2.037   .     S
Cu468  O708    1.963   1_545 S
Cu468  O709    1.963   1_545 S
H477   C556    1.074   1_455 S
H478   C557    1.074   .     S
H479   C558    1.074   1_455 S
H481   C559    1.074   .     S
N494   C568    1.378   1_455 A
N494   C523    1.378   1_455 A
N495   C632    1.378   1_545 S
N496   C629    1.378   1_545 A
O500   Cu676   1.963   .     S
O501   Cu676   1.963   .     S
O504   Cu675   1.963   .     S
O508   Cu570   1.963   .     S
O514   Cu569   1.963   .     S
O516   Cu570   1.963   .     S
O519   Cu569   1.963   .     S
O520   Cu675   1.963   .     S
C521   O619    1.301   .     A
C521   O601    1.301   .     A
C521   C550    1.451   .     S
C522   C557    1.485   .     S
C522   C835    1.432   .     S
C522   N597    1.378   .     S
C523   C558    1.485   .     S
C523   N494    1.378   1_655 A
C523   C2      1.432   1_655 S
C524   C559    1.485   .     S
C524   C880    1.432   .     S
C524   N597    1.378   .     S
C525   N808    1.378   .     A
C525   C560    1.485   .     S
C526   C561    1.485   .     S
C526   N599    1.378   .     A
C526   C943    1.432   .     S
C527   C562    1.485   .     S
C527   N600    1.378   .     S
C528   C563    1.485   .     S
C528   C941    1.432   .     S
C528   N807    1.378   .     S
C529   C540    1.384   .     A
C529   H573    1.083   .     S
C529   C548    1.401   .     A
C530   C547    1.401   .     A
C530   C541    1.384   .     A
C530   H584    1.083   .     S
C531   C538    1.384   .     A
C531   H590    1.083   .     S
C531   C547    1.401   .     A
C532   C549    1.451   .     S
C532   O618    1.301   .     A
C532   O612    1.301   .     A
C533   C548    1.401   .     A
C533   C539    1.384   .     A
C533   H591    1.083   .     S
C534   C550    1.401   .     A
C534   H592    1.083   .     S
C534   C545    1.384   .     A
C535   C549    1.401   .     A
C535   C546    1.384   .     A
C535   H593    1.083   .     S
C536   H594    1.083   .     S
C536   C542    1.384   .     A
C536   C549    1.401   .     A
C537   C550    1.401   .     A
C537   C544    1.384   .     A
C537   H595    1.083   .     S
C538   H596    1.083   .     S
C538   C552    1.401   .     A
C539   C551    1.401   .     A
C539   H574    1.083   .     S
C540   H575    1.083   .     S
C540   C551    1.401   .     A
C541   C552    1.401   .     A
C541   H576    1.083   .     S
C542   H577    1.083   .     S
C542   C555    1.401   .     A
C543   O623    1.301   .     A
C543   O620    1.301   .     A
C543   C548    1.451   .     S
C544   H578    1.083   .     S
C544   C553    1.401   .     A
C545   H579    1.083   .     S
C545   C553    1.401   .     A
C546   C555    1.401   .     A
C546   H580    1.083   .     S
C547   C554    1.451   .     S
C551   C567    1.451   .     S
C552   C566    1.451   .     S
C553   C565    1.451   .     S
C554   O622    1.301   .     A
C554   O621    1.301   .     A
C555   C564    1.451   .     S
C556   O609    1.221   .     D
C556   C568    1.485   .     S
C556   H477    1.074   1_655 S
C557   O610    1.221   .     D
C558   O611    1.221   .     D
C558   H479    1.074   1_655 S
C559   O613    1.221   .     D
C560   H586    1.074   .     S
C560   O614    1.221   .     D
C561   H587    1.074   .     S
C561   O615    1.221   .     D
C562   H588    1.074   .     S
C562   O616    1.221   .     D
C563   O617    1.221   .     D
C563   H589    1.074   .     S
C564   O624    1.301   .     A
C564   O604    1.301   .     A
C565   O602    1.301   .     A
C565   O603    1.301   .     A
C566   O605    1.301   .     A
C566   O608    1.301   .     A
C567   O606    1.301   .     A
C567   O607    1.301   .     A
C568   N494    1.378   1_655 A
C568   C4      1.432   1_655 S
Cu569  O621    1.963   .     S
Cu569  O601    1.963   .     S
Cu569  Cu570   2.711   .     S
Cu569  N597    2.037   .     S
Cu570  O619    1.963   .     S
Cu570  O622    1.963   .     S
Cu570  N598    2.037   .     S
Cu571  O816    1.963   1_545 S
Cu571  O832    1.963   1_545 S
Cu571  Cu572   2.711   .     S
Cu571  N599    2.037   .     S
Cu571  O603    1.963   .     S
Cu571  O606    1.963   .     S
Cu572  O602    1.963   .     S
Cu572  O607    1.963   .     S
Cu572  N600    2.037   .     S
Cu572  O812    1.963   1_545 S
Cu572  O813    1.963   1_545 S
H582   C453    1.074   1_655 S
H585   C455    1.074   1_655 S
N599   C736    1.378   1_545 S
N600   C733    1.378   1_545 A
O604   Cu780   1.963   .     S
O605   Cu780   1.963   .     S
O608   Cu779   1.963   .     S
O612   Cu466   1.963   1_655 S
O618   Cu465   1.963   1_655 S
O620   Cu466   1.963   1_655 S
O623   Cu465   1.963   1_655 S
O624   Cu779   1.963   .     S
C625   O723    1.301   .     A
C625   O705    1.301   .     A
C625   C654    1.451   .     S
C626   C661    1.485   .     S
C626   C1147   1.432   1_455 S
C626   N701    1.378   .     S
C627   C662    1.485   .     S
C627   N806    1.378   .     A
C628   C663    1.485   .     S
C628   C1192   1.432   1_455 S
C628   N701    1.378   .     S
C629   N496    1.378   1_565 A
C629   C664    1.485   .     S
C630   C665    1.485   .     S
C630   N703    1.378   .     A
C630   C1047   1.432   .     S
C631   C666    1.485   .     S
C631   N704    1.378   .     S
C632   C667    1.485   .     S
C632   C1045   1.432   .     S
C632   N495    1.378   1_565 S
C633   C644    1.384   .     A
C633   H677    1.083   .     S
C633   C652    1.401   .     A
C634   C651    1.401   .     A
C634   C645    1.384   .     A
C634   H688    1.083   .     S
C635   C642    1.384   .     A
C635   H694    1.083   .     S
C635   C651    1.401   .     A
C636   C653    1.451   .     S
C636   O722    1.301   .     A
C636   O716    1.301   .     A
C637   C652    1.401   .     A
C637   C643    1.384   .     A
C637   H695    1.083   .     S
C638   C654    1.401   .     A
C638   H696    1.083   .     S
C638   C649    1.384   .     A
C639   C653    1.401   .     A
C639   C650    1.384   .     A
C639   H697    1.083   .     S
C640   H698    1.083   .     S
C640   C646    1.384   .     A
C640   C653    1.401   .     A
C641   C654    1.401   .     A
C641   C648    1.384   .     A
C641   H699    1.083   .     S
C642   H700    1.083   .     S
C642   C656    1.401   .     A
C643   C655    1.401   .     A
C643   H678    1.083   .     S
C644   H679    1.083   .     S
C644   C655    1.401   .     A
C645   C656    1.401   .     A
C645   H680    1.083   .     S
C646   H681    1.083   .     S
C646   C659    1.401   .     A
C647   O727    1.301   .     A
C647   O724    1.301   .     A
C647   C652    1.451   .     S
C648   H682    1.083   .     S
C648   C657    1.401   .     A
C649   H683    1.083   .     S
C649   C657    1.401   .     A
C650   C659    1.401   .     A
C650   H684    1.083   .     S
C651   C658    1.451   .     S
C655   C671    1.451   .     S
C656   C670    1.451   .     S
C657   C669    1.451   .     S
C658   O726    1.301   .     A
C658   O725    1.301   .     A
C659   C668    1.451   .     S
C660   O713    1.221   .     D
C660   C672    1.485   .     S
C660   H789    1.074   .     S
C661   O714    1.221   .     D
C661   H790    1.074   1_455 S
C662   O715    1.221   .     D
C662   H791    1.074   .     S
C663   O717    1.221   .     D
C663   H793    1.074   1_455 S
C664   H690    1.074   .     S
C664   O718    1.221   .     D
C665   H691    1.074   .     S
C665   O719    1.221   .     D
C666   H692    1.074   .     S
C666   O720    1.221   .     D
C667   O721    1.221   .     D
C667   H693    1.074   .     S
C668   O728    1.301   .     A
C668   O708    1.301   .     A
C669   O706    1.301   .     A
C669   O707    1.301   .     A
C670   O709    1.301   .     A
C670   O712    1.301   .     A
C671   O710    1.301   .     A
C671   O711    1.301   .     A
C672   N806    1.378   .     A
Cu673  O725    1.963   .     S
Cu673  O705    1.963   .     S
Cu673  Cu674   2.711   .     S
Cu673  N701    2.037   .     S
Cu673  O826    1.963   1_455 S
Cu673  O831    1.963   1_455 S
Cu674  O723    1.963   .     S
Cu674  O726    1.963   .     S
Cu674  N702    2.037   .     S
Cu674  O820    1.963   1_455 S
Cu674  O828    1.963   1_455 S
Cu675  Cu676   2.711   .     S
Cu675  N703    2.037   .     S
Cu675  O707    1.963   .     S
Cu675  O710    1.963   .     S
Cu676  O706    1.963   .     S
Cu676  O711    1.963   .     S
Cu676  N704    2.037   .     S
H685   C764    1.074   1_455 S
H686   C765    1.074   .     S
H687   C766    1.074   1_455 S
H689   C767    1.074   .     S
N702   C776    1.378   1_455 A
N702   C731    1.378   1_455 A
O708   Cu468   1.963   1_565 S
O709   Cu468   1.963   1_565 S
O712   Cu467   1.963   1_565 S
O716   Cu778   1.963   .     S
O722   Cu777   1.963   .     S
O724   Cu778   1.963   .     S
O727   Cu777   1.963   .     S
O728   Cu467   1.963   1_565 S
C729   O827    1.301   .     A
C729   O809    1.301   .     A
C729   C758    1.451   .     S
C730   C765    1.485   .     S
C730   C1043   1.432   .     S
C730   N805    1.378   .     S
C731   C766    1.485   .     S
C731   N702    1.378   1_655 A
C731   C210    1.432   1_655 S
C732   C767    1.485   .     S
C732   C1088   1.432   .     S
C732   N805    1.378   .     S
C733   N600    1.378   1_565 A
C733   C768    1.485   .     S
C734   C769    1.485   .     S
C734   N807    1.378   .     A
C734   C1151   1.432   .     S
C735   C770    1.485   .     S
C735   N808    1.378   .     S
C736   C771    1.485   .     S
C736   C1149   1.432   .     S
C736   N599    1.378   1_565 S
C737   C748    1.384   .     A
C737   H781    1.083   .     S
C737   C756    1.401   .     A
C738   C755    1.401   .     A
C738   C749    1.384   .     A
C738   H792    1.083   .     S
C739   C746    1.384   .     A
C739   H798    1.083   .     S
C739   C755    1.401   .     A
C740   C757    1.451   .     S
C740   O826    1.301   .     A
C740   O820    1.301   .     A
C741   C756    1.401   .     A
C741   C747    1.384   .     A
C741   H799    1.083   .     S
C742   C758    1.401   .     A
C742   H800    1.083   .     S
C742   C753    1.384   .     A
C743   C757    1.401   .     A
C743   C754    1.384   .     A
C743   H801    1.083   .     S
C744   H802    1.083   .     S
C744   C750    1.384   .     A
C744   C757    1.401   .     A
C745   C758    1.401   .     A
C745   C752    1.384   .     A
C745   H803    1.083   .     S
C746   H804    1.083   .     S
C746   C760    1.401   .     A
C747   C759    1.401   .     A
C747   H782    1.083   .     S
C748   H783    1.083   .     S
C748   C759    1.401   .     A
C749   C760    1.401   .     A
C749   H784    1.083   .     S
C750   H785    1.083   .     S
C750   C763    1.401   .     A
C751   O831    1.301   .     A
C751   O828    1.301   .     A
C751   C756    1.451   .     S
C752   H786    1.083   .     S
C752   C761    1.401   .     A
C753   H787    1.083   .     S
C753   C761    1.401   .     A
C754   C763    1.401   .     A
C754   H788    1.083   .     S
C755   C762    1.451   .     S
C759   C775    1.451   .     S
C760   C774    1.451   .     S
C761   C773    1.451   .     S
C762   O830    1.301   .     A
C762   O829    1.301   .     A
C763   C772    1.451   .     S
C764   O817    1.221   .     D
C764   C776    1.485   .     S
C764   H685    1.074   1_655 S
C765   O818    1.221   .     D
C766   O819    1.221   .     D
C766   H687    1.074   1_655 S
C767   O821    1.221   .     D
C768   H794    1.074   .     S
C768   O822    1.221   .     D
C769   H795    1.074   .     S
C769   O823    1.221   .     D
C770   H796    1.074   .     S
C770   O824    1.221   .     D
C771   O825    1.221   .     D
C771   H797    1.074   .     S
C772   O832    1.301   .     A
C772   O812    1.301   .     A
C773   O810    1.301   .     A
C773   O811    1.301   .     A
C774   O813    1.301   .     A
C774   O816    1.301   .     A
C775   O814    1.301   .     A
C775   O815    1.301   .     A
C776   N702    1.378   1_655 A
C776   C212    1.432   1_655 S
Cu777  O829    1.963   .     S
Cu777  O809    1.963   .     S
Cu777  Cu778   2.711   .     S
Cu777  N805    2.037   .     S
Cu778  O827    1.963   .     S
Cu778  O830    1.963   .     S
Cu778  N806    2.037   .     S
Cu779  Cu780   2.711   .     S
Cu779  N807    2.037   .     S
Cu779  O811    1.963   .     S
Cu779  O814    1.963   .     S
Cu780  O810    1.963   .     S
Cu780  O815    1.963   .     S
Cu780  N808    2.037   .     S
H790   C661    1.074   1_655 S
H793   C663    1.074   1_655 S
O812   Cu572   1.963   1_565 S
O813   Cu572   1.963   1_565 S
O816   Cu571   1.963   1_565 S
O820   Cu674   1.963   1_655 S
O826   Cu673   1.963   1_655 S
O828   Cu674   1.963   1_655 S
O831   Cu673   1.963   1_655 S
O832   Cu571   1.963   1_565 S
C833   O931    1.301   .     A
C833   O913    1.301   .     A
C833   C862    1.451   .     S
C834   C869    1.485   .     S
C834   C107    1.432   1_456 S
C834   N909    1.378   .     S
C835   C870    1.485   .     S
C835   N1014   1.378   .     A
C836   C871    1.485   .     S
C836   C152    1.432   1_456 S
C836   N909    1.378   .     S
C837   N1120   1.378   .     A
C837   C872    1.485   .     S
C838   C873    1.485   .     S
C838   N911    1.378   .     A
C838   C7      1.432   1_556 S
C839   C874    1.485   .     S
C839   N912    1.378   .     S
C840   C875    1.485   .     S
C840   C5      1.432   1_556 S
C840   N1119   1.378   .     S
C841   C852    1.384   .     A
C841   H885    1.083   .     S
C841   C860    1.401   .     A
C842   C859    1.401   .     A
C842   C853    1.384   .     A
C842   H896    1.083   .     S
C843   C850    1.384   .     A
C843   H902    1.083   .     S
C843   C859    1.401   .     A
C844   C861    1.451   .     S
C844   O930    1.301   .     A
C844   O924    1.301   .     A
C845   C860    1.401   .     A
C845   C851    1.384   .     A
C845   H903    1.083   .     S
C846   C862    1.401   .     A
C846   H904    1.083   .     S
C846   C857    1.384   .     A
C847   C861    1.401   .     A
C847   C858    1.384   .     A
C847   H905    1.083   .     S
C848   H906    1.083   .     S
C848   C854    1.384   .     A
C848   C861    1.401   .     A
C849   C862    1.401   .     A
C849   C856    1.384   .     A
C849   H907    1.083   .     S
C850   H908    1.083   .     S
C850   C864    1.401   .     A
C851   C863    1.401   .     A
C851   H886    1.083   .     S
C852   H887    1.083   .     S
C852   C863    1.401   .     A
C853   C864    1.401   .     A
C853   H888    1.083   .     S
C854   H889    1.083   .     S
C854   C867    1.401   .     A
C855   O935    1.301   .     A
C855   O932    1.301   .     A
C855   C860    1.451   .     S
C856   H890    1.083   .     S
C856   C865    1.401   .     A
C857   H891    1.083   .     S
C857   C865    1.401   .     A
C858   C867    1.401   .     A
C858   H892    1.083   .     S
C859   C866    1.451   .     S
C863   C879    1.451   .     S
C864   C878    1.451   .     S
C865   C877    1.451   .     S
C866   O934    1.301   .     A
C866   O933    1.301   .     A
C867   C876    1.451   .     S
C868   O921    1.221   .     D
C868   C880    1.485   .     S
C868   H997    1.074   .     S
C869   O922    1.221   .     D
C869   H998    1.074   1_455 S
C870   O923    1.221   .     D
C870   H999    1.074   .     S
C871   O925    1.221   .     D
C871   H1001   1.074   1_455 S
C872   H898    1.074   .     S
C872   O926    1.221   .     D
C873   H899    1.074   .     S
C873   O927    1.221   .     D
C874   H900    1.074   .     S
C874   O928    1.221   .     D
C875   O929    1.221   .     D
C875   H901    1.074   .     S
C876   O936    1.301   .     A
C876   O916    1.301   .     A
C877   O914    1.301   .     A
C877   O915    1.301   .     A
C878   O917    1.301   .     A
C878   O920    1.301   .     A
C879   O918    1.301   .     A
C879   O919    1.301   .     A
C880   N1014   1.378   .     A
Cu881  O933    1.963   .     S
Cu881  O913    1.963   .     S
Cu881  Cu882   2.711   .     S
Cu881  N909    2.037   .     S
Cu881  O1034   1.963   1_455 S
Cu881  O1039   1.963   1_455 S
Cu882  O931    1.963   .     S
Cu882  O934    1.963   .     S
Cu882  N910    2.037   .     S
Cu882  O1028   1.963   1_455 S
Cu882  O1036   1.963   1_455 S
Cu883  O1128   1.963   1_545 S
Cu883  O1144   1.963   1_545 S
Cu883  Cu884   2.711   .     S
Cu883  N911    2.037   .     S
Cu883  O915    1.963   .     S
Cu883  O918    1.963   .     S
Cu884  O914    1.963   .     S
Cu884  O919    1.963   .     S
Cu884  N912    2.037   .     S
Cu884  O1124   1.963   1_545 S
Cu884  O1125   1.963   1_545 S
H893   C972    1.074   1_455 S
H894   C973    1.074   .     S
H895   C974    1.074   1_455 S
H897   C975    1.074   .     S
N910   C984    1.378   1_455 A
N910   C939    1.378   1_455 A
N911   C1048   1.378   1_545 S
N912   C1045   1.378   1_545 A
O916   Cu1092  1.963   .     S
O917   Cu1092  1.963   .     S
O920   Cu1091  1.963   .     S
O924   Cu986   1.963   .     S
O930   Cu985   1.963   .     S
O932   Cu986   1.963   .     S
O935   Cu985   1.963   .     S
O936   Cu1091  1.963   .     S
C937   O1035   1.301   .     A
C937   O1017   1.301   .     A
C937   C966    1.451   .     S
C938   C973    1.485   .     S
C938   C3      1.432   1_556 S
C938   N1013   1.378   .     S
C939   C974    1.485   .     S
C939   N910    1.378   1_655 A
C939   C418    1.432   1_655 S
C940   C975    1.485   .     S
C940   C48     1.432   1_556 S
C940   N1013   1.378   .     S
C941   N1224   1.378   .     A
C941   C976    1.485   .     S
C942   C977    1.485   .     S
C942   N1015   1.378   .     A
C942   C111    1.432   1_556 S
C943   C978    1.485   .     S
C943   N1016   1.378   .     S
C944   C979    1.485   .     S
C944   C109    1.432   1_556 S
C944   N1223   1.378   .     S
C945   C956    1.384   .     A
C945   H989    1.083   .     S
C945   C964    1.401   .     A
C946   C963    1.401   .     A
C946   C957    1.384   .     A
C946   H1000   1.083   .     S
C947   C954    1.384   .     A
C947   H1006   1.083   .     S
C947   C963    1.401   .     A
C948   C965    1.451   .     S
C948   O1034   1.301   .     A
C948   O1028   1.301   .     A
C949   C964    1.401   .     A
C949   C955    1.384   .     A
C949   H1007   1.083   .     S
C950   C966    1.401   .     A
C950   H1008   1.083   .     S
C950   C961    1.384   .     A
C951   C965    1.401   .     A
C951   C962    1.384   .     A
C951   H1009   1.083   .     S
C952   H1010   1.083   .     S
C952   C958    1.384   .     A
C952   C965    1.401   .     A
C953   C966    1.401   .     A
C953   C960    1.384   .     A
C953   H1011   1.083   .     S
C954   H1012   1.083   .     S
C954   C968    1.401   .     A
C955   C967    1.401   .     A
C955   H990    1.083   .     S
C956   H991    1.083   .     S
C956   C967    1.401   .     A
C957   C968    1.401   .     A
C957   H992    1.083   .     S
C958   H993    1.083   .     S
C958   C971    1.401   .     A
C959   O1039   1.301   .     A
C959   O1036   1.301   .     A
C959   C964    1.451   .     S
C960   H994    1.083   .     S
C960   C969    1.401   .     A
C961   H995    1.083   .     S
C961   C969    1.401   .     A
C962   C971    1.401   .     A
C962   H996    1.083   .     S
C963   C970    1.451   .     S
C967   C983    1.451   .     S
C968   C982    1.451   .     S
C969   C981    1.451   .     S
C970   O1038   1.301   .     A
C970   O1037   1.301   .     A
C971   C980    1.451   .     S
C972   O1025   1.221   .     D
C972   C984    1.485   .     S
C972   H893    1.074   1_655 S
C973   O1026   1.221   .     D
C974   O1027   1.221   .     D
C974   H895    1.074   1_655 S
C975   O1029   1.221   .     D
C976   H1002   1.074   .     S
C976   O1030   1.221   .     D
C977   H1003   1.074   .     S
C977   O1031   1.221   .     D
C978   H1004   1.074   .     S
C978   O1032   1.221   .     D
C979   O1033   1.221   .     D
C979   H1005   1.074   .     S
C980   O1040   1.301   .     A
C980   O1020   1.301   .     A
C981   O1018   1.301   .     A
C981   O1019   1.301   .     A
C982   O1021   1.301   .     A
C982   O1024   1.301   .     A
C983   O1022   1.301   .     A
C983   O1023   1.301   .     A
C984   N910    1.378   1_655 A
C984   C420    1.432   1_655 S
Cu985  O1037   1.963   .     S
Cu985  O1017   1.963   .     S
Cu985  Cu986   2.711   .     S
Cu985  N1013   2.037   .     S
Cu986  O1035   1.963   .     S
Cu986  O1038   1.963   .     S
Cu986  N1014   2.037   .     S
Cu987  O1232   1.963   1_545 S
Cu987  O1248   1.963   1_545 S
Cu987  Cu988   2.711   .     S
Cu987  N1015   2.037   .     S
Cu987  O1019   1.963   .     S
Cu987  O1022   1.963   .     S
Cu988  O1018   1.963   .     S
Cu988  O1023   1.963   .     S
Cu988  N1016   2.037   .     S
Cu988  O1228   1.963   1_545 S
Cu988  O1229   1.963   1_545 S
H998   C869    1.074   1_655 S
H1001  C871    1.074   1_655 S
N1015  C1152   1.378   1_545 S
N1016  C1149   1.378   1_545 A
O1020  Cu1196  1.963   .     S
O1021  Cu1196  1.963   .     S
O1024  Cu1195  1.963   .     S
O1028  Cu882   1.963   1_655 S
O1034  Cu881   1.963   1_655 S
O1036  Cu882   1.963   1_655 S
O1039  Cu881   1.963   1_655 S
O1040  Cu1195  1.963   .     S
C1041  O1139   1.301   .     A
C1041  O1121   1.301   .     A
C1041  C1070   1.451   .     S
C1042  C1077   1.485   .     S
C1042  C315    1.432   1_456 S
C1042  N1117   1.378   .     S
C1043  C1078   1.485   .     S
C1043  N1222   1.378   .     A
C1044  C1079   1.485   .     S
C1044  C360    1.432   1_456 S
C1044  N1117   1.378   .     S
C1045  N912    1.378   1_565 A
C1045  C1080   1.485   .     S
C1046  C1081   1.485   .     S
C1046  N1119   1.378   .     A
C1046  C215    1.432   1_556 S
C1047  C1082   1.485   .     S
C1047  N1120   1.378   .     S
C1048  C1083   1.485   .     S
C1048  C213    1.432   1_556 S
C1048  N911    1.378   1_565 S
C1049  C1060   1.384   .     A
C1049  H1093   1.083   .     S
C1049  C1068   1.401   .     A
C1050  C1067   1.401   .     A
C1050  C1061   1.384   .     A
C1050  H1104   1.083   .     S
C1051  C1058   1.384   .     A
C1051  H1110   1.083   .     S
C1051  C1067   1.401   .     A
C1052  C1069   1.451   .     S
C1052  O1138   1.301   .     A
C1052  O1132   1.301   .     A
C1053  C1068   1.401   .     A
C1053  C1059   1.384   .     A
C1053  H1111   1.083   .     S
C1054  C1070   1.401   .     A
C1054  H1112   1.083   .     S
C1054  C1065   1.384   .     A
C1055  C1069   1.401   .     A
C1055  C1066   1.384   .     A
C1055  H1113   1.083   .     S
C1056  H1114   1.083   .     S
C1056  C1062   1.384   .     A
C1056  C1069   1.401   .     A
C1057  C1070   1.401   .     A
C1057  C1064   1.384   .     A
C1057  H1115   1.083   .     S
C1058  H1116   1.083   .     S
C1058  C1072   1.401   .     A
C1059  C1071   1.401   .     A
C1059  H1094   1.083   .     S
C1060  H1095   1.083   .     S
C1060  C1071   1.401   .     A
C1061  C1072   1.401   .     A
C1061  H1096   1.083   .     S
C1062  H1097   1.083   .     S
C1062  C1075   1.401   .     A
C1063  O1143   1.301   .     A
C1063  O1140   1.301   .     A
C1063  C1068   1.451   .     S
C1064  H1098   1.083   .     S
C1064  C1073   1.401   .     A
C1065  H1099   1.083   .     S
C1065  C1073   1.401   .     A
C1066  C1075   1.401   .     A
C1066  H1100   1.083   .     S
C1067  C1074   1.451   .     S
C1071  C1087   1.451   .     S
C1072  C1086   1.451   .     S
C1073  C1085   1.451   .     S
C1074  O1142   1.301   .     A
C1074  O1141   1.301   .     A
C1075  C1084   1.451   .     S
C1076  O1129   1.221   .     D
C1076  C1088   1.485   .     S
C1076  H1205   1.074   .     S
C1077  O1130   1.221   .     D
C1077  H1206   1.074   1_455 S
C1078  O1131   1.221   .     D
C1078  H1207   1.074   .     S
C1079  O1133   1.221   .     D
C1079  H1209   1.074   1_455 S
C1080  H1106   1.074   .     S
C1080  O1134   1.221   .     D
C1081  H1107   1.074   .     S
C1081  O1135   1.221   .     D
C1082  H1108   1.074   .     S
C1082  O1136   1.221   .     D
C1083  O1137   1.221   .     D
C1083  H1109   1.074   .     S
C1084  O1144   1.301   .     A
C1084  O1124   1.301   .     A
C1085  O1122   1.301   .     A
C1085  O1123   1.301   .     A
C1086  O1125   1.301   .     A
C1086  O1128   1.301   .     A
C1087  O1126   1.301   .     A
C1087  O1127   1.301   .     A
C1088  N1222   1.378   .     A
Cu1089 O1141   1.963   .     S
Cu1089 O1121   1.963   .     S
Cu1089 Cu1090  2.711   .     S
Cu1089 N1117   2.037   .     S
Cu1089 O1242   1.963   1_455 S
Cu1089 O1247   1.963   1_455 S
Cu1090 O1139   1.963   .     S
Cu1090 O1142   1.963   .     S
Cu1090 N1118   2.037   .     S
Cu1090 O1236   1.963   1_455 S
Cu1090 O1244   1.963   1_455 S
Cu1091 Cu1092  2.711   .     S
Cu1091 N1119   2.037   .     S
Cu1091 O1123   1.963   .     S
Cu1091 O1126   1.963   .     S
Cu1092 O1122   1.963   .     S
Cu1092 O1127   1.963   .     S
Cu1092 N1120   2.037   .     S
H1101  C1180   1.074   1_455 S
H1102  C1181   1.074   .     S
H1103  C1182   1.074   1_455 S
H1105  C1183   1.074   .     S
N1118  C1192   1.378   1_455 A
N1118  C1147   1.378   1_455 A
O1124  Cu884   1.963   1_565 S
O1125  Cu884   1.963   1_565 S
O1128  Cu883   1.963   1_565 S
O1132  Cu1194  1.963   .     S
O1138  Cu1193  1.963   .     S
O1140  Cu1194  1.963   .     S
O1143  Cu1193  1.963   .     S
O1144  Cu883   1.963   1_565 S
C1145  O1243   1.301   .     A
C1145  O1225   1.301   .     A
C1145  C1174   1.451   .     S
C1146  C1181   1.485   .     S
C1146  C211    1.432   1_556 S
C1146  N1221   1.378   .     S
C1147  C1182   1.485   .     S
C1147  N1118   1.378   1_655 A
C1147  C626    1.432   1_655 S
C1148  C1183   1.485   .     S
C1148  C256    1.432   1_556 S
C1148  N1221   1.378   .     S
C1149  N1016   1.378   1_565 A
C1149  C1184   1.485   .     S
C1150  C1185   1.485   .     S
C1150  N1223   1.378   .     A
C1150  C319    1.432   1_556 S
C1151  C1186   1.485   .     S
C1151  N1224   1.378   .     S
C1152  C1187   1.485   .     S
C1152  C317    1.432   1_556 S
C1152  N1015   1.378   1_565 S
C1153  C1164   1.384   .     A
C1153  H1197   1.083   .     S
C1153  C1172   1.401   .     A
C1154  C1171   1.401   .     A
C1154  C1165   1.384   .     A
C1154  H1208   1.083   .     S
C1155  C1162   1.384   .     A
C1155  H1214   1.083   .     S
C1155  C1171   1.401   .     A
C1156  C1173   1.451   .     S
C1156  O1242   1.301   .     A
C1156  O1236   1.301   .     A
C1157  C1172   1.401   .     A
C1157  C1163   1.384   .     A
C1157  H1215   1.083   .     S
C1158  C1174   1.401   .     A
C1158  H1216   1.083   .     S
C1158  C1169   1.384   .     A
C1159  C1173   1.401   .     A
C1159  C1170   1.384   .     A
C1159  H1217   1.083   .     S
C1160  H1218   1.083   .     S
C1160  C1166   1.384   .     A
C1160  C1173   1.401   .     A
C1161  C1174   1.401   .     A
C1161  C1168   1.384   .     A
C1161  H1219   1.083   .     S
C1162  H1220   1.083   .     S
C1162  C1176   1.401   .     A
C1163  C1175   1.401   .     A
C1163  H1198   1.083   .     S
C1164  H1199   1.083   .     S
C1164  C1175   1.401   .     A
C1165  C1176   1.401   .     A
C1165  H1200   1.083   .     S
C1166  H1201   1.083   .     S
C1166  C1179   1.401   .     A
C1167  O1247   1.301   .     A
C1167  O1244   1.301   .     A
C1167  C1172   1.451   .     S
C1168  H1202   1.083   .     S
C1168  C1177   1.401   .     A
C1169  H1203   1.083   .     S
C1169  C1177   1.401   .     A
C1170  C1179   1.401   .     A
C1170  H1204   1.083   .     S
C1171  C1178   1.451   .     S
C1175  C1191   1.451   .     S
C1176  C1190   1.451   .     S
C1177  C1189   1.451   .     S
C1178  O1246   1.301   .     A
C1178  O1245   1.301   .     A
C1179  C1188   1.451   .     S
C1180  O1233   1.221   .     D
C1180  C1192   1.485   .     S
C1180  H1101   1.074   1_655 S
C1181  O1234   1.221   .     D
C1182  O1235   1.221   .     D
C1182  H1103   1.074   1_655 S
C1183  O1237   1.221   .     D
C1184  H1210   1.074   .     S
C1184  O1238   1.221   .     D
C1185  H1211   1.074   .     S
C1185  O1239   1.221   .     D
C1186  H1212   1.074   .     S
C1186  O1240   1.221   .     D
C1187  O1241   1.221   .     D
C1187  H1213   1.074   .     S
C1188  O1248   1.301   .     A
C1188  O1228   1.301   .     A
C1189  O1226   1.301   .     A
C1189  O1227   1.301   .     A
C1190  O1229   1.301   .     A
C1190  O1232   1.301   .     A
C1191  O1230   1.301   .     A
C1191  O1231   1.301   .     A
C1192  N1118   1.378   1_655 A
C1192  C628    1.432   1_655 S
Cu1193 O1245   1.963   .     S
Cu1193 O1225   1.963   .     S
Cu1193 Cu1194  2.711   .     S
Cu1193 N1221   2.037   .     S
Cu1194 O1243   1.963   .     S
Cu1194 O1246   1.963   .     S
Cu1194 N1222   2.037   .     S
Cu1195 Cu1196  2.711   .     S
Cu1195 N1223   2.037   .     S
Cu1195 O1227   1.963   .     S
Cu1195 O1230   1.963   .     S
Cu1196 O1226   1.963   .     S
Cu1196 O1231   1.963   .     S
Cu1196 N1224   2.037   .     S
H1206  C1077   1.074   1_655 S
H1209  C1079   1.074   1_655 S
O1228  Cu988   1.963   1_565 S
O1229  Cu988   1.963   1_565 S
O1232  Cu987   1.963   1_565 S
O1236  Cu1090  1.963   1_655 S
O1242  Cu1089  1.963   1_655 S
O1244  Cu1090  1.963   1_655 S
O1247  Cu1089  1.963   1_655 S
O1248  Cu987   1.963   1_565 S
