data_str_m2_o1_o17_pcu_sym.1
_audit_creation_date              2020-01-03
_audit_creation_method            'Materials Studio'
_symmetry_space_group_name_H-M    'P1'
_symmetry_Int_Tables_number       1
_symmetry_cell_setting            triclinic
loop_
_symmetry_equiv_pos_as_xyz
  x,y,z
_cell_length_a                    32.5021
_cell_length_b                    28.5272
_cell_length_c                    30.1626
_cell_angle_alpha                 89.9520
_cell_angle_beta                  90.1925
_cell_angle_gamma                 90.0064
loop_
_atom_site_label
_atom_site_type_symbol
_atom_site_fract_x
_atom_site_fract_y
_atom_site_fract_z
_atom_site_U_iso_or_equiv
_atom_site_adp_type
_atom_site_occupancy
C1     C     0.08734   0.16667   0.24997   0.00000  Uiso   1.00
C2     C     0.04273   0.16667   0.24997   0.00000  Uiso   1.00
C3     C     0.14135   0.02484   0.22212   0.00000  Uiso   1.00
C4     C     0.19199   0.30850   0.27788   0.00000  Uiso   1.00
C5     C     0.19199   0.02480   0.27788   0.00000  Uiso   1.00
C6     C     0.14135   0.30854   0.22211   0.00000  Uiso   1.00
C7     C     0.16666   0.16668   0.16429   0.00000  Uiso   1.00
C8     C     0.16668   0.16665   0.33571   0.00000  Uiso   1.00
C9     C     0.17599   0.12554   0.40732   0.00000  Uiso   1.00
C10    C     0.15735   0.20779   0.09268   0.00000  Uiso   1.00
C11    C     0.16650   0.16664   0.38410   0.00000  Uiso   1.00
C12    C     0.24599   0.16667   0.25003   0.00000  Uiso   1.00
C13    C     0.16683   0.16669   0.11590   0.00000  Uiso   1.00
C14    C     0.15683   0.20780   0.40710   0.00000  Uiso   1.00
C15    C     0.17651   0.12553   0.09290   0.00000  Uiso   1.00
C16    C     0.15599   0.20825   0.45346   0.00000  Uiso   1.00
C17    C     0.17734   0.12508   0.04654   0.00000  Uiso   1.00
C18    C     0.16641   0.16676   0.47674   0.00000  Uiso   1.00
C19    C     0.16692   0.16657   0.02326   0.00000  Uiso   1.00
C20    C     0.17636   0.12541   0.45349   0.00000  Uiso   1.00
C21    C     0.15698   0.20793   0.04651   0.00000  Uiso   1.00
C22    C     0.14538   0.24925   0.47707   0.00000  Uiso   1.00
C23    C     0.14643   0.24878   0.02344   0.00000  Uiso   1.00
C24    C     0.18795   0.08409   0.02293   0.00000  Uiso   1.00
C25    C     0.09064   0.29256   0.44195   0.00000  Uiso   1.00
C26    C     0.24269   0.04078   0.05805   0.00000  Uiso   1.00
C27    C     0.18690   0.08455   0.47656   0.00000  Uiso   1.00
C28    C     0.02128   0.12407   0.24978   0.00000  Uiso   1.00
C29    C     0.31206   0.20927   0.25021   0.00000  Uiso   1.00
C30    C     0.31205   0.12407   0.24983   0.00000  Uiso   1.00
C31    C     0.02129   0.20927   0.25017   0.00000  Uiso   1.00
C32    C     0.29060   0.16667   0.25003   0.00000  Uiso   1.00
Cu33   Cu    0.16667   0.21355   0.25000   0.00000  Uiso   1.00
Cu34   Cu    0.16667   0.11978   0.25000   0.00000  Uiso   1.00
H35    H     0.18370   0.09376   0.38947   0.00000  Uiso   1.00
H36    H     0.03730   0.24257   0.25031   0.00000  Uiso   1.00
H37    H     0.12107   0.04359   0.19980   0.00000  Uiso   1.00
H38    H     0.21227   0.28975   0.30020   0.00000  Uiso   1.00
H39    H     0.21226   0.04351   0.30021   0.00000  Uiso   1.00
H40    H     0.12107   0.28982   0.19979   0.00000  Uiso   1.00
H41    H     0.14254   0.32128   0.47059   0.00000  Uiso   1.00
H42    H     0.07095   0.29300   0.47200   0.00000  Uiso   1.00
H43    H     0.08242   0.26179   0.42119   0.00000  Uiso   1.00
H44    H     0.08459   0.32483   0.42238   0.00000  Uiso   1.00
H45    H     0.19079   0.01205   0.02941   0.00000  Uiso   1.00
H46    H     0.14964   0.23958   0.11053   0.00000  Uiso   1.00
H47    H     0.26239   0.04033   0.02800   0.00000  Uiso   1.00
H48    H     0.24874   0.00850   0.07762   0.00000  Uiso   1.00
H49    H     0.25092   0.07155   0.07881   0.00000  Uiso   1.00
H50    H     0.14973   0.23938   0.38865   0.00000  Uiso   1.00
H51    H     0.18360   0.09395   0.11135   0.00000  Uiso   1.00
H52    H     0.13830   0.28029   0.04147   0.00000  Uiso   1.00
H53    H     0.19503   0.05304   0.45853   0.00000  Uiso   1.00
H54    H     0.03728   0.09076   0.24961   0.00000  Uiso   1.00
H55    H     0.29605   0.24257   0.25039   0.00000  Uiso   1.00
H56    H     0.29603   0.09076   0.24969   0.00000  Uiso   1.00
N57    N     0.16667   0.28402   0.25000   0.00000  Uiso   1.00
N58    N     0.16667   0.04931   0.25000   0.00000  Uiso   1.00
N59    N     0.13362   0.29105   0.45451   0.00000  Uiso   1.00
N60    N     0.19972   0.04228   0.04549   0.00000  Uiso   1.00
O61    O     0.10655   0.20625   0.24999   0.00000  Uiso   1.00
O62    O     0.22679   0.12709   0.25000   0.00000  Uiso   1.00
O63    O     0.22679   0.20625   0.25000   0.00000  Uiso   1.00
O64    O     0.10655   0.12709   0.24999   0.00000  Uiso   1.00
O65    O     0.16666   0.20627   0.18513   0.00000  Uiso   1.00
O66    O     0.16668   0.12707   0.31487   0.00000  Uiso   1.00
O67    O     0.16668   0.20627   0.31487   0.00000  Uiso   1.00
O68    O     0.16666   0.12707   0.18513   0.00000  Uiso   1.00
C69    C     0.42068   0.16667   0.24997   0.00000  Uiso   1.00
C70    C     0.37607   0.16667   0.24997   0.00000  Uiso   1.00
C71    C     0.47468   0.02484   0.22212   0.00000  Uiso   1.00
C72    C     0.52532   0.30850   0.27788   0.00000  Uiso   1.00
C73    C     0.52532   0.02480   0.27788   0.00000  Uiso   1.00
C74    C     0.47468   0.30854   0.22211   0.00000  Uiso   1.00
C75    C     0.49999   0.16668   0.16429   0.00000  Uiso   1.00
C76    C     0.50001   0.16665   0.33571   0.00000  Uiso   1.00
C77    C     0.50932   0.12554   0.40732   0.00000  Uiso   1.00
C78    C     0.49068   0.20779   0.09268   0.00000  Uiso   1.00
C79    C     0.49983   0.16664   0.38410   0.00000  Uiso   1.00
C80    C     0.57932   0.16667   0.25003   0.00000  Uiso   1.00
C81    C     0.50016   0.16669   0.11590   0.00000  Uiso   1.00
C82    C     0.49016   0.20780   0.40710   0.00000  Uiso   1.00
C83    C     0.50984   0.12553   0.09290   0.00000  Uiso   1.00
C84    C     0.48933   0.20825   0.45346   0.00000  Uiso   1.00
C85    C     0.51067   0.12508   0.04654   0.00000  Uiso   1.00
C86    C     0.49974   0.16676   0.47674   0.00000  Uiso   1.00
C87    C     0.50026   0.16657   0.02326   0.00000  Uiso   1.00
C88    C     0.50969   0.12541   0.45349   0.00000  Uiso   1.00
C89    C     0.49031   0.20793   0.04651   0.00000  Uiso   1.00
C90    C     0.47871   0.24925   0.47707   0.00000  Uiso   1.00
C91    C     0.47976   0.24878   0.02344   0.00000  Uiso   1.00
C92    C     0.52129   0.08409   0.02293   0.00000  Uiso   1.00
C93    C     0.42398   0.29256   0.44195   0.00000  Uiso   1.00
C94    C     0.57602   0.04078   0.05805   0.00000  Uiso   1.00
C95    C     0.52024   0.08455   0.47656   0.00000  Uiso   1.00
C96    C     0.35461   0.12407   0.24978   0.00000  Uiso   1.00
C97    C     0.64539   0.20927   0.25021   0.00000  Uiso   1.00
C98    C     0.64538   0.12407   0.24983   0.00000  Uiso   1.00
C99    C     0.35462   0.20927   0.25017   0.00000  Uiso   1.00
C100   C     0.62393   0.16667   0.25003   0.00000  Uiso   1.00
Cu101  Cu    0.50000   0.21355   0.25000   0.00000  Uiso   1.00
Cu102  Cu    0.50000   0.11978   0.25000   0.00000  Uiso   1.00
H103   H     0.51703   0.09376   0.38947   0.00000  Uiso   1.00
H104   H     0.37064   0.24257   0.25031   0.00000  Uiso   1.00
H105   H     0.45440   0.04359   0.19980   0.00000  Uiso   1.00
H106   H     0.54560   0.28975   0.30020   0.00000  Uiso   1.00
H107   H     0.54559   0.04351   0.30021   0.00000  Uiso   1.00
H108   H     0.45440   0.28982   0.19979   0.00000  Uiso   1.00
H109   H     0.47587   0.32128   0.47059   0.00000  Uiso   1.00
H110   H     0.40428   0.29300   0.47200   0.00000  Uiso   1.00
H111   H     0.41575   0.26179   0.42119   0.00000  Uiso   1.00
H112   H     0.41793   0.32483   0.42238   0.00000  Uiso   1.00
H113   H     0.52413   0.01205   0.02941   0.00000  Uiso   1.00
H114   H     0.48297   0.23958   0.11053   0.00000  Uiso   1.00
H115   H     0.59572   0.04033   0.02800   0.00000  Uiso   1.00
H116   H     0.58207   0.00850   0.07762   0.00000  Uiso   1.00
H117   H     0.58425   0.07155   0.07881   0.00000  Uiso   1.00
H118   H     0.48307   0.23938   0.38865   0.00000  Uiso   1.00
H119   H     0.51693   0.09395   0.11135   0.00000  Uiso   1.00
H120   H     0.47163   0.28029   0.04147   0.00000  Uiso   1.00
H121   H     0.52837   0.05304   0.45853   0.00000  Uiso   1.00
H122   H     0.37062   0.09076   0.24961   0.00000  Uiso   1.00
H123   H     0.62938   0.24257   0.25039   0.00000  Uiso   1.00
H124   H     0.62936   0.09076   0.24969   0.00000  Uiso   1.00
N125   N     0.50000   0.28402   0.25000   0.00000  Uiso   1.00
N126   N     0.50000   0.04931   0.25000   0.00000  Uiso   1.00
N127   N     0.46695   0.29105   0.45451   0.00000  Uiso   1.00
N128   N     0.53305   0.04228   0.04549   0.00000  Uiso   1.00
O129   O     0.43988   0.20625   0.24999   0.00000  Uiso   1.00
O130   O     0.56012   0.12709   0.25000   0.00000  Uiso   1.00
O131   O     0.56012   0.20625   0.25000   0.00000  Uiso   1.00
O132   O     0.43988   0.12709   0.24999   0.00000  Uiso   1.00
O133   O     0.49999   0.20627   0.18513   0.00000  Uiso   1.00
O134   O     0.50001   0.12707   0.31487   0.00000  Uiso   1.00
O135   O     0.50001   0.20627   0.31487   0.00000  Uiso   1.00
O136   O     0.49999   0.12707   0.18513   0.00000  Uiso   1.00
C137   C     0.75401   0.16667   0.24997   0.00000  Uiso   1.00
C138   C     0.70940   0.16667   0.24997   0.00000  Uiso   1.00
C139   C     0.80801   0.02484   0.22212   0.00000  Uiso   1.00
C140   C     0.85865   0.30850   0.27788   0.00000  Uiso   1.00
C141   C     0.85865   0.02480   0.27788   0.00000  Uiso   1.00
C142   C     0.80801   0.30854   0.22211   0.00000  Uiso   1.00
C143   C     0.83332   0.16668   0.16429   0.00000  Uiso   1.00
C144   C     0.83334   0.16665   0.33571   0.00000  Uiso   1.00
C145   C     0.84265   0.12554   0.40732   0.00000  Uiso   1.00
C146   C     0.82401   0.20779   0.09268   0.00000  Uiso   1.00
C147   C     0.83317   0.16664   0.38410   0.00000  Uiso   1.00
C148   C     0.91266   0.16667   0.25003   0.00000  Uiso   1.00
C149   C     0.83350   0.16669   0.11590   0.00000  Uiso   1.00
C150   C     0.82349   0.20780   0.40710   0.00000  Uiso   1.00
C151   C     0.84317   0.12553   0.09290   0.00000  Uiso   1.00
C152   C     0.82266   0.20825   0.45346   0.00000  Uiso   1.00
C153   C     0.84401   0.12508   0.04654   0.00000  Uiso   1.00
C154   C     0.83308   0.16676   0.47674   0.00000  Uiso   1.00
C155   C     0.83359   0.16657   0.02326   0.00000  Uiso   1.00
C156   C     0.84302   0.12541   0.45349   0.00000  Uiso   1.00
C157   C     0.82364   0.20793   0.04651   0.00000  Uiso   1.00
C158   C     0.81205   0.24925   0.47707   0.00000  Uiso   1.00
C159   C     0.81310   0.24878   0.02344   0.00000  Uiso   1.00
C160   C     0.85462   0.08409   0.02293   0.00000  Uiso   1.00
C161   C     0.75731   0.29256   0.44195   0.00000  Uiso   1.00
C162   C     0.90935   0.04078   0.05805   0.00000  Uiso   1.00
C163   C     0.85357   0.08455   0.47656   0.00000  Uiso   1.00
C164   C     0.68794   0.12407   0.24978   0.00000  Uiso   1.00
C165   C     0.97872   0.20927   0.25021   0.00000  Uiso   1.00
C166   C     0.97871   0.12407   0.24983   0.00000  Uiso   1.00
C167   C     0.68795   0.20927   0.25017   0.00000  Uiso   1.00
C168   C     0.95727   0.16667   0.25003   0.00000  Uiso   1.00
Cu169  Cu    0.83333   0.21355   0.25000   0.00000  Uiso   1.00
Cu170  Cu    0.83333   0.11978   0.25000   0.00000  Uiso   1.00
H171   H     0.85036   0.09376   0.38947   0.00000  Uiso   1.00
H172   H     0.70397   0.24257   0.25031   0.00000  Uiso   1.00
H173   H     0.78773   0.04359   0.19980   0.00000  Uiso   1.00
H174   H     0.87893   0.28975   0.30020   0.00000  Uiso   1.00
H175   H     0.87893   0.04351   0.30021   0.00000  Uiso   1.00
H176   H     0.78774   0.28982   0.19979   0.00000  Uiso   1.00
H177   H     0.80921   0.32128   0.47059   0.00000  Uiso   1.00
H178   H     0.73761   0.29300   0.47200   0.00000  Uiso   1.00
H179   H     0.74908   0.26179   0.42119   0.00000  Uiso   1.00
H180   H     0.75126   0.32483   0.42238   0.00000  Uiso   1.00
H181   H     0.85746   0.01205   0.02941   0.00000  Uiso   1.00
H182   H     0.81630   0.23958   0.11053   0.00000  Uiso   1.00
H183   H     0.92905   0.04033   0.02800   0.00000  Uiso   1.00
H184   H     0.91541   0.00850   0.07762   0.00000  Uiso   1.00
H185   H     0.91758   0.07155   0.07881   0.00000  Uiso   1.00
H186   H     0.81640   0.23938   0.38865   0.00000  Uiso   1.00
H187   H     0.85027   0.09395   0.11135   0.00000  Uiso   1.00
H188   H     0.80497   0.28029   0.04147   0.00000  Uiso   1.00
H189   H     0.86170   0.05304   0.45853   0.00000  Uiso   1.00
H190   H     0.70395   0.09076   0.24961   0.00000  Uiso   1.00
H191   H     0.96272   0.24257   0.25039   0.00000  Uiso   1.00
H192   H     0.96270   0.09076   0.24969   0.00000  Uiso   1.00
N193   N     0.83333   0.28402   0.25000   0.00000  Uiso   1.00
N194   N     0.83333   0.04931   0.25000   0.00000  Uiso   1.00
N195   N     0.80028   0.29105   0.45451   0.00000  Uiso   1.00
N196   N     0.86638   0.04228   0.04549   0.00000  Uiso   1.00
O197   O     0.77321   0.20625   0.24999   0.00000  Uiso   1.00
O198   O     0.89345   0.12709   0.25000   0.00000  Uiso   1.00
O199   O     0.89345   0.20625   0.25000   0.00000  Uiso   1.00
O200   O     0.77321   0.12709   0.24999   0.00000  Uiso   1.00
O201   O     0.83332   0.20627   0.18513   0.00000  Uiso   1.00
O202   O     0.83334   0.12707   0.31487   0.00000  Uiso   1.00
O203   O     0.83334   0.20627   0.31487   0.00000  Uiso   1.00
O204   O     0.83332   0.12707   0.18513   0.00000  Uiso   1.00
C205   C     0.08734   0.50000   0.24997   0.00000  Uiso   1.00
C206   C     0.04273   0.50000   0.24997   0.00000  Uiso   1.00
C207   C     0.14135   0.35817   0.22212   0.00000  Uiso   1.00
C208   C     0.19199   0.64183   0.27788   0.00000  Uiso   1.00
C209   C     0.19199   0.35813   0.27788   0.00000  Uiso   1.00
C210   C     0.14135   0.64187   0.22211   0.00000  Uiso   1.00
C211   C     0.16666   0.50002   0.16429   0.00000  Uiso   1.00
C212   C     0.16668   0.49998   0.33571   0.00000  Uiso   1.00
C213   C     0.17599   0.45887   0.40732   0.00000  Uiso   1.00
C214   C     0.15735   0.54113   0.09268   0.00000  Uiso   1.00
C215   C     0.16650   0.49998   0.38410   0.00000  Uiso   1.00
C216   C     0.24599   0.50000   0.25003   0.00000  Uiso   1.00
C217   C     0.16683   0.50002   0.11590   0.00000  Uiso   1.00
C218   C     0.15683   0.54113   0.40710   0.00000  Uiso   1.00
C219   C     0.17651   0.45887   0.09290   0.00000  Uiso   1.00
C220   C     0.15599   0.54158   0.45346   0.00000  Uiso   1.00
C221   C     0.17734   0.45842   0.04654   0.00000  Uiso   1.00
C222   C     0.16641   0.50010   0.47674   0.00000  Uiso   1.00
C223   C     0.16692   0.49990   0.02326   0.00000  Uiso   1.00
C224   C     0.17636   0.45874   0.45349   0.00000  Uiso   1.00
C225   C     0.15698   0.54126   0.04651   0.00000  Uiso   1.00
C226   C     0.14538   0.58258   0.47707   0.00000  Uiso   1.00
C227   C     0.14643   0.58211   0.02344   0.00000  Uiso   1.00
C228   C     0.18795   0.41742   0.02293   0.00000  Uiso   1.00
C229   C     0.09064   0.62589   0.44195   0.00000  Uiso   1.00
C230   C     0.24269   0.37411   0.05805   0.00000  Uiso   1.00
C231   C     0.18690   0.41789   0.47656   0.00000  Uiso   1.00
C232   C     0.02128   0.45740   0.24978   0.00000  Uiso   1.00
C233   C     0.31206   0.54260   0.25021   0.00000  Uiso   1.00
C234   C     0.31205   0.45740   0.24983   0.00000  Uiso   1.00
C235   C     0.02129   0.54260   0.25017   0.00000  Uiso   1.00
C236   C     0.29060   0.50000   0.25003   0.00000  Uiso   1.00
Cu237  Cu    0.16667   0.54689   0.25000   0.00000  Uiso   1.00
Cu238  Cu    0.16667   0.45311   0.25000   0.00000  Uiso   1.00
H239   H     0.18370   0.42709   0.38947   0.00000  Uiso   1.00
H240   H     0.03730   0.57590   0.25031   0.00000  Uiso   1.00
H241   H     0.12107   0.37692   0.19980   0.00000  Uiso   1.00
H242   H     0.21227   0.62308   0.30020   0.00000  Uiso   1.00
H243   H     0.21226   0.37685   0.30021   0.00000  Uiso   1.00
H244   H     0.12107   0.62315   0.19979   0.00000  Uiso   1.00
H245   H     0.14254   0.65461   0.47059   0.00000  Uiso   1.00
H246   H     0.07095   0.62633   0.47200   0.00000  Uiso   1.00
H247   H     0.08242   0.59512   0.42119   0.00000  Uiso   1.00
H248   H     0.08459   0.65817   0.42238   0.00000  Uiso   1.00
H249   H     0.19079   0.34539   0.02941   0.00000  Uiso   1.00
H250   H     0.14964   0.57291   0.11053   0.00000  Uiso   1.00
H251   H     0.26239   0.37367   0.02800   0.00000  Uiso   1.00
H252   H     0.24874   0.34183   0.07762   0.00000  Uiso   1.00
H253   H     0.25092   0.40488   0.07881   0.00000  Uiso   1.00
H254   H     0.14973   0.57271   0.38865   0.00000  Uiso   1.00
H255   H     0.18360   0.42729   0.11135   0.00000  Uiso   1.00
H256   H     0.13830   0.61363   0.04147   0.00000  Uiso   1.00
H257   H     0.19503   0.38637   0.45853   0.00000  Uiso   1.00
H258   H     0.03728   0.42409   0.24961   0.00000  Uiso   1.00
H259   H     0.29605   0.57591   0.25039   0.00000  Uiso   1.00
H260   H     0.29603   0.42410   0.24969   0.00000  Uiso   1.00
N261   N     0.16667   0.61736   0.25000   0.00000  Uiso   1.00
N262   N     0.16667   0.38264   0.25000   0.00000  Uiso   1.00
N263   N     0.13362   0.62438   0.45451   0.00000  Uiso   1.00
N264   N     0.19972   0.37562   0.04549   0.00000  Uiso   1.00
O265   O     0.10655   0.53958   0.24999   0.00000  Uiso   1.00
O266   O     0.22679   0.46042   0.25000   0.00000  Uiso   1.00
O267   O     0.22679   0.53958   0.25000   0.00000  Uiso   1.00
O268   O     0.10655   0.46042   0.24999   0.00000  Uiso   1.00
O269   O     0.16666   0.53960   0.18513   0.00000  Uiso   1.00
O270   O     0.16668   0.46040   0.31487   0.00000  Uiso   1.00
O271   O     0.16668   0.53960   0.31487   0.00000  Uiso   1.00
O272   O     0.16666   0.46040   0.18513   0.00000  Uiso   1.00
C273   C     0.42068   0.50000   0.24997   0.00000  Uiso   1.00
C274   C     0.37607   0.50000   0.24997   0.00000  Uiso   1.00
C275   C     0.47468   0.35817   0.22212   0.00000  Uiso   1.00
C276   C     0.52532   0.64183   0.27788   0.00000  Uiso   1.00
C277   C     0.52532   0.35813   0.27788   0.00000  Uiso   1.00
C278   C     0.47468   0.64187   0.22211   0.00000  Uiso   1.00
C279   C     0.49999   0.50002   0.16429   0.00000  Uiso   1.00
C280   C     0.50001   0.49998   0.33571   0.00000  Uiso   1.00
C281   C     0.50932   0.45887   0.40732   0.00000  Uiso   1.00
C282   C     0.49068   0.54113   0.09268   0.00000  Uiso   1.00
C283   C     0.49983   0.49998   0.38410   0.00000  Uiso   1.00
C284   C     0.57932   0.50000   0.25003   0.00000  Uiso   1.00
C285   C     0.50016   0.50002   0.11590   0.00000  Uiso   1.00
C286   C     0.49016   0.54113   0.40710   0.00000  Uiso   1.00
C287   C     0.50984   0.45887   0.09290   0.00000  Uiso   1.00
C288   C     0.48933   0.54158   0.45346   0.00000  Uiso   1.00
C289   C     0.51067   0.45842   0.04654   0.00000  Uiso   1.00
C290   C     0.49974   0.50010   0.47674   0.00000  Uiso   1.00
C291   C     0.50026   0.49990   0.02326   0.00000  Uiso   1.00
C292   C     0.50969   0.45874   0.45349   0.00000  Uiso   1.00
C293   C     0.49031   0.54126   0.04651   0.00000  Uiso   1.00
C294   C     0.47871   0.58258   0.47707   0.00000  Uiso   1.00
C295   C     0.47976   0.58211   0.02344   0.00000  Uiso   1.00
C296   C     0.52129   0.41742   0.02293   0.00000  Uiso   1.00
C297   C     0.42398   0.62589   0.44195   0.00000  Uiso   1.00
C298   C     0.57602   0.37411   0.05805   0.00000  Uiso   1.00
C299   C     0.52024   0.41789   0.47656   0.00000  Uiso   1.00
C300   C     0.35461   0.45740   0.24978   0.00000  Uiso   1.00
C301   C     0.64539   0.54260   0.25021   0.00000  Uiso   1.00
C302   C     0.64538   0.45740   0.24983   0.00000  Uiso   1.00
C303   C     0.35462   0.54260   0.25017   0.00000  Uiso   1.00
C304   C     0.62393   0.50000   0.25003   0.00000  Uiso   1.00
Cu305  Cu    0.50000   0.54689   0.25000   0.00000  Uiso   1.00
Cu306  Cu    0.50000   0.45311   0.25000   0.00000  Uiso   1.00
H307   H     0.51703   0.42709   0.38947   0.00000  Uiso   1.00
H308   H     0.37064   0.57590   0.25031   0.00000  Uiso   1.00
H309   H     0.45440   0.37692   0.19980   0.00000  Uiso   1.00
H310   H     0.54560   0.62308   0.30020   0.00000  Uiso   1.00
H311   H     0.54559   0.37685   0.30021   0.00000  Uiso   1.00
H312   H     0.45440   0.62315   0.19979   0.00000  Uiso   1.00
H313   H     0.47587   0.65461   0.47059   0.00000  Uiso   1.00
H314   H     0.40428   0.62633   0.47200   0.00000  Uiso   1.00
H315   H     0.41575   0.59512   0.42119   0.00000  Uiso   1.00
H316   H     0.41793   0.65817   0.42238   0.00000  Uiso   1.00
H317   H     0.52413   0.34539   0.02941   0.00000  Uiso   1.00
H318   H     0.48297   0.57291   0.11053   0.00000  Uiso   1.00
H319   H     0.59572   0.37367   0.02800   0.00000  Uiso   1.00
H320   H     0.58207   0.34183   0.07762   0.00000  Uiso   1.00
H321   H     0.58425   0.40488   0.07881   0.00000  Uiso   1.00
H322   H     0.48307   0.57271   0.38865   0.00000  Uiso   1.00
H323   H     0.51693   0.42729   0.11135   0.00000  Uiso   1.00
H324   H     0.47163   0.61363   0.04147   0.00000  Uiso   1.00
H325   H     0.52837   0.38637   0.45853   0.00000  Uiso   1.00
H326   H     0.37062   0.42409   0.24961   0.00000  Uiso   1.00
H327   H     0.62938   0.57591   0.25039   0.00000  Uiso   1.00
H328   H     0.62936   0.42410   0.24969   0.00000  Uiso   1.00
N329   N     0.50000   0.61736   0.25000   0.00000  Uiso   1.00
N330   N     0.50000   0.38264   0.25000   0.00000  Uiso   1.00
N331   N     0.46695   0.62438   0.45451   0.00000  Uiso   1.00
N332   N     0.53305   0.37562   0.04549   0.00000  Uiso   1.00
O333   O     0.43988   0.53958   0.24999   0.00000  Uiso   1.00
O334   O     0.56012   0.46042   0.25000   0.00000  Uiso   1.00
O335   O     0.56012   0.53958   0.25000   0.00000  Uiso   1.00
O336   O     0.43988   0.46042   0.24999   0.00000  Uiso   1.00
O337   O     0.49999   0.53960   0.18513   0.00000  Uiso   1.00
O338   O     0.50001   0.46040   0.31487   0.00000  Uiso   1.00
O339   O     0.50001   0.53960   0.31487   0.00000  Uiso   1.00
O340   O     0.49999   0.46040   0.18513   0.00000  Uiso   1.00
C341   C     0.75401   0.50000   0.24997   0.00000  Uiso   1.00
C342   C     0.70940   0.50000   0.24997   0.00000  Uiso   1.00
C343   C     0.80801   0.35817   0.22212   0.00000  Uiso   1.00
C344   C     0.85865   0.64183   0.27788   0.00000  Uiso   1.00
C345   C     0.85865   0.35813   0.27788   0.00000  Uiso   1.00
C346   C     0.80801   0.64187   0.22211   0.00000  Uiso   1.00
C347   C     0.83332   0.50002   0.16429   0.00000  Uiso   1.00
C348   C     0.83334   0.49998   0.33571   0.00000  Uiso   1.00
C349   C     0.84265   0.45887   0.40732   0.00000  Uiso   1.00
C350   C     0.82401   0.54113   0.09268   0.00000  Uiso   1.00
C351   C     0.83317   0.49998   0.38410   0.00000  Uiso   1.00
C352   C     0.91266   0.50000   0.25003   0.00000  Uiso   1.00
C353   C     0.83350   0.50002   0.11590   0.00000  Uiso   1.00
C354   C     0.82349   0.54113   0.40710   0.00000  Uiso   1.00
C355   C     0.84317   0.45887   0.09290   0.00000  Uiso   1.00
C356   C     0.82266   0.54158   0.45346   0.00000  Uiso   1.00
C357   C     0.84401   0.45842   0.04654   0.00000  Uiso   1.00
C358   C     0.83308   0.50010   0.47674   0.00000  Uiso   1.00
C359   C     0.83359   0.49990   0.02326   0.00000  Uiso   1.00
C360   C     0.84302   0.45874   0.45349   0.00000  Uiso   1.00
C361   C     0.82364   0.54126   0.04651   0.00000  Uiso   1.00
C362   C     0.81205   0.58258   0.47707   0.00000  Uiso   1.00
C363   C     0.81310   0.58211   0.02344   0.00000  Uiso   1.00
C364   C     0.85462   0.41742   0.02293   0.00000  Uiso   1.00
C365   C     0.75731   0.62589   0.44195   0.00000  Uiso   1.00
C366   C     0.90935   0.37411   0.05805   0.00000  Uiso   1.00
C367   C     0.85357   0.41789   0.47656   0.00000  Uiso   1.00
C368   C     0.68794   0.45740   0.24978   0.00000  Uiso   1.00
C369   C     0.97872   0.54260   0.25021   0.00000  Uiso   1.00
C370   C     0.97871   0.45740   0.24983   0.00000  Uiso   1.00
C371   C     0.68795   0.54260   0.25017   0.00000  Uiso   1.00
C372   C     0.95727   0.50000   0.25003   0.00000  Uiso   1.00
Cu373  Cu    0.83333   0.54689   0.25000   0.00000  Uiso   1.00
Cu374  Cu    0.83333   0.45311   0.25000   0.00000  Uiso   1.00
H375   H     0.85036   0.42709   0.38947   0.00000  Uiso   1.00
H376   H     0.70397   0.57590   0.25031   0.00000  Uiso   1.00
H377   H     0.78773   0.37692   0.19980   0.00000  Uiso   1.00
H378   H     0.87893   0.62308   0.30020   0.00000  Uiso   1.00
H379   H     0.87893   0.37685   0.30021   0.00000  Uiso   1.00
H380   H     0.78774   0.62315   0.19979   0.00000  Uiso   1.00
H381   H     0.80921   0.65461   0.47059   0.00000  Uiso   1.00
H382   H     0.73761   0.62633   0.47200   0.00000  Uiso   1.00
H383   H     0.74908   0.59512   0.42119   0.00000  Uiso   1.00
H384   H     0.75126   0.65817   0.42238   0.00000  Uiso   1.00
H385   H     0.85746   0.34539   0.02941   0.00000  Uiso   1.00
H386   H     0.81630   0.57291   0.11053   0.00000  Uiso   1.00
H387   H     0.92905   0.37367   0.02800   0.00000  Uiso   1.00
H388   H     0.91541   0.34183   0.07762   0.00000  Uiso   1.00
H389   H     0.91758   0.40488   0.07881   0.00000  Uiso   1.00
H390   H     0.81640   0.57271   0.38865   0.00000  Uiso   1.00
H391   H     0.85027   0.42729   0.11135   0.00000  Uiso   1.00
H392   H     0.80497   0.61363   0.04147   0.00000  Uiso   1.00
H393   H     0.86170   0.38637   0.45853   0.00000  Uiso   1.00
H394   H     0.70395   0.42409   0.24961   0.00000  Uiso   1.00
H395   H     0.96272   0.57591   0.25039   0.00000  Uiso   1.00
H396   H     0.96270   0.42410   0.24969   0.00000  Uiso   1.00
N397   N     0.83333   0.61736   0.25000   0.00000  Uiso   1.00
N398   N     0.83333   0.38264   0.25000   0.00000  Uiso   1.00
N399   N     0.80028   0.62438   0.45451   0.00000  Uiso   1.00
N400   N     0.86638   0.37562   0.04549   0.00000  Uiso   1.00
O401   O     0.77321   0.53958   0.24999   0.00000  Uiso   1.00
O402   O     0.89345   0.46042   0.25000   0.00000  Uiso   1.00
O403   O     0.89345   0.53958   0.25000   0.00000  Uiso   1.00
O404   O     0.77321   0.46042   0.24999   0.00000  Uiso   1.00
O405   O     0.83332   0.53960   0.18513   0.00000  Uiso   1.00
O406   O     0.83334   0.46040   0.31487   0.00000  Uiso   1.00
O407   O     0.83334   0.53960   0.31487   0.00000  Uiso   1.00
O408   O     0.83332   0.46040   0.18513   0.00000  Uiso   1.00
C409   C     0.08734   0.83333   0.24997   0.00000  Uiso   1.00
C410   C     0.04273   0.83333   0.24997   0.00000  Uiso   1.00
C411   C     0.14135   0.69150   0.22212   0.00000  Uiso   1.00
C412   C     0.19199   0.97516   0.27788   0.00000  Uiso   1.00
C413   C     0.19199   0.69146   0.27788   0.00000  Uiso   1.00
C414   C     0.14135   0.97520   0.22211   0.00000  Uiso   1.00
C415   C     0.16666   0.83335   0.16429   0.00000  Uiso   1.00
C416   C     0.16668   0.83332   0.33571   0.00000  Uiso   1.00
C417   C     0.17599   0.79221   0.40732   0.00000  Uiso   1.00
C418   C     0.15735   0.87446   0.09268   0.00000  Uiso   1.00
C419   C     0.16650   0.83331   0.38410   0.00000  Uiso   1.00
C420   C     0.24599   0.83333   0.25003   0.00000  Uiso   1.00
C421   C     0.16683   0.83336   0.11590   0.00000  Uiso   1.00
C422   C     0.15683   0.87447   0.40710   0.00000  Uiso   1.00
C423   C     0.17651   0.79220   0.09290   0.00000  Uiso   1.00
C424   C     0.15599   0.87492   0.45346   0.00000  Uiso   1.00
C425   C     0.17734   0.79175   0.04654   0.00000  Uiso   1.00
C426   C     0.16641   0.83343   0.47674   0.00000  Uiso   1.00
C427   C     0.16692   0.83324   0.02326   0.00000  Uiso   1.00
C428   C     0.17636   0.79207   0.45349   0.00000  Uiso   1.00
C429   C     0.15698   0.87459   0.04651   0.00000  Uiso   1.00
C430   C     0.14538   0.91591   0.47707   0.00000  Uiso   1.00
C431   C     0.14643   0.91545   0.02344   0.00000  Uiso   1.00
C432   C     0.18795   0.75075   0.02293   0.00000  Uiso   1.00
C433   C     0.09064   0.95922   0.44195   0.00000  Uiso   1.00
C434   C     0.24269   0.70744   0.05805   0.00000  Uiso   1.00
C435   C     0.18690   0.75122   0.47656   0.00000  Uiso   1.00
C436   C     0.02128   0.79073   0.24978   0.00000  Uiso   1.00
C437   C     0.31206   0.87593   0.25021   0.00000  Uiso   1.00
C438   C     0.31205   0.79073   0.24983   0.00000  Uiso   1.00
C439   C     0.02129   0.87593   0.25017   0.00000  Uiso   1.00
C440   C     0.29060   0.83333   0.25003   0.00000  Uiso   1.00
Cu441  Cu    0.16667   0.88022   0.25000   0.00000  Uiso   1.00
Cu442  Cu    0.16667   0.78645   0.25000   0.00000  Uiso   1.00
H443   H     0.18370   0.76042   0.38947   0.00000  Uiso   1.00
H444   H     0.03730   0.90924   0.25031   0.00000  Uiso   1.00
H445   H     0.12107   0.71025   0.19980   0.00000  Uiso   1.00
H446   H     0.21227   0.95641   0.30020   0.00000  Uiso   1.00
H447   H     0.21226   0.71018   0.30021   0.00000  Uiso   1.00
H448   H     0.12107   0.95649   0.19979   0.00000  Uiso   1.00
H449   H     0.14254   0.98795   0.47059   0.00000  Uiso   1.00
H450   H     0.07095   0.95967   0.47200   0.00000  Uiso   1.00
H451   H     0.08242   0.92845   0.42119   0.00000  Uiso   1.00
H452   H     0.08459   0.99150   0.42238   0.00000  Uiso   1.00
H453   H     0.19079   0.67872   0.02941   0.00000  Uiso   1.00
H454   H     0.14964   0.90624   0.11053   0.00000  Uiso   1.00
H455   H     0.26239   0.70700   0.02800   0.00000  Uiso   1.00
H456   H     0.24874   0.67517   0.07762   0.00000  Uiso   1.00
H457   H     0.25092   0.73821   0.07881   0.00000  Uiso   1.00
H458   H     0.14973   0.90605   0.38865   0.00000  Uiso   1.00
H459   H     0.18360   0.76062   0.11135   0.00000  Uiso   1.00
H460   H     0.13830   0.94696   0.04147   0.00000  Uiso   1.00
H461   H     0.19503   0.71971   0.45853   0.00000  Uiso   1.00
H462   H     0.03728   0.75743   0.24961   0.00000  Uiso   1.00
H463   H     0.29605   0.90924   0.25039   0.00000  Uiso   1.00
H464   H     0.29603   0.75743   0.24969   0.00000  Uiso   1.00
N465   N     0.16667   0.95069   0.25000   0.00000  Uiso   1.00
N466   N     0.16667   0.71598   0.25000   0.00000  Uiso   1.00
N467   N     0.13362   0.95772   0.45451   0.00000  Uiso   1.00
N468   N     0.19972   0.70895   0.04549   0.00000  Uiso   1.00
O469   O     0.10655   0.87291   0.24999   0.00000  Uiso   1.00
O470   O     0.22679   0.79375   0.25000   0.00000  Uiso   1.00
O471   O     0.22679   0.87291   0.25000   0.00000  Uiso   1.00
O472   O     0.10655   0.79375   0.24999   0.00000  Uiso   1.00
O473   O     0.16666   0.87293   0.18513   0.00000  Uiso   1.00
O474   O     0.16668   0.79373   0.31487   0.00000  Uiso   1.00
O475   O     0.16668   0.87293   0.31487   0.00000  Uiso   1.00
O476   O     0.16666   0.79373   0.18513   0.00000  Uiso   1.00
C477   C     0.42068   0.83333   0.24997   0.00000  Uiso   1.00
C478   C     0.37607   0.83333   0.24997   0.00000  Uiso   1.00
C479   C     0.47468   0.69150   0.22212   0.00000  Uiso   1.00
C480   C     0.52532   0.97516   0.27788   0.00000  Uiso   1.00
C481   C     0.52532   0.69146   0.27788   0.00000  Uiso   1.00
C482   C     0.47468   0.97520   0.22211   0.00000  Uiso   1.00
C483   C     0.49999   0.83335   0.16429   0.00000  Uiso   1.00
C484   C     0.50001   0.83332   0.33571   0.00000  Uiso   1.00
C485   C     0.50932   0.79221   0.40732   0.00000  Uiso   1.00
C486   C     0.49068   0.87446   0.09268   0.00000  Uiso   1.00
C487   C     0.49983   0.83331   0.38410   0.00000  Uiso   1.00
C488   C     0.57932   0.83333   0.25003   0.00000  Uiso   1.00
C489   C     0.50016   0.83336   0.11590   0.00000  Uiso   1.00
C490   C     0.49016   0.87447   0.40710   0.00000  Uiso   1.00
C491   C     0.50984   0.79220   0.09290   0.00000  Uiso   1.00
C492   C     0.48933   0.87492   0.45346   0.00000  Uiso   1.00
C493   C     0.51067   0.79175   0.04654   0.00000  Uiso   1.00
C494   C     0.49974   0.83343   0.47674   0.00000  Uiso   1.00
C495   C     0.50026   0.83324   0.02326   0.00000  Uiso   1.00
C496   C     0.50969   0.79207   0.45349   0.00000  Uiso   1.00
C497   C     0.49031   0.87459   0.04651   0.00000  Uiso   1.00
C498   C     0.47871   0.91591   0.47707   0.00000  Uiso   1.00
C499   C     0.47976   0.91545   0.02344   0.00000  Uiso   1.00
C500   C     0.52129   0.75075   0.02293   0.00000  Uiso   1.00
C501   C     0.42398   0.95922   0.44195   0.00000  Uiso   1.00
C502   C     0.57602   0.70744   0.05805   0.00000  Uiso   1.00
C503   C     0.52024   0.75122   0.47656   0.00000  Uiso   1.00
C504   C     0.35461   0.79073   0.24978   0.00000  Uiso   1.00
C505   C     0.64539   0.87593   0.25021   0.00000  Uiso   1.00
C506   C     0.64538   0.79073   0.24983   0.00000  Uiso   1.00
C507   C     0.35462   0.87593   0.25017   0.00000  Uiso   1.00
C508   C     0.62393   0.83333   0.25003   0.00000  Uiso   1.00
Cu509  Cu    0.50000   0.88022   0.25000   0.00000  Uiso   1.00
Cu510  Cu    0.50000   0.78645   0.25000   0.00000  Uiso   1.00
H511   H     0.51703   0.76042   0.38947   0.00000  Uiso   1.00
H512   H     0.37064   0.90924   0.25031   0.00000  Uiso   1.00
H513   H     0.45440   0.71025   0.19980   0.00000  Uiso   1.00
H514   H     0.54560   0.95641   0.30020   0.00000  Uiso   1.00
H515   H     0.54559   0.71018   0.30021   0.00000  Uiso   1.00
H516   H     0.45440   0.95649   0.19979   0.00000  Uiso   1.00
H517   H     0.47587   0.98795   0.47059   0.00000  Uiso   1.00
H518   H     0.40428   0.95967   0.47200   0.00000  Uiso   1.00
H519   H     0.41575   0.92845   0.42119   0.00000  Uiso   1.00
H520   H     0.41793   0.99150   0.42238   0.00000  Uiso   1.00
H521   H     0.52413   0.67872   0.02941   0.00000  Uiso   1.00
H522   H     0.48297   0.90624   0.11053   0.00000  Uiso   1.00
H523   H     0.59572   0.70700   0.02800   0.00000  Uiso   1.00
H524   H     0.58207   0.67517   0.07762   0.00000  Uiso   1.00
H525   H     0.58425   0.73821   0.07881   0.00000  Uiso   1.00
H526   H     0.48307   0.90605   0.38865   0.00000  Uiso   1.00
H527   H     0.51693   0.76062   0.11135   0.00000  Uiso   1.00
H528   H     0.47163   0.94696   0.04147   0.00000  Uiso   1.00
H529   H     0.52837   0.71971   0.45853   0.00000  Uiso   1.00
H530   H     0.37062   0.75743   0.24961   0.00000  Uiso   1.00
H531   H     0.62938   0.90924   0.25039   0.00000  Uiso   1.00
H532   H     0.62936   0.75743   0.24969   0.00000  Uiso   1.00
N533   N     0.50000   0.95069   0.25000   0.00000  Uiso   1.00
N534   N     0.50000   0.71598   0.25000   0.00000  Uiso   1.00
N535   N     0.46695   0.95772   0.45451   0.00000  Uiso   1.00
N536   N     0.53305   0.70895   0.04549   0.00000  Uiso   1.00
O537   O     0.43988   0.87291   0.24999   0.00000  Uiso   1.00
O538   O     0.56012   0.79375   0.25000   0.00000  Uiso   1.00
O539   O     0.56012   0.87291   0.25000   0.00000  Uiso   1.00
O540   O     0.43988   0.79375   0.24999   0.00000  Uiso   1.00
O541   O     0.49999   0.87293   0.18513   0.00000  Uiso   1.00
O542   O     0.50001   0.79373   0.31487   0.00000  Uiso   1.00
O543   O     0.50001   0.87293   0.31487   0.00000  Uiso   1.00
O544   O     0.49999   0.79373   0.18513   0.00000  Uiso   1.00
C545   C     0.75401   0.83333   0.24997   0.00000  Uiso   1.00
C546   C     0.70940   0.83333   0.24997   0.00000  Uiso   1.00
C547   C     0.80801   0.69150   0.22212   0.00000  Uiso   1.00
C548   C     0.85865   0.97516   0.27788   0.00000  Uiso   1.00
C549   C     0.85865   0.69146   0.27788   0.00000  Uiso   1.00
C550   C     0.80801   0.97520   0.22211   0.00000  Uiso   1.00
C551   C     0.83332   0.83335   0.16429   0.00000  Uiso   1.00
C552   C     0.83334   0.83332   0.33571   0.00000  Uiso   1.00
C553   C     0.84265   0.79221   0.40732   0.00000  Uiso   1.00
C554   C     0.82401   0.87446   0.09268   0.00000  Uiso   1.00
C555   C     0.83317   0.83331   0.38410   0.00000  Uiso   1.00
C556   C     0.91266   0.83333   0.25003   0.00000  Uiso   1.00
C557   C     0.83350   0.83336   0.11590   0.00000  Uiso   1.00
C558   C     0.82349   0.87447   0.40710   0.00000  Uiso   1.00
C559   C     0.84317   0.79220   0.09290   0.00000  Uiso   1.00
C560   C     0.82266   0.87492   0.45346   0.00000  Uiso   1.00
C561   C     0.84401   0.79175   0.04654   0.00000  Uiso   1.00
C562   C     0.83308   0.83343   0.47674   0.00000  Uiso   1.00
C563   C     0.83359   0.83324   0.02326   0.00000  Uiso   1.00
C564   C     0.84302   0.79207   0.45349   0.00000  Uiso   1.00
C565   C     0.82364   0.87459   0.04651   0.00000  Uiso   1.00
C566   C     0.81205   0.91591   0.47707   0.00000  Uiso   1.00
C567   C     0.81310   0.91545   0.02344   0.00000  Uiso   1.00
C568   C     0.85462   0.75075   0.02293   0.00000  Uiso   1.00
C569   C     0.75731   0.95922   0.44195   0.00000  Uiso   1.00
C570   C     0.90935   0.70744   0.05805   0.00000  Uiso   1.00
C571   C     0.85357   0.75122   0.47656   0.00000  Uiso   1.00
C572   C     0.68794   0.79073   0.24978   0.00000  Uiso   1.00
C573   C     0.97872   0.87593   0.25021   0.00000  Uiso   1.00
C574   C     0.97871   0.79073   0.24983   0.00000  Uiso   1.00
C575   C     0.68795   0.87593   0.25017   0.00000  Uiso   1.00
C576   C     0.95727   0.83333   0.25003   0.00000  Uiso   1.00
Cu577  Cu    0.83333   0.88022   0.25000   0.00000  Uiso   1.00
Cu578  Cu    0.83333   0.78645   0.25000   0.00000  Uiso   1.00
H579   H     0.85036   0.76042   0.38947   0.00000  Uiso   1.00
H580   H     0.70397   0.90924   0.25031   0.00000  Uiso   1.00
H581   H     0.78773   0.71025   0.19980   0.00000  Uiso   1.00
H582   H     0.87893   0.95641   0.30020   0.00000  Uiso   1.00
H583   H     0.87893   0.71018   0.30021   0.00000  Uiso   1.00
H584   H     0.78774   0.95649   0.19979   0.00000  Uiso   1.00
H585   H     0.80921   0.98795   0.47059   0.00000  Uiso   1.00
H586   H     0.73761   0.95967   0.47200   0.00000  Uiso   1.00
H587   H     0.74908   0.92845   0.42119   0.00000  Uiso   1.00
H588   H     0.75126   0.99150   0.42238   0.00000  Uiso   1.00
H589   H     0.85746   0.67872   0.02941   0.00000  Uiso   1.00
H590   H     0.81630   0.90624   0.11053   0.00000  Uiso   1.00
H591   H     0.92905   0.70700   0.02800   0.00000  Uiso   1.00
H592   H     0.91541   0.67517   0.07762   0.00000  Uiso   1.00
H593   H     0.91758   0.73821   0.07881   0.00000  Uiso   1.00
H594   H     0.81640   0.90605   0.38865   0.00000  Uiso   1.00
H595   H     0.85027   0.76062   0.11135   0.00000  Uiso   1.00
H596   H     0.80497   0.94696   0.04147   0.00000  Uiso   1.00
H597   H     0.86170   0.71971   0.45853   0.00000  Uiso   1.00
H598   H     0.70395   0.75743   0.24961   0.00000  Uiso   1.00
H599   H     0.96272   0.90924   0.25039   0.00000  Uiso   1.00
H600   H     0.96270   0.75743   0.24969   0.00000  Uiso   1.00
N601   N     0.83333   0.95069   0.25000   0.00000  Uiso   1.00
N602   N     0.83333   0.71598   0.25000   0.00000  Uiso   1.00
N603   N     0.80028   0.95772   0.45451   0.00000  Uiso   1.00
N604   N     0.86638   0.70895   0.04549   0.00000  Uiso   1.00
O605   O     0.77321   0.87291   0.24999   0.00000  Uiso   1.00
O606   O     0.89345   0.79375   0.25000   0.00000  Uiso   1.00
O607   O     0.89345   0.87291   0.25000   0.00000  Uiso   1.00
O608   O     0.77321   0.79375   0.24999   0.00000  Uiso   1.00
O609   O     0.83332   0.87293   0.18513   0.00000  Uiso   1.00
O610   O     0.83334   0.79373   0.31487   0.00000  Uiso   1.00
O611   O     0.83334   0.87293   0.31487   0.00000  Uiso   1.00
O612   O     0.83332   0.79373   0.18513   0.00000  Uiso   1.00
C613   C     0.08734   0.16667   0.74997   0.00000  Uiso   1.00
C614   C     0.04273   0.16667   0.74997   0.00000  Uiso   1.00
C615   C     0.14135   0.02484   0.72212   0.00000  Uiso   1.00
C616   C     0.19199   0.30850   0.77788   0.00000  Uiso   1.00
C617   C     0.19199   0.02480   0.77788   0.00000  Uiso   1.00
C618   C     0.14135   0.30854   0.72211   0.00000  Uiso   1.00
C619   C     0.16666   0.16668   0.66429   0.00000  Uiso   1.00
C620   C     0.16668   0.16665   0.83571   0.00000  Uiso   1.00
C621   C     0.17599   0.12554   0.90732   0.00000  Uiso   1.00
C622   C     0.15735   0.20779   0.59268   0.00000  Uiso   1.00
C623   C     0.16650   0.16664   0.88410   0.00000  Uiso   1.00
C624   C     0.24599   0.16667   0.75003   0.00000  Uiso   1.00
C625   C     0.16683   0.16669   0.61590   0.00000  Uiso   1.00
C626   C     0.15683   0.20780   0.90710   0.00000  Uiso   1.00
C627   C     0.17651   0.12553   0.59290   0.00000  Uiso   1.00
C628   C     0.15599   0.20825   0.95346   0.00000  Uiso   1.00
C629   C     0.17734   0.12508   0.54654   0.00000  Uiso   1.00
C630   C     0.16641   0.16676   0.97674   0.00000  Uiso   1.00
C631   C     0.16692   0.16657   0.52326   0.00000  Uiso   1.00
C632   C     0.17636   0.12541   0.95349   0.00000  Uiso   1.00
C633   C     0.15698   0.20793   0.54651   0.00000  Uiso   1.00
C634   C     0.14538   0.24925   0.97707   0.00000  Uiso   1.00
C635   C     0.14643   0.24878   0.52344   0.00000  Uiso   1.00
C636   C     0.18795   0.08409   0.52293   0.00000  Uiso   1.00
C637   C     0.09064   0.29256   0.94195   0.00000  Uiso   1.00
C638   C     0.24269   0.04078   0.55805   0.00000  Uiso   1.00
C639   C     0.18690   0.08455   0.97656   0.00000  Uiso   1.00
C640   C     0.02128   0.12407   0.74978   0.00000  Uiso   1.00
C641   C     0.31206   0.20927   0.75021   0.00000  Uiso   1.00
C642   C     0.31205   0.12407   0.74983   0.00000  Uiso   1.00
C643   C     0.02129   0.20927   0.75017   0.00000  Uiso   1.00
C644   C     0.29060   0.16667   0.75003   0.00000  Uiso   1.00
Cu645  Cu    0.16667   0.21355   0.75000   0.00000  Uiso   1.00
Cu646  Cu    0.16667   0.11978   0.75000   0.00000  Uiso   1.00
H647   H     0.18370   0.09376   0.88947   0.00000  Uiso   1.00
H648   H     0.03730   0.24257   0.75031   0.00000  Uiso   1.00
H649   H     0.12107   0.04359   0.69980   0.00000  Uiso   1.00
H650   H     0.21227   0.28975   0.80020   0.00000  Uiso   1.00
H651   H     0.21226   0.04351   0.80021   0.00000  Uiso   1.00
H652   H     0.12107   0.28982   0.69979   0.00000  Uiso   1.00
H653   H     0.14254   0.32128   0.97059   0.00000  Uiso   1.00
H654   H     0.07095   0.29300   0.97200   0.00000  Uiso   1.00
H655   H     0.08242   0.26179   0.92119   0.00000  Uiso   1.00
H656   H     0.08459   0.32483   0.92238   0.00000  Uiso   1.00
H657   H     0.19079   0.01205   0.52941   0.00000  Uiso   1.00
H658   H     0.14964   0.23958   0.61053   0.00000  Uiso   1.00
H659   H     0.26239   0.04033   0.52800   0.00000  Uiso   1.00
H660   H     0.24874   0.00850   0.57762   0.00000  Uiso   1.00
H661   H     0.25092   0.07155   0.57881   0.00000  Uiso   1.00
H662   H     0.14973   0.23938   0.88865   0.00000  Uiso   1.00
H663   H     0.18360   0.09395   0.61135   0.00000  Uiso   1.00
H664   H     0.13830   0.28029   0.54147   0.00000  Uiso   1.00
H665   H     0.19503   0.05304   0.95853   0.00000  Uiso   1.00
H666   H     0.03728   0.09076   0.74961   0.00000  Uiso   1.00
H667   H     0.29605   0.24257   0.75039   0.00000  Uiso   1.00
H668   H     0.29603   0.09076   0.74969   0.00000  Uiso   1.00
N669   N     0.16667   0.28402   0.75000   0.00000  Uiso   1.00
N670   N     0.16667   0.04931   0.75000   0.00000  Uiso   1.00
N671   N     0.13362   0.29105   0.95451   0.00000  Uiso   1.00
N672   N     0.19972   0.04228   0.54549   0.00000  Uiso   1.00
O673   O     0.10655   0.20625   0.74999   0.00000  Uiso   1.00
O674   O     0.22679   0.12709   0.75000   0.00000  Uiso   1.00
O675   O     0.22679   0.20625   0.75000   0.00000  Uiso   1.00
O676   O     0.10655   0.12709   0.74999   0.00000  Uiso   1.00
O677   O     0.16666   0.20627   0.68513   0.00000  Uiso   1.00
O678   O     0.16668   0.12707   0.81487   0.00000  Uiso   1.00
O679   O     0.16668   0.20627   0.81487   0.00000  Uiso   1.00
O680   O     0.16666   0.12707   0.68513   0.00000  Uiso   1.00
C681   C     0.42068   0.16667   0.74997   0.00000  Uiso   1.00
C682   C     0.37607   0.16667   0.74997   0.00000  Uiso   1.00
C683   C     0.47468   0.02484   0.72212   0.00000  Uiso   1.00
C684   C     0.52532   0.30850   0.77788   0.00000  Uiso   1.00
C685   C     0.52532   0.02480   0.77788   0.00000  Uiso   1.00
C686   C     0.47468   0.30854   0.72211   0.00000  Uiso   1.00
C687   C     0.49999   0.16668   0.66429   0.00000  Uiso   1.00
C688   C     0.50001   0.16665   0.83571   0.00000  Uiso   1.00
C689   C     0.50932   0.12554   0.90732   0.00000  Uiso   1.00
C690   C     0.49068   0.20779   0.59268   0.00000  Uiso   1.00
C691   C     0.49983   0.16664   0.88410   0.00000  Uiso   1.00
C692   C     0.57932   0.16667   0.75003   0.00000  Uiso   1.00
C693   C     0.50016   0.16669   0.61590   0.00000  Uiso   1.00
C694   C     0.49016   0.20780   0.90710   0.00000  Uiso   1.00
C695   C     0.50984   0.12553   0.59290   0.00000  Uiso   1.00
C696   C     0.48933   0.20825   0.95346   0.00000  Uiso   1.00
C697   C     0.51067   0.12508   0.54654   0.00000  Uiso   1.00
C698   C     0.49974   0.16676   0.97674   0.00000  Uiso   1.00
C699   C     0.50026   0.16657   0.52326   0.00000  Uiso   1.00
C700   C     0.50969   0.12541   0.95349   0.00000  Uiso   1.00
C701   C     0.49031   0.20793   0.54651   0.00000  Uiso   1.00
C702   C     0.47871   0.24925   0.97707   0.00000  Uiso   1.00
C703   C     0.47976   0.24878   0.52344   0.00000  Uiso   1.00
C704   C     0.52129   0.08409   0.52293   0.00000  Uiso   1.00
C705   C     0.42398   0.29256   0.94195   0.00000  Uiso   1.00
C706   C     0.57602   0.04078   0.55805   0.00000  Uiso   1.00
C707   C     0.52024   0.08455   0.97656   0.00000  Uiso   1.00
C708   C     0.35461   0.12407   0.74978   0.00000  Uiso   1.00
C709   C     0.64539   0.20927   0.75021   0.00000  Uiso   1.00
C710   C     0.64538   0.12407   0.74983   0.00000  Uiso   1.00
C711   C     0.35462   0.20927   0.75017   0.00000  Uiso   1.00
C712   C     0.62393   0.16667   0.75003   0.00000  Uiso   1.00
Cu713  Cu    0.50000   0.21355   0.75000   0.00000  Uiso   1.00
Cu714  Cu    0.50000   0.11978   0.75000   0.00000  Uiso   1.00
H715   H     0.51703   0.09376   0.88947   0.00000  Uiso   1.00
H716   H     0.37064   0.24257   0.75031   0.00000  Uiso   1.00
H717   H     0.45440   0.04359   0.69980   0.00000  Uiso   1.00
H718   H     0.54560   0.28975   0.80020   0.00000  Uiso   1.00
H719   H     0.54559   0.04351   0.80021   0.00000  Uiso   1.00
H720   H     0.45440   0.28982   0.69979   0.00000  Uiso   1.00
H721   H     0.47587   0.32128   0.97059   0.00000  Uiso   1.00
H722   H     0.40428   0.29300   0.97200   0.00000  Uiso   1.00
H723   H     0.41575   0.26179   0.92119   0.00000  Uiso   1.00
H724   H     0.41793   0.32483   0.92238   0.00000  Uiso   1.00
H725   H     0.52413   0.01205   0.52941   0.00000  Uiso   1.00
H726   H     0.48297   0.23958   0.61053   0.00000  Uiso   1.00
H727   H     0.59572   0.04033   0.52800   0.00000  Uiso   1.00
H728   H     0.58207   0.00850   0.57762   0.00000  Uiso   1.00
H729   H     0.58425   0.07155   0.57881   0.00000  Uiso   1.00
H730   H     0.48307   0.23938   0.88865   0.00000  Uiso   1.00
H731   H     0.51693   0.09395   0.61135   0.00000  Uiso   1.00
H732   H     0.47163   0.28029   0.54147   0.00000  Uiso   1.00
H733   H     0.52837   0.05304   0.95853   0.00000  Uiso   1.00
H734   H     0.37062   0.09076   0.74961   0.00000  Uiso   1.00
H735   H     0.62938   0.24257   0.75039   0.00000  Uiso   1.00
H736   H     0.62936   0.09076   0.74969   0.00000  Uiso   1.00
N737   N     0.50000   0.28402   0.75000   0.00000  Uiso   1.00
N738   N     0.50000   0.04931   0.75000   0.00000  Uiso   1.00
N739   N     0.46695   0.29105   0.95451   0.00000  Uiso   1.00
N740   N     0.53305   0.04228   0.54549   0.00000  Uiso   1.00
O741   O     0.43988   0.20625   0.74999   0.00000  Uiso   1.00
O742   O     0.56012   0.12709   0.75000   0.00000  Uiso   1.00
O743   O     0.56012   0.20625   0.75000   0.00000  Uiso   1.00
O744   O     0.43988   0.12709   0.74999   0.00000  Uiso   1.00
O745   O     0.49999   0.20627   0.68513   0.00000  Uiso   1.00
O746   O     0.50001   0.12707   0.81487   0.00000  Uiso   1.00
O747   O     0.50001   0.20627   0.81487   0.00000  Uiso   1.00
O748   O     0.49999   0.12707   0.68513   0.00000  Uiso   1.00
C749   C     0.75401   0.16667   0.74997   0.00000  Uiso   1.00
C750   C     0.70940   0.16667   0.74997   0.00000  Uiso   1.00
C751   C     0.80801   0.02484   0.72212   0.00000  Uiso   1.00
C752   C     0.85865   0.30850   0.77788   0.00000  Uiso   1.00
C753   C     0.85865   0.02480   0.77788   0.00000  Uiso   1.00
C754   C     0.80801   0.30854   0.72211   0.00000  Uiso   1.00
C755   C     0.83332   0.16668   0.66429   0.00000  Uiso   1.00
C756   C     0.83334   0.16665   0.83571   0.00000  Uiso   1.00
C757   C     0.84265   0.12554   0.90732   0.00000  Uiso   1.00
C758   C     0.82401   0.20779   0.59268   0.00000  Uiso   1.00
C759   C     0.83317   0.16664   0.88410   0.00000  Uiso   1.00
C760   C     0.91266   0.16667   0.75003   0.00000  Uiso   1.00
C761   C     0.83350   0.16669   0.61590   0.00000  Uiso   1.00
C762   C     0.82349   0.20780   0.90710   0.00000  Uiso   1.00
C763   C     0.84317   0.12553   0.59290   0.00000  Uiso   1.00
C764   C     0.82266   0.20825   0.95346   0.00000  Uiso   1.00
C765   C     0.84401   0.12508   0.54654   0.00000  Uiso   1.00
C766   C     0.83308   0.16676   0.97674   0.00000  Uiso   1.00
C767   C     0.83359   0.16657   0.52326   0.00000  Uiso   1.00
C768   C     0.84302   0.12541   0.95349   0.00000  Uiso   1.00
C769   C     0.82364   0.20793   0.54651   0.00000  Uiso   1.00
C770   C     0.81205   0.24925   0.97707   0.00000  Uiso   1.00
C771   C     0.81310   0.24878   0.52344   0.00000  Uiso   1.00
C772   C     0.85462   0.08409   0.52293   0.00000  Uiso   1.00
C773   C     0.75731   0.29256   0.94195   0.00000  Uiso   1.00
C774   C     0.90935   0.04078   0.55805   0.00000  Uiso   1.00
C775   C     0.85357   0.08455   0.97656   0.00000  Uiso   1.00
C776   C     0.68794   0.12407   0.74978   0.00000  Uiso   1.00
C777   C     0.97872   0.20927   0.75021   0.00000  Uiso   1.00
C778   C     0.97871   0.12407   0.74983   0.00000  Uiso   1.00
C779   C     0.68795   0.20927   0.75017   0.00000  Uiso   1.00
C780   C     0.95727   0.16667   0.75003   0.00000  Uiso   1.00
Cu781  Cu    0.83333   0.21355   0.75000   0.00000  Uiso   1.00
Cu782  Cu    0.83333   0.11978   0.75000   0.00000  Uiso   1.00
H783   H     0.85036   0.09376   0.88947   0.00000  Uiso   1.00
H784   H     0.70397   0.24257   0.75031   0.00000  Uiso   1.00
H785   H     0.78773   0.04359   0.69980   0.00000  Uiso   1.00
H786   H     0.87893   0.28975   0.80020   0.00000  Uiso   1.00
H787   H     0.87893   0.04351   0.80021   0.00000  Uiso   1.00
H788   H     0.78774   0.28982   0.69979   0.00000  Uiso   1.00
H789   H     0.80921   0.32128   0.97059   0.00000  Uiso   1.00
H790   H     0.73761   0.29300   0.97200   0.00000  Uiso   1.00
H791   H     0.74908   0.26179   0.92119   0.00000  Uiso   1.00
H792   H     0.75126   0.32483   0.92238   0.00000  Uiso   1.00
H793   H     0.85746   0.01205   0.52941   0.00000  Uiso   1.00
H794   H     0.81630   0.23958   0.61053   0.00000  Uiso   1.00
H795   H     0.92905   0.04033   0.52800   0.00000  Uiso   1.00
H796   H     0.91541   0.00850   0.57762   0.00000  Uiso   1.00
H797   H     0.91758   0.07155   0.57881   0.00000  Uiso   1.00
H798   H     0.81640   0.23938   0.88865   0.00000  Uiso   1.00
H799   H     0.85027   0.09395   0.61135   0.00000  Uiso   1.00
H800   H     0.80497   0.28029   0.54147   0.00000  Uiso   1.00
H801   H     0.86170   0.05304   0.95853   0.00000  Uiso   1.00
H802   H     0.70395   0.09076   0.74961   0.00000  Uiso   1.00
H803   H     0.96272   0.24257   0.75039   0.00000  Uiso   1.00
H804   H     0.96270   0.09076   0.74969   0.00000  Uiso   1.00
N805   N     0.83333   0.28402   0.75000   0.00000  Uiso   1.00
N806   N     0.83333   0.04931   0.75000   0.00000  Uiso   1.00
N807   N     0.80028   0.29105   0.95451   0.00000  Uiso   1.00
N808   N     0.86638   0.04228   0.54549   0.00000  Uiso   1.00
O809   O     0.77321   0.20625   0.74999   0.00000  Uiso   1.00
O810   O     0.89345   0.12709   0.75000   0.00000  Uiso   1.00
O811   O     0.89345   0.20625   0.75000   0.00000  Uiso   1.00
O812   O     0.77321   0.12709   0.74999   0.00000  Uiso   1.00
O813   O     0.83332   0.20627   0.68513   0.00000  Uiso   1.00
O814   O     0.83334   0.12707   0.81487   0.00000  Uiso   1.00
O815   O     0.83334   0.20627   0.81487   0.00000  Uiso   1.00
O816   O     0.83332   0.12707   0.68513   0.00000  Uiso   1.00
C817   C     0.08734   0.50000   0.74997   0.00000  Uiso   1.00
C818   C     0.04273   0.50000   0.74997   0.00000  Uiso   1.00
C819   C     0.14135   0.35817   0.72212   0.00000  Uiso   1.00
C820   C     0.19199   0.64183   0.77788   0.00000  Uiso   1.00
C821   C     0.19199   0.35813   0.77788   0.00000  Uiso   1.00
C822   C     0.14135   0.64187   0.72211   0.00000  Uiso   1.00
C823   C     0.16666   0.50002   0.66429   0.00000  Uiso   1.00
C824   C     0.16668   0.49998   0.83571   0.00000  Uiso   1.00
C825   C     0.17599   0.45887   0.90732   0.00000  Uiso   1.00
C826   C     0.15735   0.54113   0.59268   0.00000  Uiso   1.00
C827   C     0.16650   0.49998   0.88410   0.00000  Uiso   1.00
C828   C     0.24599   0.50000   0.75003   0.00000  Uiso   1.00
C829   C     0.16683   0.50002   0.61590   0.00000  Uiso   1.00
C830   C     0.15683   0.54113   0.90710   0.00000  Uiso   1.00
C831   C     0.17651   0.45887   0.59290   0.00000  Uiso   1.00
C832   C     0.15599   0.54158   0.95346   0.00000  Uiso   1.00
C833   C     0.17734   0.45842   0.54654   0.00000  Uiso   1.00
C834   C     0.16641   0.50010   0.97674   0.00000  Uiso   1.00
C835   C     0.16692   0.49990   0.52326   0.00000  Uiso   1.00
C836   C     0.17636   0.45874   0.95349   0.00000  Uiso   1.00
C837   C     0.15698   0.54126   0.54651   0.00000  Uiso   1.00
C838   C     0.14538   0.58258   0.97707   0.00000  Uiso   1.00
C839   C     0.14643   0.58211   0.52344   0.00000  Uiso   1.00
C840   C     0.18795   0.41742   0.52293   0.00000  Uiso   1.00
C841   C     0.09064   0.62589   0.94195   0.00000  Uiso   1.00
C842   C     0.24269   0.37411   0.55805   0.00000  Uiso   1.00
C843   C     0.18690   0.41789   0.97656   0.00000  Uiso   1.00
C844   C     0.02128   0.45740   0.74978   0.00000  Uiso   1.00
C845   C     0.31206   0.54260   0.75021   0.00000  Uiso   1.00
C846   C     0.31205   0.45740   0.74983   0.00000  Uiso   1.00
C847   C     0.02129   0.54260   0.75017   0.00000  Uiso   1.00
C848   C     0.29060   0.50000   0.75003   0.00000  Uiso   1.00
Cu849  Cu    0.16667   0.54689   0.75000   0.00000  Uiso   1.00
Cu850  Cu    0.16667   0.45311   0.75000   0.00000  Uiso   1.00
H851   H     0.18370   0.42709   0.88947   0.00000  Uiso   1.00
H852   H     0.03730   0.57590   0.75031   0.00000  Uiso   1.00
H853   H     0.12107   0.37692   0.69980   0.00000  Uiso   1.00
H854   H     0.21227   0.62308   0.80020   0.00000  Uiso   1.00
H855   H     0.21226   0.37685   0.80021   0.00000  Uiso   1.00
H856   H     0.12107   0.62315   0.69979   0.00000  Uiso   1.00
H857   H     0.14254   0.65461   0.97059   0.00000  Uiso   1.00
H858   H     0.07095   0.62633   0.97200   0.00000  Uiso   1.00
H859   H     0.08242   0.59512   0.92119   0.00000  Uiso   1.00
H860   H     0.08459   0.65817   0.92238   0.00000  Uiso   1.00
H861   H     0.19079   0.34539   0.52941   0.00000  Uiso   1.00
H862   H     0.14964   0.57291   0.61053   0.00000  Uiso   1.00
H863   H     0.26239   0.37367   0.52800   0.00000  Uiso   1.00
H864   H     0.24874   0.34183   0.57762   0.00000  Uiso   1.00
H865   H     0.25092   0.40488   0.57881   0.00000  Uiso   1.00
H866   H     0.14973   0.57271   0.88865   0.00000  Uiso   1.00
H867   H     0.18360   0.42729   0.61135   0.00000  Uiso   1.00
H868   H     0.13830   0.61363   0.54147   0.00000  Uiso   1.00
H869   H     0.19503   0.38637   0.95853   0.00000  Uiso   1.00
H870   H     0.03728   0.42409   0.74961   0.00000  Uiso   1.00
H871   H     0.29605   0.57591   0.75039   0.00000  Uiso   1.00
H872   H     0.29603   0.42410   0.74969   0.00000  Uiso   1.00
N873   N     0.16667   0.61736   0.75000   0.00000  Uiso   1.00
N874   N     0.16667   0.38264   0.75000   0.00000  Uiso   1.00
N875   N     0.13362   0.62438   0.95451   0.00000  Uiso   1.00
N876   N     0.19972   0.37562   0.54549   0.00000  Uiso   1.00
O877   O     0.10655   0.53958   0.74999   0.00000  Uiso   1.00
O878   O     0.22679   0.46042   0.75000   0.00000  Uiso   1.00
O879   O     0.22679   0.53958   0.75000   0.00000  Uiso   1.00
O880   O     0.10655   0.46042   0.74999   0.00000  Uiso   1.00
O881   O     0.16666   0.53960   0.68513   0.00000  Uiso   1.00
O882   O     0.16668   0.46040   0.81487   0.00000  Uiso   1.00
O883   O     0.16668   0.53960   0.81487   0.00000  Uiso   1.00
O884   O     0.16666   0.46040   0.68513   0.00000  Uiso   1.00
C885   C     0.42068   0.50000   0.74997   0.00000  Uiso   1.00
C886   C     0.37607   0.50000   0.74997   0.00000  Uiso   1.00
C887   C     0.47468   0.35817   0.72212   0.00000  Uiso   1.00
C888   C     0.52532   0.64183   0.77788   0.00000  Uiso   1.00
C889   C     0.52532   0.35813   0.77788   0.00000  Uiso   1.00
C890   C     0.47468   0.64187   0.72211   0.00000  Uiso   1.00
C891   C     0.49999   0.50002   0.66429   0.00000  Uiso   1.00
C892   C     0.50001   0.49998   0.83571   0.00000  Uiso   1.00
C893   C     0.50932   0.45887   0.90732   0.00000  Uiso   1.00
C894   C     0.49068   0.54113   0.59268   0.00000  Uiso   1.00
C895   C     0.49983   0.49998   0.88410   0.00000  Uiso   1.00
C896   C     0.57932   0.50000   0.75003   0.00000  Uiso   1.00
C897   C     0.50016   0.50002   0.61590   0.00000  Uiso   1.00
C898   C     0.49016   0.54113   0.90710   0.00000  Uiso   1.00
C899   C     0.50984   0.45887   0.59290   0.00000  Uiso   1.00
C900   C     0.48933   0.54158   0.95346   0.00000  Uiso   1.00
C901   C     0.51067   0.45842   0.54654   0.00000  Uiso   1.00
C902   C     0.49974   0.50010   0.97674   0.00000  Uiso   1.00
C903   C     0.50026   0.49990   0.52326   0.00000  Uiso   1.00
C904   C     0.50969   0.45874   0.95349   0.00000  Uiso   1.00
C905   C     0.49031   0.54126   0.54651   0.00000  Uiso   1.00
C906   C     0.47871   0.58258   0.97707   0.00000  Uiso   1.00
C907   C     0.47976   0.58211   0.52344   0.00000  Uiso   1.00
C908   C     0.52129   0.41742   0.52293   0.00000  Uiso   1.00
C909   C     0.42398   0.62589   0.94195   0.00000  Uiso   1.00
C910   C     0.57602   0.37411   0.55805   0.00000  Uiso   1.00
C911   C     0.52024   0.41789   0.97656   0.00000  Uiso   1.00
C912   C     0.35461   0.45740   0.74978   0.00000  Uiso   1.00
C913   C     0.64539   0.54260   0.75021   0.00000  Uiso   1.00
C914   C     0.64538   0.45740   0.74983   0.00000  Uiso   1.00
C915   C     0.35462   0.54260   0.75017   0.00000  Uiso   1.00
C916   C     0.62393   0.50000   0.75003   0.00000  Uiso   1.00
Cu917  Cu    0.50000   0.54689   0.75000   0.00000  Uiso   1.00
Cu918  Cu    0.50000   0.45311   0.75000   0.00000  Uiso   1.00
H919   H     0.51703   0.42709   0.88947   0.00000  Uiso   1.00
H920   H     0.37064   0.57590   0.75031   0.00000  Uiso   1.00
H921   H     0.45440   0.37692   0.69980   0.00000  Uiso   1.00
H922   H     0.54560   0.62308   0.80020   0.00000  Uiso   1.00
H923   H     0.54559   0.37685   0.80021   0.00000  Uiso   1.00
H924   H     0.45440   0.62315   0.69979   0.00000  Uiso   1.00
H925   H     0.47587   0.65461   0.97059   0.00000  Uiso   1.00
H926   H     0.40428   0.62633   0.97200   0.00000  Uiso   1.00
H927   H     0.41575   0.59512   0.92119   0.00000  Uiso   1.00
H928   H     0.41793   0.65817   0.92238   0.00000  Uiso   1.00
H929   H     0.52413   0.34539   0.52941   0.00000  Uiso   1.00
H930   H     0.48297   0.57291   0.61053   0.00000  Uiso   1.00
H931   H     0.59572   0.37367   0.52800   0.00000  Uiso   1.00
H932   H     0.58207   0.34183   0.57762   0.00000  Uiso   1.00
H933   H     0.58425   0.40488   0.57881   0.00000  Uiso   1.00
H934   H     0.48307   0.57271   0.88865   0.00000  Uiso   1.00
H935   H     0.51693   0.42729   0.61135   0.00000  Uiso   1.00
H936   H     0.47163   0.61363   0.54147   0.00000  Uiso   1.00
H937   H     0.52837   0.38637   0.95853   0.00000  Uiso   1.00
H938   H     0.37062   0.42409   0.74961   0.00000  Uiso   1.00
H939   H     0.62938   0.57591   0.75039   0.00000  Uiso   1.00
H940   H     0.62936   0.42410   0.74969   0.00000  Uiso   1.00
N941   N     0.50000   0.61736   0.75000   0.00000  Uiso   1.00
N942   N     0.50000   0.38264   0.75000   0.00000  Uiso   1.00
N943   N     0.46695   0.62438   0.95451   0.00000  Uiso   1.00
N944   N     0.53305   0.37562   0.54549   0.00000  Uiso   1.00
O945   O     0.43988   0.53958   0.74999   0.00000  Uiso   1.00
O946   O     0.56012   0.46042   0.75000   0.00000  Uiso   1.00
O947   O     0.56012   0.53958   0.75000   0.00000  Uiso   1.00
O948   O     0.43988   0.46042   0.74999   0.00000  Uiso   1.00
O949   O     0.49999   0.53960   0.68513   0.00000  Uiso   1.00
O950   O     0.50001   0.46040   0.81487   0.00000  Uiso   1.00
O951   O     0.50001   0.53960   0.81487   0.00000  Uiso   1.00
O952   O     0.49999   0.46040   0.68513   0.00000  Uiso   1.00
C953   C     0.75401   0.50000   0.74997   0.00000  Uiso   1.00
C954   C     0.70940   0.50000   0.74997   0.00000  Uiso   1.00
C955   C     0.80801   0.35817   0.72212   0.00000  Uiso   1.00
C956   C     0.85865   0.64183   0.77788   0.00000  Uiso   1.00
C957   C     0.85865   0.35813   0.77788   0.00000  Uiso   1.00
C958   C     0.80801   0.64187   0.72211   0.00000  Uiso   1.00
C959   C     0.83332   0.50002   0.66429   0.00000  Uiso   1.00
C960   C     0.83334   0.49998   0.83571   0.00000  Uiso   1.00
C961   C     0.84265   0.45887   0.90732   0.00000  Uiso   1.00
C962   C     0.82401   0.54113   0.59268   0.00000  Uiso   1.00
C963   C     0.83317   0.49998   0.88410   0.00000  Uiso   1.00
C964   C     0.91266   0.50000   0.75003   0.00000  Uiso   1.00
C965   C     0.83350   0.50002   0.61590   0.00000  Uiso   1.00
C966   C     0.82349   0.54113   0.90710   0.00000  Uiso   1.00
C967   C     0.84317   0.45887   0.59290   0.00000  Uiso   1.00
C968   C     0.82266   0.54158   0.95346   0.00000  Uiso   1.00
C969   C     0.84401   0.45842   0.54654   0.00000  Uiso   1.00
C970   C     0.83308   0.50010   0.97674   0.00000  Uiso   1.00
C971   C     0.83359   0.49990   0.52326   0.00000  Uiso   1.00
C972   C     0.84302   0.45874   0.95349   0.00000  Uiso   1.00
C973   C     0.82364   0.54126   0.54651   0.00000  Uiso   1.00
C974   C     0.81205   0.58258   0.97707   0.00000  Uiso   1.00
C975   C     0.81310   0.58211   0.52344   0.00000  Uiso   1.00
C976   C     0.85462   0.41742   0.52293   0.00000  Uiso   1.00
C977   C     0.75731   0.62589   0.94195   0.00000  Uiso   1.00
C978   C     0.90935   0.37411   0.55805   0.00000  Uiso   1.00
C979   C     0.85357   0.41789   0.97656   0.00000  Uiso   1.00
C980   C     0.68794   0.45740   0.74978   0.00000  Uiso   1.00
C981   C     0.97872   0.54260   0.75021   0.00000  Uiso   1.00
C982   C     0.97871   0.45740   0.74983   0.00000  Uiso   1.00
C983   C     0.68795   0.54260   0.75017   0.00000  Uiso   1.00
C984   C     0.95727   0.50000   0.75003   0.00000  Uiso   1.00
Cu985  Cu    0.83333   0.54689   0.75000   0.00000  Uiso   1.00
Cu986  Cu    0.83333   0.45311   0.75000   0.00000  Uiso   1.00
H987   H     0.85036   0.42709   0.88947   0.00000  Uiso   1.00
H988   H     0.70397   0.57590   0.75031   0.00000  Uiso   1.00
H989   H     0.78773   0.37692   0.69980   0.00000  Uiso   1.00
H990   H     0.87893   0.62308   0.80020   0.00000  Uiso   1.00
H991   H     0.87893   0.37685   0.80021   0.00000  Uiso   1.00
H992   H     0.78774   0.62315   0.69979   0.00000  Uiso   1.00
H993   H     0.80921   0.65461   0.97059   0.00000  Uiso   1.00
H994   H     0.73761   0.62633   0.97200   0.00000  Uiso   1.00
H995   H     0.74908   0.59512   0.92119   0.00000  Uiso   1.00
H996   H     0.75126   0.65817   0.92238   0.00000  Uiso   1.00
H997   H     0.85746   0.34539   0.52941   0.00000  Uiso   1.00
H998   H     0.81630   0.57291   0.61053   0.00000  Uiso   1.00
H999   H     0.92905   0.37367   0.52800   0.00000  Uiso   1.00
H1000  H     0.91541   0.34183   0.57762   0.00000  Uiso   1.00
H1001  H     0.91758   0.40488   0.57881   0.00000  Uiso   1.00
H1002  H     0.81640   0.57271   0.88865   0.00000  Uiso   1.00
H1003  H     0.85027   0.42729   0.61135   0.00000  Uiso   1.00
H1004  H     0.80497   0.61363   0.54147   0.00000  Uiso   1.00
H1005  H     0.86170   0.38637   0.95853   0.00000  Uiso   1.00
H1006  H     0.70395   0.42409   0.74961   0.00000  Uiso   1.00
H1007  H     0.96272   0.57591   0.75039   0.00000  Uiso   1.00
H1008  H     0.96270   0.42410   0.74969   0.00000  Uiso   1.00
N1009  N     0.83333   0.61736   0.75000   0.00000  Uiso   1.00
N1010  N     0.83333   0.38264   0.75000   0.00000  Uiso   1.00
N1011  N     0.80028   0.62438   0.95451   0.00000  Uiso   1.00
N1012  N     0.86638   0.37562   0.54549   0.00000  Uiso   1.00
O1013  O     0.77321   0.53958   0.74999   0.00000  Uiso   1.00
O1014  O     0.89345   0.46042   0.75000   0.00000  Uiso   1.00
O1015  O     0.89345   0.53958   0.75000   0.00000  Uiso   1.00
O1016  O     0.77321   0.46042   0.74999   0.00000  Uiso   1.00
O1017  O     0.83332   0.53960   0.68513   0.00000  Uiso   1.00
O1018  O     0.83334   0.46040   0.81487   0.00000  Uiso   1.00
O1019  O     0.83334   0.53960   0.81487   0.00000  Uiso   1.00
O1020  O     0.83332   0.46040   0.68513   0.00000  Uiso   1.00
C1021  C     0.08734   0.83333   0.74997   0.00000  Uiso   1.00
C1022  C     0.04273   0.83333   0.74997   0.00000  Uiso   1.00
C1023  C     0.14135   0.69150   0.72212   0.00000  Uiso   1.00
C1024  C     0.19199   0.97516   0.77788   0.00000  Uiso   1.00
C1025  C     0.19199   0.69146   0.77788   0.00000  Uiso   1.00
C1026  C     0.14135   0.97520   0.72211   0.00000  Uiso   1.00
C1027  C     0.16666   0.83335   0.66429   0.00000  Uiso   1.00
C1028  C     0.16668   0.83332   0.83571   0.00000  Uiso   1.00
C1029  C     0.17599   0.79221   0.90732   0.00000  Uiso   1.00
C1030  C     0.15735   0.87446   0.59268   0.00000  Uiso   1.00
C1031  C     0.16650   0.83331   0.88410   0.00000  Uiso   1.00
C1032  C     0.24599   0.83333   0.75003   0.00000  Uiso   1.00
C1033  C     0.16683   0.83336   0.61590   0.00000  Uiso   1.00
C1034  C     0.15683   0.87447   0.90710   0.00000  Uiso   1.00
C1035  C     0.17651   0.79220   0.59290   0.00000  Uiso   1.00
C1036  C     0.15599   0.87492   0.95346   0.00000  Uiso   1.00
C1037  C     0.17734   0.79175   0.54654   0.00000  Uiso   1.00
C1038  C     0.16641   0.83343   0.97674   0.00000  Uiso   1.00
C1039  C     0.16692   0.83324   0.52326   0.00000  Uiso   1.00
C1040  C     0.17636   0.79207   0.95349   0.00000  Uiso   1.00
C1041  C     0.15698   0.87459   0.54651   0.00000  Uiso   1.00
C1042  C     0.14538   0.91591   0.97707   0.00000  Uiso   1.00
C1043  C     0.14643   0.91545   0.52344   0.00000  Uiso   1.00
C1044  C     0.18795   0.75075   0.52293   0.00000  Uiso   1.00
C1045  C     0.09064   0.95922   0.94195   0.00000  Uiso   1.00
C1046  C     0.24269   0.70744   0.55805   0.00000  Uiso   1.00
C1047  C     0.18690   0.75122   0.97656   0.00000  Uiso   1.00
C1048  C     0.02128   0.79073   0.74978   0.00000  Uiso   1.00
C1049  C     0.31206   0.87593   0.75021   0.00000  Uiso   1.00
C1050  C     0.31205   0.79073   0.74983   0.00000  Uiso   1.00
C1051  C     0.02129   0.87593   0.75017   0.00000  Uiso   1.00
C1052  C     0.29060   0.83333   0.75003   0.00000  Uiso   1.00
Cu1053 Cu    0.16667   0.88022   0.75000   0.00000  Uiso   1.00
Cu1054 Cu    0.16667   0.78645   0.75000   0.00000  Uiso   1.00
H1055  H     0.18370   0.76042   0.88947   0.00000  Uiso   1.00
H1056  H     0.03730   0.90924   0.75031   0.00000  Uiso   1.00
H1057  H     0.12107   0.71025   0.69980   0.00000  Uiso   1.00
H1058  H     0.21227   0.95641   0.80020   0.00000  Uiso   1.00
H1059  H     0.21226   0.71018   0.80021   0.00000  Uiso   1.00
H1060  H     0.12107   0.95649   0.69979   0.00000  Uiso   1.00
H1061  H     0.14254   0.98795   0.97059   0.00000  Uiso   1.00
H1062  H     0.07095   0.95967   0.97200   0.00000  Uiso   1.00
H1063  H     0.08242   0.92845   0.92119   0.00000  Uiso   1.00
H1064  H     0.08459   0.99150   0.92238   0.00000  Uiso   1.00
H1065  H     0.19079   0.67872   0.52941   0.00000  Uiso   1.00
H1066  H     0.14964   0.90624   0.61053   0.00000  Uiso   1.00
H1067  H     0.26239   0.70700   0.52800   0.00000  Uiso   1.00
H1068  H     0.24874   0.67517   0.57762   0.00000  Uiso   1.00
H1069  H     0.25092   0.73821   0.57881   0.00000  Uiso   1.00
H1070  H     0.14973   0.90605   0.88865   0.00000  Uiso   1.00
H1071  H     0.18360   0.76062   0.61135   0.00000  Uiso   1.00
H1072  H     0.13830   0.94696   0.54147   0.00000  Uiso   1.00
H1073  H     0.19503   0.71971   0.95853   0.00000  Uiso   1.00
H1074  H     0.03728   0.75743   0.74961   0.00000  Uiso   1.00
H1075  H     0.29605   0.90924   0.75039   0.00000  Uiso   1.00
H1076  H     0.29603   0.75743   0.74969   0.00000  Uiso   1.00
N1077  N     0.16667   0.95069   0.75000   0.00000  Uiso   1.00
N1078  N     0.16667   0.71598   0.75000   0.00000  Uiso   1.00
N1079  N     0.13362   0.95772   0.95451   0.00000  Uiso   1.00
N1080  N     0.19972   0.70895   0.54549   0.00000  Uiso   1.00
O1081  O     0.10655   0.87291   0.74999   0.00000  Uiso   1.00
O1082  O     0.22679   0.79375   0.75000   0.00000  Uiso   1.00
O1083  O     0.22679   0.87291   0.75000   0.00000  Uiso   1.00
O1084  O     0.10655   0.79375   0.74999   0.00000  Uiso   1.00
O1085  O     0.16666   0.87293   0.68513   0.00000  Uiso   1.00
O1086  O     0.16668   0.79373   0.81487   0.00000  Uiso   1.00
O1087  O     0.16668   0.87293   0.81487   0.00000  Uiso   1.00
O1088  O     0.16666   0.79373   0.68513   0.00000  Uiso   1.00
C1089  C     0.42068   0.83333   0.74997   0.00000  Uiso   1.00
C1090  C     0.37607   0.83333   0.74997   0.00000  Uiso   1.00
C1091  C     0.47468   0.69150   0.72212   0.00000  Uiso   1.00
C1092  C     0.52532   0.97516   0.77788   0.00000  Uiso   1.00
C1093  C     0.52532   0.69146   0.77788   0.00000  Uiso   1.00
C1094  C     0.47468   0.97520   0.72211   0.00000  Uiso   1.00
C1095  C     0.49999   0.83335   0.66429   0.00000  Uiso   1.00
C1096  C     0.50001   0.83332   0.83571   0.00000  Uiso   1.00
C1097  C     0.50932   0.79221   0.90732   0.00000  Uiso   1.00
C1098  C     0.49068   0.87446   0.59268   0.00000  Uiso   1.00
C1099  C     0.49983   0.83331   0.88410   0.00000  Uiso   1.00
C1100  C     0.57932   0.83333   0.75003   0.00000  Uiso   1.00
C1101  C     0.50016   0.83336   0.61590   0.00000  Uiso   1.00
C1102  C     0.49016   0.87447   0.90710   0.00000  Uiso   1.00
C1103  C     0.50984   0.79220   0.59290   0.00000  Uiso   1.00
C1104  C     0.48933   0.87492   0.95346   0.00000  Uiso   1.00
C1105  C     0.51067   0.79175   0.54654   0.00000  Uiso   1.00
C1106  C     0.49974   0.83343   0.97674   0.00000  Uiso   1.00
C1107  C     0.50026   0.83324   0.52326   0.00000  Uiso   1.00
C1108  C     0.50969   0.79207   0.95349   0.00000  Uiso   1.00
C1109  C     0.49031   0.87459   0.54651   0.00000  Uiso   1.00
C1110  C     0.47871   0.91591   0.97707   0.00000  Uiso   1.00
C1111  C     0.47976   0.91545   0.52344   0.00000  Uiso   1.00
C1112  C     0.52129   0.75075   0.52293   0.00000  Uiso   1.00
C1113  C     0.42398   0.95922   0.94195   0.00000  Uiso   1.00
C1114  C     0.57602   0.70744   0.55805   0.00000  Uiso   1.00
C1115  C     0.52024   0.75122   0.97656   0.00000  Uiso   1.00
C1116  C     0.35461   0.79073   0.74978   0.00000  Uiso   1.00
C1117  C     0.64539   0.87593   0.75021   0.00000  Uiso   1.00
C1118  C     0.64538   0.79073   0.74983   0.00000  Uiso   1.00
C1119  C     0.35462   0.87593   0.75017   0.00000  Uiso   1.00
C1120  C     0.62393   0.83333   0.75003   0.00000  Uiso   1.00
Cu1121 Cu    0.50000   0.88022   0.75000   0.00000  Uiso   1.00
Cu1122 Cu    0.50000   0.78645   0.75000   0.00000  Uiso   1.00
H1123  H     0.51703   0.76042   0.88947   0.00000  Uiso   1.00
H1124  H     0.37064   0.90924   0.75031   0.00000  Uiso   1.00
H1125  H     0.45440   0.71025   0.69980   0.00000  Uiso   1.00
H1126  H     0.54560   0.95641   0.80020   0.00000  Uiso   1.00
H1127  H     0.54559   0.71018   0.80021   0.00000  Uiso   1.00
H1128  H     0.45440   0.95649   0.69979   0.00000  Uiso   1.00
H1129  H     0.47587   0.98795   0.97059   0.00000  Uiso   1.00
H1130  H     0.40428   0.95967   0.97200   0.00000  Uiso   1.00
H1131  H     0.41575   0.92845   0.92119   0.00000  Uiso   1.00
H1132  H     0.41793   0.99150   0.92238   0.00000  Uiso   1.00
H1133  H     0.52413   0.67872   0.52941   0.00000  Uiso   1.00
H1134  H     0.48297   0.90624   0.61053   0.00000  Uiso   1.00
H1135  H     0.59572   0.70700   0.52800   0.00000  Uiso   1.00
H1136  H     0.58207   0.67517   0.57762   0.00000  Uiso   1.00
H1137  H     0.58425   0.73821   0.57881   0.00000  Uiso   1.00
H1138  H     0.48307   0.90605   0.88865   0.00000  Uiso   1.00
H1139  H     0.51693   0.76062   0.61135   0.00000  Uiso   1.00
H1140  H     0.47163   0.94696   0.54147   0.00000  Uiso   1.00
H1141  H     0.52837   0.71971   0.95853   0.00000  Uiso   1.00
H1142  H     0.37062   0.75743   0.74961   0.00000  Uiso   1.00
H1143  H     0.62938   0.90924   0.75039   0.00000  Uiso   1.00
H1144  H     0.62936   0.75743   0.74969   0.00000  Uiso   1.00
N1145  N     0.50000   0.95069   0.75000   0.00000  Uiso   1.00
N1146  N     0.50000   0.71598   0.75000   0.00000  Uiso   1.00
N1147  N     0.46695   0.95772   0.95451   0.00000  Uiso   1.00
N1148  N     0.53305   0.70895   0.54549   0.00000  Uiso   1.00
O1149  O     0.43988   0.87291   0.74999   0.00000  Uiso   1.00
O1150  O     0.56012   0.79375   0.75000   0.00000  Uiso   1.00
O1151  O     0.56012   0.87291   0.75000   0.00000  Uiso   1.00
O1152  O     0.43988   0.79375   0.74999   0.00000  Uiso   1.00
O1153  O     0.49999   0.87293   0.68513   0.00000  Uiso   1.00
O1154  O     0.50001   0.79373   0.81487   0.00000  Uiso   1.00
O1155  O     0.50001   0.87293   0.81487   0.00000  Uiso   1.00
O1156  O     0.49999   0.79373   0.68513   0.00000  Uiso   1.00
C1157  C     0.75401   0.83333   0.74997   0.00000  Uiso   1.00
C1158  C     0.70940   0.83333   0.74997   0.00000  Uiso   1.00
C1159  C     0.80801   0.69150   0.72212   0.00000  Uiso   1.00
C1160  C     0.85865   0.97516   0.77788   0.00000  Uiso   1.00
C1161  C     0.85865   0.69146   0.77788   0.00000  Uiso   1.00
C1162  C     0.80801   0.97520   0.72211   0.00000  Uiso   1.00
C1163  C     0.83332   0.83335   0.66429   0.00000  Uiso   1.00
C1164  C     0.83334   0.83332   0.83571   0.00000  Uiso   1.00
C1165  C     0.84265   0.79221   0.90732   0.00000  Uiso   1.00
C1166  C     0.82401   0.87446   0.59268   0.00000  Uiso   1.00
C1167  C     0.83317   0.83331   0.88410   0.00000  Uiso   1.00
C1168  C     0.91266   0.83333   0.75003   0.00000  Uiso   1.00
C1169  C     0.83350   0.83336   0.61590   0.00000  Uiso   1.00
C1170  C     0.82349   0.87447   0.90710   0.00000  Uiso   1.00
C1171  C     0.84317   0.79220   0.59290   0.00000  Uiso   1.00
C1172  C     0.82266   0.87492   0.95346   0.00000  Uiso   1.00
C1173  C     0.84401   0.79175   0.54654   0.00000  Uiso   1.00
C1174  C     0.83308   0.83343   0.97674   0.00000  Uiso   1.00
C1175  C     0.83359   0.83324   0.52326   0.00000  Uiso   1.00
C1176  C     0.84302   0.79207   0.95349   0.00000  Uiso   1.00
C1177  C     0.82364   0.87459   0.54651   0.00000  Uiso   1.00
C1178  C     0.81205   0.91591   0.97707   0.00000  Uiso   1.00
C1179  C     0.81310   0.91545   0.52344   0.00000  Uiso   1.00
C1180  C     0.85462   0.75075   0.52293   0.00000  Uiso   1.00
C1181  C     0.75731   0.95922   0.94195   0.00000  Uiso   1.00
C1182  C     0.90935   0.70744   0.55805   0.00000  Uiso   1.00
C1183  C     0.85357   0.75122   0.97656   0.00000  Uiso   1.00
C1184  C     0.68794   0.79073   0.74978   0.00000  Uiso   1.00
C1185  C     0.97872   0.87593   0.75021   0.00000  Uiso   1.00
C1186  C     0.97871   0.79073   0.74983   0.00000  Uiso   1.00
C1187  C     0.68795   0.87593   0.75017   0.00000  Uiso   1.00
C1188  C     0.95727   0.83333   0.75003   0.00000  Uiso   1.00
Cu1189 Cu    0.83333   0.88022   0.75000   0.00000  Uiso   1.00
Cu1190 Cu    0.83333   0.78645   0.75000   0.00000  Uiso   1.00
H1191  H     0.85036   0.76042   0.88947   0.00000  Uiso   1.00
H1192  H     0.70397   0.90924   0.75031   0.00000  Uiso   1.00
H1193  H     0.78773   0.71025   0.69980   0.00000  Uiso   1.00
H1194  H     0.87893   0.95641   0.80020   0.00000  Uiso   1.00
H1195  H     0.87893   0.71018   0.80021   0.00000  Uiso   1.00
H1196  H     0.78774   0.95649   0.69979   0.00000  Uiso   1.00
H1197  H     0.80921   0.98795   0.97059   0.00000  Uiso   1.00
H1198  H     0.73761   0.95967   0.97200   0.00000  Uiso   1.00
H1199  H     0.74908   0.92845   0.92119   0.00000  Uiso   1.00
H1200  H     0.75126   0.99150   0.92238   0.00000  Uiso   1.00
H1201  H     0.85746   0.67872   0.52941   0.00000  Uiso   1.00
H1202  H     0.81630   0.90624   0.61053   0.00000  Uiso   1.00
H1203  H     0.92905   0.70700   0.52800   0.00000  Uiso   1.00
H1204  H     0.91541   0.67517   0.57762   0.00000  Uiso   1.00
H1205  H     0.91758   0.73821   0.57881   0.00000  Uiso   1.00
H1206  H     0.81640   0.90605   0.88865   0.00000  Uiso   1.00
H1207  H     0.85027   0.76062   0.61135   0.00000  Uiso   1.00
H1208  H     0.80497   0.94696   0.54147   0.00000  Uiso   1.00
H1209  H     0.86170   0.71971   0.95853   0.00000  Uiso   1.00
H1210  H     0.70395   0.75743   0.74961   0.00000  Uiso   1.00
H1211  H     0.96272   0.90924   0.75039   0.00000  Uiso   1.00
H1212  H     0.96270   0.75743   0.74969   0.00000  Uiso   1.00
N1213  N     0.83333   0.95069   0.75000   0.00000  Uiso   1.00
N1214  N     0.83333   0.71598   0.75000   0.00000  Uiso   1.00
N1215  N     0.80028   0.95772   0.95451   0.00000  Uiso   1.00
N1216  N     0.86638   0.70895   0.54549   0.00000  Uiso   1.00
O1217  O     0.77321   0.87291   0.74999   0.00000  Uiso   1.00
O1218  O     0.89345   0.79375   0.75000   0.00000  Uiso   1.00
O1219  O     0.89345   0.87291   0.75000   0.00000  Uiso   1.00
O1220  O     0.77321   0.79375   0.74999   0.00000  Uiso   1.00
O1221  O     0.83332   0.87293   0.68513   0.00000  Uiso   1.00
O1222  O     0.83334   0.79373   0.81487   0.00000  Uiso   1.00
O1223  O     0.83334   0.87293   0.81487   0.00000  Uiso   1.00
O1224  O     0.83332   0.79373   0.68513   0.00000  Uiso   1.00
loop_
_geom_bond_atom_site_label_1
_geom_bond_atom_site_label_2
_geom_bond_distance
_geom_bond_site_symmetry_2
_ccdc_geom_bond_type
C1     C2      1.450   .     S
C1     O64     1.290   .     A
C1     O61     1.290   .     A
C2     C28     1.401   .     A
C2     C31     1.401   .     A
C3     N58     1.367   .     A
C3     H37     1.082   .     S
C3     C414    1.416   1_545 S
C4     N57     1.367   .     A
C4     H38     1.082   .     S
C4     C209    1.416   .     S
C5     N58     1.367   .     A
C5     H39     1.082   .     S
C5     C412    1.416   1_545 S
C6     N57     1.367   .     A
C6     H40     1.082   .     S
C6     C207    1.416   .     S
C7     O65     1.293   .     A
C7     C13     1.460   .     S
C7     O68     1.293   .     A
C8     O66     1.293   .     A
C8     C11     1.460   .     S
C8     O67     1.293   .     A
C9     C20     1.392   .     A
C9     C11     1.399   .     A
C9     H35     1.085   .     S
C10    H46     1.085   .     S
C10    C21     1.392   .     A
C10    C13     1.399   .     A
C11    C14     1.401   .     A
C12    O62     1.290   .     A
C12    C32     1.450   .     S
C12    O63     1.290   .     A
C13    C15     1.401   .     A
C14    H50     1.083   .     S
C14    C16     1.399   .     A
C15    H51     1.083   .     S
C15    C17     1.399   .     A
C16    C18     1.416   .     A
C16    C22     1.413   .     A
C17    C19     1.416   .     A
C17    C24     1.413   .     A
C18    C20     1.411   .     A
C18    C631    1.403   .     S
C19    C21     1.411   .     A
C19    C630    1.403   1_554 S
C20    C27     1.399   .     A
C21    C23     1.399   .     A
C22    N59     1.424   .     S
C22    C635    1.399   .     S
C23    H52     1.084   .     S
C23    C634    1.399   1_554 S
C24    N60     1.424   .     S
C24    C639    1.399   1_554 S
C25    H42     1.112   .     S
C25    N59     1.447   .     S
C25    H43     1.111   .     S
C25    H44     1.110   .     S
C26    H48     1.110   .     S
C26    N60     1.447   .     S
C26    H47     1.112   .     S
C26    H49     1.111   .     S
C27    H53     1.084   .     S
C27    C636    1.399   .     S
C28    H54     1.083   .     S
C28    C166    1.383   1_455 S
C29    C32     1.401   .     A
C29    H55     1.083   .     S
C29    C99     1.383   .     S
C30    C32     1.401   .     A
C30    H56     1.083   .     S
C30    C96     1.383   .     S
C31    H36     1.083   .     S
C31    C165    1.383   1_455 S
Cu33   Cu34    2.675   .     S
Cu33   O65     1.968   .     S
Cu33   O61     1.965   .     S
Cu33   O63     1.965   .     S
Cu33   O67     1.967   .     S
Cu33   N57     2.010   .     S
Cu34   O66     1.968   .     S
Cu34   O62     1.965   .     S
Cu34   O64     1.965   .     S
Cu34   O68     1.967   .     S
Cu34   N58     2.010   .     S
H41    N59     1.031   .     S
H45    N60     1.031   .     S
C69    C70     1.450   .     S
C69    O132    1.290   .     A
C69    O129    1.290   .     A
C70    C96     1.401   .     A
C70    C99     1.401   .     A
C71    N126    1.367   .     A
C71    H105    1.082   .     S
C71    C482    1.416   1_545 S
C72    N125    1.367   .     A
C72    H106    1.082   .     S
C72    C277    1.416   .     S
C73    N126    1.367   .     A
C73    H107    1.082   .     S
C73    C480    1.416   1_545 S
C74    N125    1.367   .     A
C74    H108    1.082   .     S
C74    C275    1.416   .     S
C75    O133    1.293   .     A
C75    C81     1.460   .     S
C75    O136    1.293   .     A
C76    O134    1.293   .     A
C76    C79     1.460   .     S
C76    O135    1.293   .     A
C77    C88     1.392   .     A
C77    C79     1.399   .     A
C77    H103    1.085   .     S
C78    H114    1.085   .     S
C78    C89     1.392   .     A
C78    C81     1.399   .     A
C79    C82     1.401   .     A
C80    O130    1.290   .     A
C80    C100    1.450   .     S
C80    O131    1.290   .     A
C81    C83     1.401   .     A
C82    H118    1.083   .     S
C82    C84     1.399   .     A
C83    H119    1.083   .     S
C83    C85     1.399   .     A
C84    C86     1.416   .     A
C84    C90     1.413   .     A
C85    C87     1.416   .     A
C85    C92     1.413   .     A
C86    C88     1.411   .     A
C86    C699    1.403   .     S
C87    C89     1.411   .     A
C87    C698    1.403   1_554 S
C88    C95     1.399   .     A
C89    C91     1.399   .     A
C90    N127    1.424   .     S
C90    C703    1.399   .     S
C91    H120    1.084   .     S
C91    C702    1.399   1_554 S
C92    N128    1.424   .     S
C92    C707    1.399   1_554 S
C93    H110    1.112   .     S
C93    N127    1.447   .     S
C93    H111    1.111   .     S
C93    H112    1.110   .     S
C94    H116    1.110   .     S
C94    N128    1.447   .     S
C94    H115    1.112   .     S
C94    H117    1.111   .     S
C95    H121    1.084   .     S
C95    C704    1.399   .     S
C96    H122    1.083   .     S
C97    C100    1.401   .     A
C97    H123    1.083   .     S
C97    C167    1.383   .     S
C98    C100    1.401   .     A
C98    H124    1.083   .     S
C98    C164    1.383   .     S
C99    H104    1.083   .     S
Cu101  Cu102   2.675   .     S
Cu101  O133    1.968   .     S
Cu101  O129    1.965   .     S
Cu101  O131    1.965   .     S
Cu101  O135    1.967   .     S
Cu101  N125    2.010   .     S
Cu102  O134    1.968   .     S
Cu102  O130    1.965   .     S
Cu102  O132    1.965   .     S
Cu102  O136    1.967   .     S
Cu102  N126    2.010   .     S
H109   N127    1.031   .     S
H113   N128    1.031   .     S
C137   C138    1.450   .     S
C137   O200    1.290   .     A
C137   O197    1.290   .     A
C138   C164    1.401   .     A
C138   C167    1.401   .     A
C139   N194    1.367   .     A
C139   H173    1.082   .     S
C139   C550    1.416   1_545 S
C140   N193    1.367   .     A
C140   H174    1.082   .     S
C140   C345    1.416   .     S
C141   N194    1.367   .     A
C141   H175    1.082   .     S
C141   C548    1.416   1_545 S
C142   N193    1.367   .     A
C142   H176    1.082   .     S
C142   C343    1.416   .     S
C143   O201    1.293   .     A
C143   C149    1.460   .     S
C143   O204    1.293   .     A
C144   O202    1.293   .     A
C144   C147    1.460   .     S
C144   O203    1.293   .     A
C145   C156    1.392   .     A
C145   C147    1.399   .     A
C145   H171    1.085   .     S
C146   H182    1.085   .     S
C146   C157    1.392   .     A
C146   C149    1.399   .     A
C147   C150    1.401   .     A
C148   O198    1.290   .     A
C148   C168    1.450   .     S
C148   O199    1.290   .     A
C149   C151    1.401   .     A
C150   H186    1.083   .     S
C150   C152    1.399   .     A
C151   H187    1.083   .     S
C151   C153    1.399   .     A
C152   C154    1.416   .     A
C152   C158    1.413   .     A
C153   C155    1.416   .     A
C153   C160    1.413   .     A
C154   C156    1.411   .     A
C154   C767    1.403   .     S
C155   C157    1.411   .     A
C155   C766    1.403   1_554 S
C156   C163    1.399   .     A
C157   C159    1.399   .     A
C158   N195    1.424   .     S
C158   C771    1.399   .     S
C159   H188    1.084   .     S
C159   C770    1.399   1_554 S
C160   N196    1.424   .     S
C160   C775    1.399   1_554 S
C161   H178    1.112   .     S
C161   N195    1.447   .     S
C161   H179    1.111   .     S
C161   H180    1.110   .     S
C162   H184    1.110   .     S
C162   N196    1.447   .     S
C162   H183    1.112   .     S
C162   H185    1.111   .     S
C163   H189    1.084   .     S
C163   C772    1.399   .     S
C164   H190    1.083   .     S
C165   C168    1.401   .     A
C165   H191    1.083   .     S
C165   C31     1.383   1_655 S
C166   C168    1.401   .     A
C166   H192    1.083   .     S
C166   C28     1.383   1_655 S
C167   H172    1.083   .     S
Cu169  Cu170   2.675   .     S
Cu169  O201    1.968   .     S
Cu169  O197    1.965   .     S
Cu169  O199    1.965   .     S
Cu169  O203    1.967   .     S
Cu169  N193    2.010   .     S
Cu170  O202    1.968   .     S
Cu170  O198    1.965   .     S
Cu170  O200    1.965   .     S
Cu170  O204    1.967   .     S
Cu170  N194    2.010   .     S
H177   N195    1.031   .     S
H181   N196    1.031   .     S
C205   C206    1.450   .     S
C205   O268    1.290   .     A
C205   O265    1.290   .     A
C206   C232    1.401   .     A
C206   C235    1.401   .     A
C207   N262    1.367   .     A
C207   H241    1.082   .     S
C208   N261    1.367   .     A
C208   H242    1.082   .     S
C208   C413    1.416   .     S
C209   N262    1.367   .     A
C209   H243    1.082   .     S
C210   N261    1.367   .     A
C210   H244    1.082   .     S
C210   C411    1.416   .     S
C211   O269    1.293   .     A
C211   C217    1.460   .     S
C211   O272    1.293   .     A
C212   O270    1.293   .     A
C212   C215    1.460   .     S
C212   O271    1.293   .     A
C213   C224    1.392   .     A
C213   C215    1.399   .     A
C213   H239    1.085   .     S
C214   H250    1.085   .     S
C214   C225    1.392   .     A
C214   C217    1.399   .     A
C215   C218    1.401   .     A
C216   O266    1.290   .     A
C216   C236    1.450   .     S
C216   O267    1.290   .     A
C217   C219    1.401   .     A
C218   H254    1.083   .     S
C218   C220    1.399   .     A
C219   H255    1.083   .     S
C219   C221    1.399   .     A
C220   C222    1.416   .     A
C220   C226    1.413   .     A
C221   C223    1.416   .     A
C221   C228    1.413   .     A
C222   C224    1.411   .     A
C222   C835    1.403   .     S
C223   C225    1.411   .     A
C223   C834    1.403   1_554 S
C224   C231    1.399   .     A
C225   C227    1.399   .     A
C226   N263    1.424   .     S
C226   C839    1.399   .     S
C227   H256    1.084   .     S
C227   C838    1.399   1_554 S
C228   N264    1.424   .     S
C228   C843    1.399   1_554 S
C229   H246    1.112   .     S
C229   N263    1.447   .     S
C229   H247    1.111   .     S
C229   H248    1.110   .     S
C230   H252    1.110   .     S
C230   N264    1.447   .     S
C230   H251    1.112   .     S
C230   H253    1.111   .     S
C231   H257    1.084   .     S
C231   C840    1.399   .     S
C232   H258    1.083   .     S
C232   C370    1.383   1_455 S
C233   C236    1.401   .     A
C233   H259    1.083   .     S
C233   C303    1.383   .     S
C234   C236    1.401   .     A
C234   H260    1.083   .     S
C234   C300    1.383   .     S
C235   H240    1.083   .     S
C235   C369    1.383   1_455 S
Cu237  Cu238   2.675   .     S
Cu237  O269    1.968   .     S
Cu237  O265    1.965   .     S
Cu237  O267    1.965   .     S
Cu237  O271    1.967   .     S
Cu237  N261    2.010   .     S
Cu238  O270    1.968   .     S
Cu238  O266    1.965   .     S
Cu238  O268    1.965   .     S
Cu238  O272    1.967   .     S
Cu238  N262    2.010   .     S
H245   N263    1.031   .     S
H249   N264    1.031   .     S
C273   C274    1.450   .     S
C273   O336    1.290   .     A
C273   O333    1.290   .     A
C274   C300    1.401   .     A
C274   C303    1.401   .     A
C275   N330    1.367   .     A
C275   H309    1.082   .     S
C276   N329    1.367   .     A
C276   H310    1.082   .     S
C276   C481    1.416   .     S
C277   N330    1.367   .     A
C277   H311    1.082   .     S
C278   N329    1.367   .     A
C278   H312    1.082   .     S
C278   C479    1.416   .     S
C279   O337    1.293   .     A
C279   C285    1.460   .     S
C279   O340    1.293   .     A
C280   O338    1.293   .     A
C280   C283    1.460   .     S
C280   O339    1.293   .     A
C281   C292    1.392   .     A
C281   C283    1.399   .     A
C281   H307    1.085   .     S
C282   H318    1.085   .     S
C282   C293    1.392   .     A
C282   C285    1.399   .     A
C283   C286    1.401   .     A
C284   O334    1.290   .     A
C284   C304    1.450   .     S
C284   O335    1.290   .     A
C285   C287    1.401   .     A
C286   H322    1.083   .     S
C286   C288    1.399   .     A
C287   H323    1.083   .     S
C287   C289    1.399   .     A
C288   C290    1.416   .     A
C288   C294    1.413   .     A
C289   C291    1.416   .     A
C289   C296    1.413   .     A
C290   C292    1.411   .     A
C290   C903    1.403   .     S
C291   C293    1.411   .     A
C291   C902    1.403   1_554 S
C292   C299    1.399   .     A
C293   C295    1.399   .     A
C294   N331    1.424   .     S
C294   C907    1.399   .     S
C295   H324    1.084   .     S
C295   C906    1.399   1_554 S
C296   N332    1.424   .     S
C296   C911    1.399   1_554 S
C297   H314    1.112   .     S
C297   N331    1.447   .     S
C297   H315    1.111   .     S
C297   H316    1.110   .     S
C298   H320    1.110   .     S
C298   N332    1.447   .     S
C298   H319    1.112   .     S
C298   H321    1.111   .     S
C299   H325    1.084   .     S
C299   C908    1.399   .     S
C300   H326    1.083   .     S
C301   C304    1.401   .     A
C301   H327    1.083   .     S
C301   C371    1.383   .     S
C302   C304    1.401   .     A
C302   H328    1.083   .     S
C302   C368    1.383   .     S
C303   H308    1.083   .     S
Cu305  Cu306   2.675   .     S
Cu305  O337    1.968   .     S
Cu305  O333    1.965   .     S
Cu305  O335    1.965   .     S
Cu305  O339    1.967   .     S
Cu305  N329    2.010   .     S
Cu306  O338    1.968   .     S
Cu306  O334    1.965   .     S
Cu306  O336    1.965   .     S
Cu306  O340    1.967   .     S
Cu306  N330    2.010   .     S
H313   N331    1.031   .     S
H317   N332    1.031   .     S
C341   C342    1.450   .     S
C341   O404    1.290   .     A
C341   O401    1.290   .     A
C342   C368    1.401   .     A
C342   C371    1.401   .     A
C343   N398    1.367   .     A
C343   H377    1.082   .     S
C344   N397    1.367   .     A
C344   H378    1.082   .     S
C344   C549    1.416   .     S
C345   N398    1.367   .     A
C345   H379    1.082   .     S
C346   N397    1.367   .     A
C346   H380    1.082   .     S
C346   C547    1.416   .     S
C347   O405    1.293   .     A
C347   C353    1.460   .     S
C347   O408    1.293   .     A
C348   O406    1.293   .     A
C348   C351    1.460   .     S
C348   O407    1.293   .     A
C349   C360    1.392   .     A
C349   C351    1.399   .     A
C349   H375    1.085   .     S
C350   H386    1.085   .     S
C350   C361    1.392   .     A
C350   C353    1.399   .     A
C351   C354    1.401   .     A
C352   O402    1.290   .     A
C352   C372    1.450   .     S
C352   O403    1.290   .     A
C353   C355    1.401   .     A
C354   H390    1.083   .     S
C354   C356    1.399   .     A
C355   H391    1.083   .     S
C355   C357    1.399   .     A
C356   C358    1.416   .     A
C356   C362    1.413   .     A
C357   C359    1.416   .     A
C357   C364    1.413   .     A
C358   C360    1.411   .     A
C358   C971    1.403   .     S
C359   C361    1.411   .     A
C359   C970    1.403   1_554 S
C360   C367    1.399   .     A
C361   C363    1.399   .     A
C362   N399    1.424   .     S
C362   C975    1.399   .     S
C363   H392    1.084   .     S
C363   C974    1.399   1_554 S
C364   N400    1.424   .     S
C364   C979    1.399   1_554 S
C365   H382    1.112   .     S
C365   N399    1.447   .     S
C365   H383    1.111   .     S
C365   H384    1.110   .     S
C366   H388    1.110   .     S
C366   N400    1.447   .     S
C366   H387    1.112   .     S
C366   H389    1.111   .     S
C367   H393    1.084   .     S
C367   C976    1.399   .     S
C368   H394    1.083   .     S
C369   C372    1.401   .     A
C369   H395    1.083   .     S
C369   C235    1.383   1_655 S
C370   C372    1.401   .     A
C370   H396    1.083   .     S
C370   C232    1.383   1_655 S
C371   H376    1.083   .     S
Cu373  Cu374   2.675   .     S
Cu373  O405    1.968   .     S
Cu373  O401    1.965   .     S
Cu373  O403    1.965   .     S
Cu373  O407    1.967   .     S
Cu373  N397    2.010   .     S
Cu374  O406    1.968   .     S
Cu374  O402    1.965   .     S
Cu374  O404    1.965   .     S
Cu374  O408    1.967   .     S
Cu374  N398    2.010   .     S
H381   N399    1.031   .     S
H385   N400    1.031   .     S
C409   C410    1.450   .     S
C409   O472    1.290   .     A
C409   O469    1.290   .     A
C410   C436    1.401   .     A
C410   C439    1.401   .     A
C411   N466    1.367   .     A
C411   H445    1.082   .     S
C412   N465    1.367   .     A
C412   H446    1.082   .     S
C412   C5      1.416   1_565 S
C413   N466    1.367   .     A
C413   H447    1.082   .     S
C414   N465    1.367   .     A
C414   H448    1.082   .     S
C414   C3      1.416   1_565 S
C415   O473    1.293   .     A
C415   C421    1.460   .     S
C415   O476    1.293   .     A
C416   O474    1.293   .     A
C416   C419    1.460   .     S
C416   O475    1.293   .     A
C417   C428    1.392   .     A
C417   C419    1.399   .     A
C417   H443    1.085   .     S
C418   H454    1.085   .     S
C418   C429    1.392   .     A
C418   C421    1.399   .     A
C419   C422    1.401   .     A
C420   O470    1.290   .     A
C420   C440    1.450   .     S
C420   O471    1.290   .     A
C421   C423    1.401   .     A
C422   H458    1.083   .     S
C422   C424    1.399   .     A
C423   H459    1.083   .     S
C423   C425    1.399   .     A
C424   C426    1.416   .     A
C424   C430    1.413   .     A
C425   C427    1.416   .     A
C425   C432    1.413   .     A
C426   C428    1.411   .     A
C426   C1039   1.403   .     S
C427   C429    1.411   .     A
C427   C1038   1.403   1_554 S
C428   C435    1.399   .     A
C429   C431    1.399   .     A
C430   N467    1.424   .     S
C430   C1043   1.399   .     S
C431   H460    1.084   .     S
C431   C1042   1.399   1_554 S
C432   N468    1.424   .     S
C432   C1047   1.399   1_554 S
C433   H450    1.112   .     S
C433   N467    1.447   .     S
C433   H451    1.111   .     S
C433   H452    1.110   .     S
C434   H456    1.110   .     S
C434   N468    1.447   .     S
C434   H455    1.112   .     S
C434   H457    1.111   .     S
C435   H461    1.084   .     S
C435   C1044   1.399   .     S
C436   H462    1.083   .     S
C436   C574    1.383   1_455 S
C437   C440    1.401   .     A
C437   H463    1.083   .     S
C437   C507    1.383   .     S
C438   C440    1.401   .     A
C438   H464    1.083   .     S
C438   C504    1.383   .     S
C439   H444    1.083   .     S
C439   C573    1.383   1_455 S
Cu441  Cu442   2.675   .     S
Cu441  O473    1.968   .     S
Cu441  O469    1.965   .     S
Cu441  O471    1.965   .     S
Cu441  O475    1.967   .     S
Cu441  N465    2.010   .     S
Cu442  O474    1.968   .     S
Cu442  O470    1.965   .     S
Cu442  O472    1.965   .     S
Cu442  O476    1.967   .     S
Cu442  N466    2.010   .     S
H449   N467    1.031   .     S
H453   N468    1.031   .     S
C477   C478    1.450   .     S
C477   O540    1.290   .     A
C477   O537    1.290   .     A
C478   C504    1.401   .     A
C478   C507    1.401   .     A
C479   N534    1.367   .     A
C479   H513    1.082   .     S
C480   N533    1.367   .     A
C480   H514    1.082   .     S
C480   C73     1.416   1_565 S
C481   N534    1.367   .     A
C481   H515    1.082   .     S
C482   N533    1.367   .     A
C482   H516    1.082   .     S
C482   C71     1.416   1_565 S
C483   O541    1.293   .     A
C483   C489    1.460   .     S
C483   O544    1.293   .     A
C484   O542    1.293   .     A
C484   C487    1.460   .     S
C484   O543    1.293   .     A
C485   C496    1.392   .     A
C485   C487    1.399   .     A
C485   H511    1.085   .     S
C486   H522    1.085   .     S
C486   C497    1.392   .     A
C486   C489    1.399   .     A
C487   C490    1.401   .     A
C488   O538    1.290   .     A
C488   C508    1.450   .     S
C488   O539    1.290   .     A
C489   C491    1.401   .     A
C490   H526    1.083   .     S
C490   C492    1.399   .     A
C491   H527    1.083   .     S
C491   C493    1.399   .     A
C492   C494    1.416   .     A
C492   C498    1.413   .     A
C493   C495    1.416   .     A
C493   C500    1.413   .     A
C494   C496    1.411   .     A
C494   C1107   1.403   .     S
C495   C497    1.411   .     A
C495   C1106   1.403   1_554 S
C496   C503    1.399   .     A
C497   C499    1.399   .     A
C498   N535    1.424   .     S
C498   C1111   1.399   .     S
C499   H528    1.084   .     S
C499   C1110   1.399   1_554 S
C500   N536    1.424   .     S
C500   C1115   1.399   1_554 S
C501   H518    1.112   .     S
C501   N535    1.447   .     S
C501   H519    1.111   .     S
C501   H520    1.110   .     S
C502   H524    1.110   .     S
C502   N536    1.447   .     S
C502   H523    1.112   .     S
C502   H525    1.111   .     S
C503   H529    1.084   .     S
C503   C1112   1.399   .     S
C504   H530    1.083   .     S
C505   C508    1.401   .     A
C505   H531    1.083   .     S
C505   C575    1.383   .     S
C506   C508    1.401   .     A
C506   H532    1.083   .     S
C506   C572    1.383   .     S
C507   H512    1.083   .     S
Cu509  Cu510   2.675   .     S
Cu509  O541    1.968   .     S
Cu509  O537    1.965   .     S
Cu509  O539    1.965   .     S
Cu509  O543    1.967   .     S
Cu509  N533    2.010   .     S
Cu510  O542    1.968   .     S
Cu510  O538    1.965   .     S
Cu510  O540    1.965   .     S
Cu510  O544    1.967   .     S
Cu510  N534    2.010   .     S
H517   N535    1.031   .     S
H521   N536    1.031   .     S
C545   C546    1.450   .     S
C545   O608    1.290   .     A
C545   O605    1.290   .     A
C546   C572    1.401   .     A
C546   C575    1.401   .     A
C547   N602    1.367   .     A
C547   H581    1.082   .     S
C548   N601    1.367   .     A
C548   H582    1.082   .     S
C548   C141    1.416   1_565 S
C549   N602    1.367   .     A
C549   H583    1.082   .     S
C550   N601    1.367   .     A
C550   H584    1.082   .     S
C550   C139    1.416   1_565 S
C551   O609    1.293   .     A
C551   C557    1.460   .     S
C551   O612    1.293   .     A
C552   O610    1.293   .     A
C552   C555    1.460   .     S
C552   O611    1.293   .     A
C553   C564    1.392   .     A
C553   C555    1.399   .     A
C553   H579    1.085   .     S
C554   H590    1.085   .     S
C554   C565    1.392   .     A
C554   C557    1.399   .     A
C555   C558    1.401   .     A
C556   O606    1.290   .     A
C556   C576    1.450   .     S
C556   O607    1.290   .     A
C557   C559    1.401   .     A
C558   H594    1.083   .     S
C558   C560    1.399   .     A
C559   H595    1.083   .     S
C559   C561    1.399   .     A
C560   C562    1.416   .     A
C560   C566    1.413   .     A
C561   C563    1.416   .     A
C561   C568    1.413   .     A
C562   C564    1.411   .     A
C562   C1175   1.403   .     S
C563   C565    1.411   .     A
C563   C1174   1.403   1_554 S
C564   C571    1.399   .     A
C565   C567    1.399   .     A
C566   N603    1.424   .     S
C566   C1179   1.399   .     S
C567   H596    1.084   .     S
C567   C1178   1.399   1_554 S
C568   N604    1.424   .     S
C568   C1183   1.399   1_554 S
C569   H586    1.112   .     S
C569   N603    1.447   .     S
C569   H587    1.111   .     S
C569   H588    1.110   .     S
C570   H592    1.110   .     S
C570   N604    1.447   .     S
C570   H591    1.112   .     S
C570   H593    1.111   .     S
C571   H597    1.084   .     S
C571   C1180   1.399   .     S
C572   H598    1.083   .     S
C573   C576    1.401   .     A
C573   H599    1.083   .     S
C573   C439    1.383   1_655 S
C574   C576    1.401   .     A
C574   H600    1.083   .     S
C574   C436    1.383   1_655 S
C575   H580    1.083   .     S
Cu577  Cu578   2.675   .     S
Cu577  O609    1.968   .     S
Cu577  O605    1.965   .     S
Cu577  O607    1.965   .     S
Cu577  O611    1.967   .     S
Cu577  N601    2.010   .     S
Cu578  O610    1.968   .     S
Cu578  O606    1.965   .     S
Cu578  O608    1.965   .     S
Cu578  O612    1.967   .     S
Cu578  N602    2.010   .     S
H585   N603    1.031   .     S
H589   N604    1.031   .     S
C613   C614    1.450   .     S
C613   O676    1.290   .     A
C613   O673    1.290   .     A
C614   C640    1.401   .     A
C614   C643    1.401   .     A
C615   N670    1.367   .     A
C615   H649    1.082   .     S
C615   C1026   1.416   1_545 S
C616   N669    1.367   .     A
C616   H650    1.082   .     S
C616   C821    1.416   .     S
C617   N670    1.367   .     A
C617   H651    1.082   .     S
C617   C1024   1.416   1_545 S
C618   N669    1.367   .     A
C618   H652    1.082   .     S
C618   C819    1.416   .     S
C619   O677    1.293   .     A
C619   C625    1.460   .     S
C619   O680    1.293   .     A
C620   O678    1.293   .     A
C620   C623    1.460   .     S
C620   O679    1.293   .     A
C621   C632    1.392   .     A
C621   C623    1.399   .     A
C621   H647    1.085   .     S
C622   H658    1.085   .     S
C622   C633    1.392   .     A
C622   C625    1.399   .     A
C623   C626    1.401   .     A
C624   O674    1.290   .     A
C624   C644    1.450   .     S
C624   O675    1.290   .     A
C625   C627    1.401   .     A
C626   H662    1.083   .     S
C626   C628    1.399   .     A
C627   H663    1.083   .     S
C627   C629    1.399   .     A
C628   C630    1.416   .     A
C628   C634    1.413   .     A
C629   C631    1.416   .     A
C629   C636    1.413   .     A
C630   C632    1.411   .     A
C630   C19     1.403   1_556 S
C631   C633    1.411   .     A
C632   C639    1.399   .     A
C633   C635    1.399   .     A
C634   N671    1.424   .     S
C634   C23     1.399   1_556 S
C635   H664    1.084   .     S
C636   N672    1.424   .     S
C637   H654    1.112   .     S
C637   N671    1.447   .     S
C637   H655    1.111   .     S
C637   H656    1.110   .     S
C638   H660    1.110   .     S
C638   N672    1.447   .     S
C638   H659    1.112   .     S
C638   H661    1.111   .     S
C639   H665    1.084   .     S
C639   C24     1.399   1_556 S
C640   H666    1.083   .     S
C640   C778    1.383   1_455 S
C641   C644    1.401   .     A
C641   H667    1.083   .     S
C641   C711    1.383   .     S
C642   C644    1.401   .     A
C642   H668    1.083   .     S
C642   C708    1.383   .     S
C643   H648    1.083   .     S
C643   C777    1.383   1_455 S
Cu645  Cu646   2.675   .     S
Cu645  O677    1.968   .     S
Cu645  O673    1.965   .     S
Cu645  O675    1.965   .     S
Cu645  O679    1.967   .     S
Cu645  N669    2.010   .     S
Cu646  O678    1.968   .     S
Cu646  O674    1.965   .     S
Cu646  O676    1.965   .     S
Cu646  O680    1.967   .     S
Cu646  N670    2.010   .     S
H653   N671    1.031   .     S
H657   N672    1.031   .     S
C681   C682    1.450   .     S
C681   O744    1.290   .     A
C681   O741    1.290   .     A
C682   C708    1.401   .     A
C682   C711    1.401   .     A
C683   N738    1.367   .     A
C683   H717    1.082   .     S
C683   C1094   1.416   1_545 S
C684   N737    1.367   .     A
C684   H718    1.082   .     S
C684   C889    1.416   .     S
C685   N738    1.367   .     A
C685   H719    1.082   .     S
C685   C1092   1.416   1_545 S
C686   N737    1.367   .     A
C686   H720    1.082   .     S
C686   C887    1.416   .     S
C687   O745    1.293   .     A
C687   C693    1.460   .     S
C687   O748    1.293   .     A
C688   O746    1.293   .     A
C688   C691    1.460   .     S
C688   O747    1.293   .     A
C689   C700    1.392   .     A
C689   C691    1.399   .     A
C689   H715    1.085   .     S
C690   H726    1.085   .     S
C690   C701    1.392   .     A
C690   C693    1.399   .     A
C691   C694    1.401   .     A
C692   O742    1.290   .     A
C692   C712    1.450   .     S
C692   O743    1.290   .     A
C693   C695    1.401   .     A
C694   H730    1.083   .     S
C694   C696    1.399   .     A
C695   H731    1.083   .     S
C695   C697    1.399   .     A
C696   C698    1.416   .     A
C696   C702    1.413   .     A
C697   C699    1.416   .     A
C697   C704    1.413   .     A
C698   C700    1.411   .     A
C698   C87     1.403   1_556 S
C699   C701    1.411   .     A
C700   C707    1.399   .     A
C701   C703    1.399   .     A
C702   N739    1.424   .     S
C702   C91     1.399   1_556 S
C703   H732    1.084   .     S
C704   N740    1.424   .     S
C705   H722    1.112   .     S
C705   N739    1.447   .     S
C705   H723    1.111   .     S
C705   H724    1.110   .     S
C706   H728    1.110   .     S
C706   N740    1.447   .     S
C706   H727    1.112   .     S
C706   H729    1.111   .     S
C707   H733    1.084   .     S
C707   C92     1.399   1_556 S
C708   H734    1.083   .     S
C709   C712    1.401   .     A
C709   H735    1.083   .     S
C709   C779    1.383   .     S
C710   C712    1.401   .     A
C710   H736    1.083   .     S
C710   C776    1.383   .     S
C711   H716    1.083   .     S
Cu713  Cu714   2.675   .     S
Cu713  O745    1.968   .     S
Cu713  O741    1.965   .     S
Cu713  O743    1.965   .     S
Cu713  O747    1.967   .     S
Cu713  N737    2.010   .     S
Cu714  O746    1.968   .     S
Cu714  O742    1.965   .     S
Cu714  O744    1.965   .     S
Cu714  O748    1.967   .     S
Cu714  N738    2.010   .     S
H721   N739    1.031   .     S
H725   N740    1.031   .     S
C749   C750    1.450   .     S
C749   O812    1.290   .     A
C749   O809    1.290   .     A
C750   C776    1.401   .     A
C750   C779    1.401   .     A
C751   N806    1.367   .     A
C751   H785    1.082   .     S
C751   C1162   1.416   1_545 S
C752   N805    1.367   .     A
C752   H786    1.082   .     S
C752   C957    1.416   .     S
C753   N806    1.367   .     A
C753   H787    1.082   .     S
C753   C1160   1.416   1_545 S
C754   N805    1.367   .     A
C754   H788    1.082   .     S
C754   C955    1.416   .     S
C755   O813    1.293   .     A
C755   C761    1.460   .     S
C755   O816    1.293   .     A
C756   O814    1.293   .     A
C756   C759    1.460   .     S
C756   O815    1.293   .     A
C757   C768    1.392   .     A
C757   C759    1.399   .     A
C757   H783    1.085   .     S
C758   H794    1.085   .     S
C758   C769    1.392   .     A
C758   C761    1.399   .     A
C759   C762    1.401   .     A
C760   O810    1.290   .     A
C760   C780    1.450   .     S
C760   O811    1.290   .     A
C761   C763    1.401   .     A
C762   H798    1.083   .     S
C762   C764    1.399   .     A
C763   H799    1.083   .     S
C763   C765    1.399   .     A
C764   C766    1.416   .     A
C764   C770    1.413   .     A
C765   C767    1.416   .     A
C765   C772    1.413   .     A
C766   C768    1.411   .     A
C766   C155    1.403   1_556 S
C767   C769    1.411   .     A
C768   C775    1.399   .     A
C769   C771    1.399   .     A
C770   N807    1.424   .     S
C770   C159    1.399   1_556 S
C771   H800    1.084   .     S
C772   N808    1.424   .     S
C773   H790    1.112   .     S
C773   N807    1.447   .     S
C773   H791    1.111   .     S
C773   H792    1.110   .     S
C774   H796    1.110   .     S
C774   N808    1.447   .     S
C774   H795    1.112   .     S
C774   H797    1.111   .     S
C775   H801    1.084   .     S
C775   C160    1.399   1_556 S
C776   H802    1.083   .     S
C777   C780    1.401   .     A
C777   H803    1.083   .     S
C777   C643    1.383   1_655 S
C778   C780    1.401   .     A
C778   H804    1.083   .     S
C778   C640    1.383   1_655 S
C779   H784    1.083   .     S
Cu781  Cu782   2.675   .     S
Cu781  O813    1.968   .     S
Cu781  O809    1.965   .     S
Cu781  O811    1.965   .     S
Cu781  O815    1.967   .     S
Cu781  N805    2.010   .     S
Cu782  O814    1.968   .     S
Cu782  O810    1.965   .     S
Cu782  O812    1.965   .     S
Cu782  O816    1.967   .     S
Cu782  N806    2.010   .     S
H789   N807    1.031   .     S
H793   N808    1.031   .     S
C817   C818    1.450   .     S
C817   O880    1.290   .     A
C817   O877    1.290   .     A
C818   C844    1.401   .     A
C818   C847    1.401   .     A
C819   N874    1.367   .     A
C819   H853    1.082   .     S
C820   N873    1.367   .     A
C820   H854    1.082   .     S
C820   C1025   1.416   .     S
C821   N874    1.367   .     A
C821   H855    1.082   .     S
C822   N873    1.367   .     A
C822   H856    1.082   .     S
C822   C1023   1.416   .     S
C823   O881    1.293   .     A
C823   C829    1.460   .     S
C823   O884    1.293   .     A
C824   O882    1.293   .     A
C824   C827    1.460   .     S
C824   O883    1.293   .     A
C825   C836    1.392   .     A
C825   C827    1.399   .     A
C825   H851    1.085   .     S
C826   H862    1.085   .     S
C826   C837    1.392   .     A
C826   C829    1.399   .     A
C827   C830    1.401   .     A
C828   O878    1.290   .     A
C828   C848    1.450   .     S
C828   O879    1.290   .     A
C829   C831    1.401   .     A
C830   H866    1.083   .     S
C830   C832    1.399   .     A
C831   H867    1.083   .     S
C831   C833    1.399   .     A
C832   C834    1.416   .     A
C832   C838    1.413   .     A
C833   C835    1.416   .     A
C833   C840    1.413   .     A
C834   C836    1.411   .     A
C834   C223    1.403   1_556 S
C835   C837    1.411   .     A
C836   C843    1.399   .     A
C837   C839    1.399   .     A
C838   N875    1.424   .     S
C838   C227    1.399   1_556 S
C839   H868    1.084   .     S
C840   N876    1.424   .     S
C841   H858    1.112   .     S
C841   N875    1.447   .     S
C841   H859    1.111   .     S
C841   H860    1.110   .     S
C842   H864    1.110   .     S
C842   N876    1.447   .     S
C842   H863    1.112   .     S
C842   H865    1.111   .     S
C843   H869    1.084   .     S
C843   C228    1.399   1_556 S
C844   H870    1.083   .     S
C844   C982    1.383   1_455 S
C845   C848    1.401   .     A
C845   H871    1.083   .     S
C845   C915    1.383   .     S
C846   C848    1.401   .     A
C846   H872    1.083   .     S
C846   C912    1.383   .     S
C847   H852    1.083   .     S
C847   C981    1.383   1_455 S
Cu849  Cu850   2.675   .     S
Cu849  O881    1.968   .     S
Cu849  O877    1.965   .     S
Cu849  O879    1.965   .     S
Cu849  O883    1.967   .     S
Cu849  N873    2.010   .     S
Cu850  O882    1.968   .     S
Cu850  O878    1.965   .     S
Cu850  O880    1.965   .     S
Cu850  O884    1.967   .     S
Cu850  N874    2.010   .     S
H857   N875    1.031   .     S
H861   N876    1.031   .     S
C885   C886    1.450   .     S
C885   O948    1.290   .     A
C885   O945    1.290   .     A
C886   C912    1.401   .     A
C886   C915    1.401   .     A
C887   N942    1.367   .     A
C887   H921    1.082   .     S
C888   N941    1.367   .     A
C888   H922    1.082   .     S
C888   C1093   1.416   .     S
C889   N942    1.367   .     A
C889   H923    1.082   .     S
C890   N941    1.367   .     A
C890   H924    1.082   .     S
C890   C1091   1.416   .     S
C891   O949    1.293   .     A
C891   C897    1.460   .     S
C891   O952    1.293   .     A
C892   O950    1.293   .     A
C892   C895    1.460   .     S
C892   O951    1.293   .     A
C893   C904    1.392   .     A
C893   C895    1.399   .     A
C893   H919    1.085   .     S
C894   H930    1.085   .     S
C894   C905    1.392   .     A
C894   C897    1.399   .     A
C895   C898    1.401   .     A
C896   O946    1.290   .     A
C896   C916    1.450   .     S
C896   O947    1.290   .     A
C897   C899    1.401   .     A
C898   H934    1.083   .     S
C898   C900    1.399   .     A
C899   H935    1.083   .     S
C899   C901    1.399   .     A
C900   C902    1.416   .     A
C900   C906    1.413   .     A
C901   C903    1.416   .     A
C901   C908    1.413   .     A
C902   C904    1.411   .     A
C902   C291    1.403   1_556 S
C903   C905    1.411   .     A
C904   C911    1.399   .     A
C905   C907    1.399   .     A
C906   N943    1.424   .     S
C906   C295    1.399   1_556 S
C907   H936    1.084   .     S
C908   N944    1.424   .     S
C909   H926    1.112   .     S
C909   N943    1.447   .     S
C909   H927    1.111   .     S
C909   H928    1.110   .     S
C910   H932    1.110   .     S
C910   N944    1.447   .     S
C910   H931    1.112   .     S
C910   H933    1.111   .     S
C911   H937    1.084   .     S
C911   C296    1.399   1_556 S
C912   H938    1.083   .     S
C913   C916    1.401   .     A
C913   H939    1.083   .     S
C913   C983    1.383   .     S
C914   C916    1.401   .     A
C914   H940    1.083   .     S
C914   C980    1.383   .     S
C915   H920    1.083   .     S
Cu917  Cu918   2.675   .     S
Cu917  O949    1.968   .     S
Cu917  O945    1.965   .     S
Cu917  O947    1.965   .     S
Cu917  O951    1.967   .     S
Cu917  N941    2.010   .     S
Cu918  O950    1.968   .     S
Cu918  O946    1.965   .     S
Cu918  O948    1.965   .     S
Cu918  O952    1.967   .     S
Cu918  N942    2.010   .     S
H925   N943    1.031   .     S
H929   N944    1.031   .     S
C953   C954    1.450   .     S
C953   O1016   1.290   .     A
C953   O1013   1.290   .     A
C954   C980    1.401   .     A
C954   C983    1.401   .     A
C955   N1010   1.367   .     A
C955   H989    1.082   .     S
C956   N1009   1.367   .     A
C956   H990    1.082   .     S
C956   C1161   1.416   .     S
C957   N1010   1.367   .     A
C957   H991    1.082   .     S
C958   N1009   1.367   .     A
C958   H992    1.082   .     S
C958   C1159   1.416   .     S
C959   O1017   1.293   .     A
C959   C965    1.460   .     S
C959   O1020   1.293   .     A
C960   O1018   1.293   .     A
C960   C963    1.460   .     S
C960   O1019   1.293   .     A
C961   C972    1.392   .     A
C961   C963    1.399   .     A
C961   H987    1.085   .     S
C962   H998    1.085   .     S
C962   C973    1.392   .     A
C962   C965    1.399   .     A
C963   C966    1.401   .     A
C964   O1014   1.290   .     A
C964   C984    1.450   .     S
C964   O1015   1.290   .     A
C965   C967    1.401   .     A
C966   H1002   1.083   .     S
C966   C968    1.399   .     A
C967   H1003   1.083   .     S
C967   C969    1.399   .     A
C968   C970    1.416   .     A
C968   C974    1.413   .     A
C969   C971    1.416   .     A
C969   C976    1.413   .     A
C970   C972    1.411   .     A
C970   C359    1.403   1_556 S
C971   C973    1.411   .     A
C972   C979    1.399   .     A
C973   C975    1.399   .     A
C974   N1011   1.424   .     S
C974   C363    1.399   1_556 S
C975   H1004   1.084   .     S
C976   N1012   1.424   .     S
C977   H994    1.112   .     S
C977   N1011   1.447   .     S
C977   H995    1.111   .     S
C977   H996    1.110   .     S
C978   H1000   1.110   .     S
C978   N1012   1.447   .     S
C978   H999    1.112   .     S
C978   H1001   1.111   .     S
C979   H1005   1.084   .     S
C979   C364    1.399   1_556 S
C980   H1006   1.083   .     S
C981   C984    1.401   .     A
C981   H1007   1.083   .     S
C981   C847    1.383   1_655 S
C982   C984    1.401   .     A
C982   H1008   1.083   .     S
C982   C844    1.383   1_655 S
C983   H988    1.083   .     S
Cu985  Cu986   2.675   .     S
Cu985  O1017   1.968   .     S
Cu985  O1013   1.965   .     S
Cu985  O1015   1.965   .     S
Cu985  O1019   1.967   .     S
Cu985  N1009   2.010   .     S
Cu986  O1018   1.968   .     S
Cu986  O1014   1.965   .     S
Cu986  O1016   1.965   .     S
Cu986  O1020   1.967   .     S
Cu986  N1010   2.010   .     S
H993   N1011   1.031   .     S
H997   N1012   1.031   .     S
C1021  C1022   1.450   .     S
C1021  O1084   1.290   .     A
C1021  O1081   1.290   .     A
C1022  C1048   1.401   .     A
C1022  C1051   1.401   .     A
C1023  N1078   1.367   .     A
C1023  H1057   1.082   .     S
C1024  N1077   1.367   .     A
C1024  H1058   1.082   .     S
C1024  C617    1.416   1_565 S
C1025  N1078   1.367   .     A
C1025  H1059   1.082   .     S
C1026  N1077   1.367   .     A
C1026  H1060   1.082   .     S
C1026  C615    1.416   1_565 S
C1027  O1085   1.293   .     A
C1027  C1033   1.460   .     S
C1027  O1088   1.293   .     A
C1028  O1086   1.293   .     A
C1028  C1031   1.460   .     S
C1028  O1087   1.293   .     A
C1029  C1040   1.392   .     A
C1029  C1031   1.399   .     A
C1029  H1055   1.085   .     S
C1030  H1066   1.085   .     S
C1030  C1041   1.392   .     A
C1030  C1033   1.399   .     A
C1031  C1034   1.401   .     A
C1032  O1082   1.290   .     A
C1032  C1052   1.450   .     S
C1032  O1083   1.290   .     A
C1033  C1035   1.401   .     A
C1034  H1070   1.083   .     S
C1034  C1036   1.399   .     A
C1035  H1071   1.083   .     S
C1035  C1037   1.399   .     A
C1036  C1038   1.416   .     A
C1036  C1042   1.413   .     A
C1037  C1039   1.416   .     A
C1037  C1044   1.413   .     A
C1038  C1040   1.411   .     A
C1038  C427    1.403   1_556 S
C1039  C1041   1.411   .     A
C1040  C1047   1.399   .     A
C1041  C1043   1.399   .     A
C1042  N1079   1.424   .     S
C1042  C431    1.399   1_556 S
C1043  H1072   1.084   .     S
C1044  N1080   1.424   .     S
C1045  H1062   1.112   .     S
C1045  N1079   1.447   .     S
C1045  H1063   1.111   .     S
C1045  H1064   1.110   .     S
C1046  H1068   1.110   .     S
C1046  N1080   1.447   .     S
C1046  H1067   1.112   .     S
C1046  H1069   1.111   .     S
C1047  H1073   1.084   .     S
C1047  C432    1.399   1_556 S
C1048  H1074   1.083   .     S
C1048  C1186   1.383   1_455 S
C1049  C1052   1.401   .     A
C1049  H1075   1.083   .     S
C1049  C1119   1.383   .     S
C1050  C1052   1.401   .     A
C1050  H1076   1.083   .     S
C1050  C1116   1.383   .     S
C1051  H1056   1.083   .     S
C1051  C1185   1.383   1_455 S
Cu1053 Cu1054  2.675   .     S
Cu1053 O1085   1.968   .     S
Cu1053 O1081   1.965   .     S
Cu1053 O1083   1.965   .     S
Cu1053 O1087   1.967   .     S
Cu1053 N1077   2.010   .     S
Cu1054 O1086   1.968   .     S
Cu1054 O1082   1.965   .     S
Cu1054 O1084   1.965   .     S
Cu1054 O1088   1.967   .     S
Cu1054 N1078   2.010   .     S
H1061  N1079   1.031   .     S
H1065  N1080   1.031   .     S
C1089  C1090   1.450   .     S
C1089  O1152   1.290   .     A
C1089  O1149   1.290   .     A
C1090  C1116   1.401   .     A
C1090  C1119   1.401   .     A
C1091  N1146   1.367   .     A
C1091  H1125   1.082   .     S
C1092  N1145   1.367   .     A
C1092  H1126   1.082   .     S
C1092  C685    1.416   1_565 S
C1093  N1146   1.367   .     A
C1093  H1127   1.082   .     S
C1094  N1145   1.367   .     A
C1094  H1128   1.082   .     S
C1094  C683    1.416   1_565 S
C1095  O1153   1.293   .     A
C1095  C1101   1.460   .     S
C1095  O1156   1.293   .     A
C1096  O1154   1.293   .     A
C1096  C1099   1.460   .     S
C1096  O1155   1.293   .     A
C1097  C1108   1.392   .     A
C1097  C1099   1.399   .     A
C1097  H1123   1.085   .     S
C1098  H1134   1.085   .     S
C1098  C1109   1.392   .     A
C1098  C1101   1.399   .     A
C1099  C1102   1.401   .     A
C1100  O1150   1.290   .     A
C1100  C1120   1.450   .     S
C1100  O1151   1.290   .     A
C1101  C1103   1.401   .     A
C1102  H1138   1.083   .     S
C1102  C1104   1.399   .     A
C1103  H1139   1.083   .     S
C1103  C1105   1.399   .     A
C1104  C1106   1.416   .     A
C1104  C1110   1.413   .     A
C1105  C1107   1.416   .     A
C1105  C1112   1.413   .     A
C1106  C1108   1.411   .     A
C1106  C495    1.403   1_556 S
C1107  C1109   1.411   .     A
C1108  C1115   1.399   .     A
C1109  C1111   1.399   .     A
C1110  N1147   1.424   .     S
C1110  C499    1.399   1_556 S
C1111  H1140   1.084   .     S
C1112  N1148   1.424   .     S
C1113  H1130   1.112   .     S
C1113  N1147   1.447   .     S
C1113  H1131   1.111   .     S
C1113  H1132   1.110   .     S
C1114  H1136   1.110   .     S
C1114  N1148   1.447   .     S
C1114  H1135   1.112   .     S
C1114  H1137   1.111   .     S
C1115  H1141   1.084   .     S
C1115  C500    1.399   1_556 S
C1116  H1142   1.083   .     S
C1117  C1120   1.401   .     A
C1117  H1143   1.083   .     S
C1117  C1187   1.383   .     S
C1118  C1120   1.401   .     A
C1118  H1144   1.083   .     S
C1118  C1184   1.383   .     S
C1119  H1124   1.083   .     S
Cu1121 Cu1122  2.675   .     S
Cu1121 O1153   1.968   .     S
Cu1121 O1149   1.965   .     S
Cu1121 O1151   1.965   .     S
Cu1121 O1155   1.967   .     S
Cu1121 N1145   2.010   .     S
Cu1122 O1154   1.968   .     S
Cu1122 O1150   1.965   .     S
Cu1122 O1152   1.965   .     S
Cu1122 O1156   1.967   .     S
Cu1122 N1146   2.010   .     S
H1129  N1147   1.031   .     S
H1133  N1148   1.031   .     S
C1157  C1158   1.450   .     S
C1157  O1220   1.290   .     A
C1157  O1217   1.290   .     A
C1158  C1184   1.401   .     A
C1158  C1187   1.401   .     A
C1159  N1214   1.367   .     A
C1159  H1193   1.082   .     S
C1160  N1213   1.367   .     A
C1160  H1194   1.082   .     S
C1160  C753    1.416   1_565 S
C1161  N1214   1.367   .     A
C1161  H1195   1.082   .     S
C1162  N1213   1.367   .     A
C1162  H1196   1.082   .     S
C1162  C751    1.416   1_565 S
C1163  O1221   1.293   .     A
C1163  C1169   1.460   .     S
C1163  O1224   1.293   .     A
C1164  O1222   1.293   .     A
C1164  C1167   1.460   .     S
C1164  O1223   1.293   .     A
C1165  C1176   1.392   .     A
C1165  C1167   1.399   .     A
C1165  H1191   1.085   .     S
C1166  H1202   1.085   .     S
C1166  C1177   1.392   .     A
C1166  C1169   1.399   .     A
C1167  C1170   1.401   .     A
C1168  O1218   1.290   .     A
C1168  C1188   1.450   .     S
C1168  O1219   1.290   .     A
C1169  C1171   1.401   .     A
C1170  H1206   1.083   .     S
C1170  C1172   1.399   .     A
C1171  H1207   1.083   .     S
C1171  C1173   1.399   .     A
C1172  C1174   1.416   .     A
C1172  C1178   1.413   .     A
C1173  C1175   1.416   .     A
C1173  C1180   1.413   .     A
C1174  C1176   1.411   .     A
C1174  C563    1.403   1_556 S
C1175  C1177   1.411   .     A
C1176  C1183   1.399   .     A
C1177  C1179   1.399   .     A
C1178  N1215   1.424   .     S
C1178  C567    1.399   1_556 S
C1179  H1208   1.084   .     S
C1180  N1216   1.424   .     S
C1181  H1198   1.112   .     S
C1181  N1215   1.447   .     S
C1181  H1199   1.111   .     S
C1181  H1200   1.110   .     S
C1182  H1204   1.110   .     S
C1182  N1216   1.447   .     S
C1182  H1203   1.112   .     S
C1182  H1205   1.111   .     S
C1183  H1209   1.084   .     S
C1183  C568    1.399   1_556 S
C1184  H1210   1.083   .     S
C1185  C1188   1.401   .     A
C1185  H1211   1.083   .     S
C1185  C1051   1.383   1_655 S
C1186  C1188   1.401   .     A
C1186  H1212   1.083   .     S
C1186  C1048   1.383   1_655 S
C1187  H1192   1.083   .     S
Cu1189 Cu1190  2.675   .     S
Cu1189 O1221   1.968   .     S
Cu1189 O1217   1.965   .     S
Cu1189 O1219   1.965   .     S
Cu1189 O1223   1.967   .     S
Cu1189 N1213   2.010   .     S
Cu1190 O1222   1.968   .     S
Cu1190 O1218   1.965   .     S
Cu1190 O1220   1.965   .     S
Cu1190 O1224   1.967   .     S
Cu1190 N1214   2.010   .     S
H1197  N1215   1.031   .     S
H1201  N1216   1.031   .     S
