data_str_m2_o10_o17_pcu_sym.110
_audit_creation_date              2020-01-03
_audit_creation_method            'Materials Studio'
_symmetry_space_group_name_H-M    'P1'
_symmetry_Int_Tables_number       1
_symmetry_cell_setting            triclinic
loop_
_symmetry_equiv_pos_as_xyz
  x,y,z
_cell_length_a                    30.0990
_cell_length_b                    26.1221
_cell_length_c                    22.5846
_cell_angle_alpha                 103.3426
_cell_angle_beta                  94.7913
_cell_angle_gamma                 93.3028
loop_
_atom_site_label
_atom_site_type_symbol
_atom_site_fract_x
_atom_site_fract_y
_atom_site_fract_z
_atom_site_U_iso_or_equiv
_atom_site_adp_type
_atom_site_occupancy
O1     O     0.25326   0.09538   0.20659   0.00000  Uiso   1.00
O2     O     0.24675   0.23796   0.12674   0.00000  Uiso   1.00
O3     O     0.24480   0.08559   0.10279   0.00000  Uiso   1.00
O4     O     0.25520   0.24774   0.23055   0.00000  Uiso   1.00
C5     C     0.24799   0.06673   0.15122   0.00000  Uiso   1.00
C6     C     0.25199   0.26660   0.18212   0.00000  Uiso   1.00
O7     O     0.18936   0.17155   0.21857   0.00000  Uiso   1.00
O8     O     0.31065   0.16179   0.11476   0.00000  Uiso   1.00
O9     O     0.18090   0.16176   0.11477   0.00000  Uiso   1.00
O10    O     0.31910   0.17157   0.21857   0.00000  Uiso   1.00
C11    C     0.16460   0.16615   0.16706   0.00000  Uiso   1.00
C12    C     0.33539   0.16718   0.16626   0.00000  Uiso   1.00
Cu13   Cu    0.25501   0.17246   0.22813   0.00000  Uiso   1.00
Cu14   Cu    0.24500   0.16087   0.10521   0.00000  Uiso   1.00
C15    C     0.41130   0.20912   0.20346   0.00000  Uiso   1.00
C16    C     0.08871   0.12428   0.12956   0.00000  Uiso   1.00
C17    C     0.38369   0.16740   0.16525   0.00000  Uiso   1.00
C18    C     0.11629   0.16591   0.16802   0.00000  Uiso   1.00
C19    C     0.40195   0.12626   0.12534   0.00000  Uiso   1.00
C20    C     0.09797   0.20696   0.20798   0.00000  Uiso   1.00
C21    C     0.44872   0.12256   0.13030   0.00000  Uiso   1.00
C22    C     0.05123   0.21073   0.20270   0.00000  Uiso   1.00
C23    C     0.47655   0.16698   0.16527   0.00000  Uiso   1.00
C24    C     0.02340   0.16634   0.16767   0.00000  Uiso   1.00
C25    C     0.45747   0.21230   0.19747   0.00000  Uiso   1.00
C26    C     0.04251   0.12106   0.13543   0.00000  Uiso   1.00
C27    C     0.46836   0.07529   0.10461   0.00000  Uiso   1.00
C28    C     0.03162   0.25809   0.22811   0.00000  Uiso   1.00
C29    C     0.01509   0.07398   0.10983   0.00000  Uiso   1.00
C30    C     0.48489   0.25942   0.22284   0.00000  Uiso   1.00
C31    C     0.24098   0.01092   0.14442   0.00000  Uiso   1.00
C32    C     0.25898   0.32241   0.18893   0.00000  Uiso   1.00
N33    N     0.23745   0.15214   0.01284   0.00000  Uiso   1.00
N34    N     0.26256   0.18119   0.32049   0.00000  Uiso   1.00
Cl35   Cl    0.38795   0.25490   0.26154   0.00000  Uiso   1.00
Cl36   Cl    0.11209   0.07868   0.07135   0.00000  Uiso   1.00
N37    N     0.37283   0.08971   0.07916   0.00000  Uiso   1.00
O38    O     0.34293   0.05834   0.09429   0.00000  Uiso   1.00
O39    O     0.37532   0.08913   0.02172   0.00000  Uiso   1.00
N40    N     0.12695   0.24328   0.25460   0.00000  Uiso   1.00
O41    O     0.15728   0.27447   0.24002   0.00000  Uiso   1.00
O42    O     0.12326   0.24465   0.31193   0.00000  Uiso   1.00
Cl43   Cl    0.43586   0.01462   0.07380   0.00000  Uiso   1.00
Cl44   Cl    0.06419   0.31879   0.25837   0.00000  Uiso   1.00
N45    N     0.03433   0.02374   0.09867   0.00000  Uiso   1.00
O46    O     0.02370   0.32150   0.04801   0.00000  Uiso   1.00
O47    O     0.06340   0.01361   0.13947   0.00000  Uiso   1.00
N48    N     0.46565   0.30967   0.23364   0.00000  Uiso   1.00
O49    O     0.47637   0.01218   0.28405   0.00000  Uiso   1.00
O50    O     0.43652   0.31955   0.19273   0.00000  Uiso   1.00
N51    N     0.20844   0.31558   0.09583   0.00000  Uiso   1.00
O52    O     0.21173   0.31905   0.03980   0.00000  Uiso   1.00
O53    O     0.17225   0.29254   0.10883   0.00000  Uiso   1.00
N54    N     0.29149   0.01776   0.23755   0.00000  Uiso   1.00
O55    O     0.28813   0.01433   0.29358   0.00000  Uiso   1.00
O56    O     0.32772   0.04075   0.22458   0.00000  Uiso   1.00
Cl57   Cl    0.19720   0.10612   0.30220   0.00000  Uiso   1.00
Cl58   Cl    0.30281   0.22721   0.03112   0.00000  Uiso   1.00
O59    O     0.75326   0.09538   0.20659   0.00000  Uiso   1.00
O60    O     0.74675   0.23796   0.12674   0.00000  Uiso   1.00
O61    O     0.74480   0.08559   0.10279   0.00000  Uiso   1.00
O62    O     0.75520   0.24774   0.23055   0.00000  Uiso   1.00
C63    C     0.74799   0.06673   0.15122   0.00000  Uiso   1.00
C64    C     0.75199   0.26660   0.18212   0.00000  Uiso   1.00
O65    O     0.68936   0.17155   0.21857   0.00000  Uiso   1.00
O66    O     0.81065   0.16179   0.11476   0.00000  Uiso   1.00
O67    O     0.68090   0.16176   0.11477   0.00000  Uiso   1.00
O68    O     0.81910   0.17157   0.21857   0.00000  Uiso   1.00
C69    C     0.66460   0.16615   0.16706   0.00000  Uiso   1.00
C70    C     0.83539   0.16718   0.16626   0.00000  Uiso   1.00
Cu71   Cu    0.75501   0.17246   0.22813   0.00000  Uiso   1.00
Cu72   Cu    0.74500   0.16087   0.10521   0.00000  Uiso   1.00
C73    C     0.91130   0.20912   0.20346   0.00000  Uiso   1.00
C74    C     0.58871   0.12428   0.12956   0.00000  Uiso   1.00
C75    C     0.88369   0.16740   0.16525   0.00000  Uiso   1.00
C76    C     0.61629   0.16591   0.16802   0.00000  Uiso   1.00
C77    C     0.90195   0.12626   0.12534   0.00000  Uiso   1.00
C78    C     0.59797   0.20696   0.20798   0.00000  Uiso   1.00
C79    C     0.94872   0.12256   0.13030   0.00000  Uiso   1.00
C80    C     0.55123   0.21073   0.20270   0.00000  Uiso   1.00
C81    C     0.97655   0.16698   0.16527   0.00000  Uiso   1.00
C82    C     0.52340   0.16634   0.16767   0.00000  Uiso   1.00
C83    C     0.95747   0.21230   0.19747   0.00000  Uiso   1.00
C84    C     0.54251   0.12106   0.13543   0.00000  Uiso   1.00
C85    C     0.96836   0.07529   0.10461   0.00000  Uiso   1.00
C86    C     0.53162   0.25809   0.22811   0.00000  Uiso   1.00
C87    C     0.51509   0.07398   0.10983   0.00000  Uiso   1.00
C88    C     0.98489   0.25942   0.22284   0.00000  Uiso   1.00
C89    C     0.74098   0.01092   0.14442   0.00000  Uiso   1.00
C90    C     0.75898   0.32241   0.18893   0.00000  Uiso   1.00
N91    N     0.73745   0.15214   0.01284   0.00000  Uiso   1.00
N92    N     0.76256   0.18119   0.32049   0.00000  Uiso   1.00
Cl93   Cl    0.88795   0.25490   0.26154   0.00000  Uiso   1.00
Cl94   Cl    0.61209   0.07868   0.07135   0.00000  Uiso   1.00
N95    N     0.87283   0.08971   0.07916   0.00000  Uiso   1.00
O96    O     0.84293   0.05834   0.09429   0.00000  Uiso   1.00
O97    O     0.87532   0.08913   0.02172   0.00000  Uiso   1.00
N98    N     0.62695   0.24328   0.25460   0.00000  Uiso   1.00
O99    O     0.65728   0.27447   0.24002   0.00000  Uiso   1.00
O100   O     0.62326   0.24465   0.31193   0.00000  Uiso   1.00
Cl101  Cl    0.93586   0.01462   0.07380   0.00000  Uiso   1.00
Cl102  Cl    0.56419   0.31879   0.25837   0.00000  Uiso   1.00
N103   N     0.53433   0.02374   0.09867   0.00000  Uiso   1.00
O104   O     0.52370   0.32150   0.04801   0.00000  Uiso   1.00
O105   O     0.56340   0.01361   0.13947   0.00000  Uiso   1.00
N106   N     0.96565   0.30967   0.23364   0.00000  Uiso   1.00
O107   O     0.97637   0.01218   0.28405   0.00000  Uiso   1.00
O108   O     0.93652   0.31955   0.19273   0.00000  Uiso   1.00
N109   N     0.70844   0.31558   0.09583   0.00000  Uiso   1.00
O110   O     0.71173   0.31905   0.03980   0.00000  Uiso   1.00
O111   O     0.67225   0.29254   0.10883   0.00000  Uiso   1.00
N112   N     0.79149   0.01776   0.23755   0.00000  Uiso   1.00
O113   O     0.78813   0.01433   0.29358   0.00000  Uiso   1.00
O114   O     0.82772   0.04075   0.22458   0.00000  Uiso   1.00
Cl115  Cl    0.69720   0.10612   0.30220   0.00000  Uiso   1.00
Cl116  Cl    0.80281   0.22721   0.03112   0.00000  Uiso   1.00
O117   O     0.25326   0.42871   0.20659   0.00000  Uiso   1.00
O118   O     0.24675   0.57129   0.12674   0.00000  Uiso   1.00
O119   O     0.24480   0.41892   0.10279   0.00000  Uiso   1.00
O120   O     0.25520   0.58108   0.23055   0.00000  Uiso   1.00
C121   C     0.24799   0.40006   0.15122   0.00000  Uiso   1.00
C122   C     0.25199   0.59994   0.18212   0.00000  Uiso   1.00
O123   O     0.18936   0.50488   0.21857   0.00000  Uiso   1.00
O124   O     0.31065   0.49512   0.11476   0.00000  Uiso   1.00
O125   O     0.18090   0.49510   0.11477   0.00000  Uiso   1.00
O126   O     0.31910   0.50490   0.21857   0.00000  Uiso   1.00
C127   C     0.16460   0.49948   0.16706   0.00000  Uiso   1.00
C128   C     0.33539   0.50052   0.16626   0.00000  Uiso   1.00
Cu129  Cu    0.25501   0.50579   0.22813   0.00000  Uiso   1.00
Cu130  Cu    0.24500   0.49421   0.10521   0.00000  Uiso   1.00
C131   C     0.41130   0.54245   0.20346   0.00000  Uiso   1.00
C132   C     0.08871   0.45762   0.12956   0.00000  Uiso   1.00
C133   C     0.38369   0.50073   0.16525   0.00000  Uiso   1.00
C134   C     0.11629   0.49924   0.16802   0.00000  Uiso   1.00
C135   C     0.40195   0.45960   0.12534   0.00000  Uiso   1.00
C136   C     0.09797   0.54029   0.20798   0.00000  Uiso   1.00
C137   C     0.44872   0.45590   0.13030   0.00000  Uiso   1.00
C138   C     0.05123   0.54407   0.20270   0.00000  Uiso   1.00
C139   C     0.47655   0.50031   0.16527   0.00000  Uiso   1.00
C140   C     0.02340   0.49968   0.16767   0.00000  Uiso   1.00
C141   C     0.45747   0.54564   0.19747   0.00000  Uiso   1.00
C142   C     0.04251   0.45440   0.13543   0.00000  Uiso   1.00
C143   C     0.46836   0.40863   0.10461   0.00000  Uiso   1.00
C144   C     0.03162   0.59142   0.22811   0.00000  Uiso   1.00
C145   C     0.01509   0.40732   0.10983   0.00000  Uiso   1.00
C146   C     0.48489   0.59276   0.22284   0.00000  Uiso   1.00
C147   C     0.24098   0.34425   0.14442   0.00000  Uiso   1.00
C148   C     0.25898   0.65574   0.18893   0.00000  Uiso   1.00
N149   N     0.23745   0.48547   0.01284   0.00000  Uiso   1.00
N150   N     0.26256   0.51453   0.32049   0.00000  Uiso   1.00
Cl151  Cl    0.38795   0.58823   0.26154   0.00000  Uiso   1.00
Cl152  Cl    0.11209   0.41202   0.07135   0.00000  Uiso   1.00
N153   N     0.37283   0.42305   0.07916   0.00000  Uiso   1.00
O154   O     0.34293   0.39167   0.09429   0.00000  Uiso   1.00
O155   O     0.37532   0.42247   0.02172   0.00000  Uiso   1.00
N156   N     0.12695   0.57662   0.25460   0.00000  Uiso   1.00
O157   O     0.15728   0.60781   0.24002   0.00000  Uiso   1.00
O158   O     0.12326   0.57798   0.31193   0.00000  Uiso   1.00
Cl159  Cl    0.43586   0.34795   0.07380   0.00000  Uiso   1.00
Cl160  Cl    0.06419   0.65213   0.25837   0.00000  Uiso   1.00
N161   N     0.03433   0.35707   0.09867   0.00000  Uiso   1.00
O162   O     0.02370   0.65484   0.04801   0.00000  Uiso   1.00
O163   O     0.06340   0.34694   0.13947   0.00000  Uiso   1.00
N164   N     0.46565   0.64301   0.23364   0.00000  Uiso   1.00
O165   O     0.47637   0.34551   0.28405   0.00000  Uiso   1.00
O166   O     0.43652   0.65288   0.19273   0.00000  Uiso   1.00
N167   N     0.20844   0.64891   0.09583   0.00000  Uiso   1.00
O168   O     0.21173   0.65238   0.03980   0.00000  Uiso   1.00
O169   O     0.17225   0.62587   0.10883   0.00000  Uiso   1.00
N170   N     0.29149   0.35109   0.23755   0.00000  Uiso   1.00
O171   O     0.28813   0.34766   0.29358   0.00000  Uiso   1.00
O172   O     0.32772   0.37408   0.22458   0.00000  Uiso   1.00
Cl173  Cl    0.19720   0.43945   0.30220   0.00000  Uiso   1.00
Cl174  Cl    0.30281   0.56055   0.03112   0.00000  Uiso   1.00
O175   O     0.75326   0.42871   0.20659   0.00000  Uiso   1.00
O176   O     0.74675   0.57129   0.12674   0.00000  Uiso   1.00
O177   O     0.74480   0.41892   0.10279   0.00000  Uiso   1.00
O178   O     0.75520   0.58108   0.23055   0.00000  Uiso   1.00
C179   C     0.74799   0.40006   0.15122   0.00000  Uiso   1.00
C180   C     0.75199   0.59994   0.18212   0.00000  Uiso   1.00
O181   O     0.68936   0.50488   0.21857   0.00000  Uiso   1.00
O182   O     0.81065   0.49512   0.11476   0.00000  Uiso   1.00
O183   O     0.68090   0.49510   0.11477   0.00000  Uiso   1.00
O184   O     0.81910   0.50490   0.21857   0.00000  Uiso   1.00
C185   C     0.66460   0.49948   0.16706   0.00000  Uiso   1.00
C186   C     0.83539   0.50052   0.16626   0.00000  Uiso   1.00
Cu187  Cu    0.75501   0.50579   0.22813   0.00000  Uiso   1.00
Cu188  Cu    0.74500   0.49421   0.10521   0.00000  Uiso   1.00
C189   C     0.91130   0.54245   0.20346   0.00000  Uiso   1.00
C190   C     0.58871   0.45762   0.12956   0.00000  Uiso   1.00
C191   C     0.88369   0.50073   0.16525   0.00000  Uiso   1.00
C192   C     0.61629   0.49924   0.16802   0.00000  Uiso   1.00
C193   C     0.90195   0.45960   0.12534   0.00000  Uiso   1.00
C194   C     0.59797   0.54029   0.20798   0.00000  Uiso   1.00
C195   C     0.94872   0.45590   0.13030   0.00000  Uiso   1.00
C196   C     0.55123   0.54407   0.20270   0.00000  Uiso   1.00
C197   C     0.97655   0.50031   0.16527   0.00000  Uiso   1.00
C198   C     0.52340   0.49968   0.16767   0.00000  Uiso   1.00
C199   C     0.95747   0.54564   0.19747   0.00000  Uiso   1.00
C200   C     0.54251   0.45440   0.13543   0.00000  Uiso   1.00
C201   C     0.96836   0.40863   0.10461   0.00000  Uiso   1.00
C202   C     0.53162   0.59142   0.22811   0.00000  Uiso   1.00
C203   C     0.51509   0.40732   0.10983   0.00000  Uiso   1.00
C204   C     0.98489   0.59276   0.22284   0.00000  Uiso   1.00
C205   C     0.74098   0.34425   0.14442   0.00000  Uiso   1.00
C206   C     0.75898   0.65574   0.18893   0.00000  Uiso   1.00
N207   N     0.73745   0.48547   0.01284   0.00000  Uiso   1.00
N208   N     0.76256   0.51453   0.32049   0.00000  Uiso   1.00
Cl209  Cl    0.88795   0.58823   0.26154   0.00000  Uiso   1.00
Cl210  Cl    0.61209   0.41202   0.07135   0.00000  Uiso   1.00
N211   N     0.87283   0.42305   0.07916   0.00000  Uiso   1.00
O212   O     0.84293   0.39167   0.09429   0.00000  Uiso   1.00
O213   O     0.87532   0.42247   0.02172   0.00000  Uiso   1.00
N214   N     0.62695   0.57662   0.25460   0.00000  Uiso   1.00
O215   O     0.65728   0.60781   0.24002   0.00000  Uiso   1.00
O216   O     0.62326   0.57798   0.31193   0.00000  Uiso   1.00
Cl217  Cl    0.93586   0.34795   0.07380   0.00000  Uiso   1.00
Cl218  Cl    0.56419   0.65213   0.25837   0.00000  Uiso   1.00
N219   N     0.53433   0.35707   0.09867   0.00000  Uiso   1.00
O220   O     0.52370   0.65484   0.04801   0.00000  Uiso   1.00
O221   O     0.56340   0.34694   0.13947   0.00000  Uiso   1.00
N222   N     0.96565   0.64301   0.23364   0.00000  Uiso   1.00
O223   O     0.97637   0.34551   0.28405   0.00000  Uiso   1.00
O224   O     0.93652   0.65288   0.19273   0.00000  Uiso   1.00
N225   N     0.70844   0.64891   0.09583   0.00000  Uiso   1.00
O226   O     0.71173   0.65238   0.03980   0.00000  Uiso   1.00
O227   O     0.67225   0.62587   0.10883   0.00000  Uiso   1.00
N228   N     0.79149   0.35109   0.23755   0.00000  Uiso   1.00
O229   O     0.78813   0.34766   0.29358   0.00000  Uiso   1.00
O230   O     0.82772   0.37408   0.22458   0.00000  Uiso   1.00
Cl231  Cl    0.69720   0.43945   0.30220   0.00000  Uiso   1.00
Cl232  Cl    0.80281   0.56055   0.03112   0.00000  Uiso   1.00
O233   O     0.25326   0.76204   0.20659   0.00000  Uiso   1.00
O234   O     0.24675   0.90462   0.12674   0.00000  Uiso   1.00
O235   O     0.24480   0.75226   0.10279   0.00000  Uiso   1.00
O236   O     0.25520   0.91441   0.23055   0.00000  Uiso   1.00
C237   C     0.24799   0.73339   0.15122   0.00000  Uiso   1.00
C238   C     0.25199   0.93327   0.18212   0.00000  Uiso   1.00
O239   O     0.18936   0.83821   0.21857   0.00000  Uiso   1.00
O240   O     0.31065   0.82845   0.11476   0.00000  Uiso   1.00
O241   O     0.18090   0.82843   0.11477   0.00000  Uiso   1.00
O242   O     0.31910   0.83824   0.21857   0.00000  Uiso   1.00
C243   C     0.16460   0.83281   0.16706   0.00000  Uiso   1.00
C244   C     0.33539   0.83385   0.16626   0.00000  Uiso   1.00
Cu245  Cu    0.25501   0.83913   0.22813   0.00000  Uiso   1.00
Cu246  Cu    0.24500   0.82754   0.10521   0.00000  Uiso   1.00
C247   C     0.41130   0.87578   0.20346   0.00000  Uiso   1.00
C248   C     0.08871   0.79095   0.12956   0.00000  Uiso   1.00
C249   C     0.38369   0.83406   0.16525   0.00000  Uiso   1.00
C250   C     0.11629   0.83257   0.16802   0.00000  Uiso   1.00
C251   C     0.40195   0.79293   0.12534   0.00000  Uiso   1.00
C252   C     0.09797   0.87363   0.20798   0.00000  Uiso   1.00
C253   C     0.44872   0.78923   0.13030   0.00000  Uiso   1.00
C254   C     0.05123   0.87740   0.20270   0.00000  Uiso   1.00
C255   C     0.47655   0.83365   0.16527   0.00000  Uiso   1.00
C256   C     0.02340   0.83301   0.16767   0.00000  Uiso   1.00
C257   C     0.45747   0.87897   0.19747   0.00000  Uiso   1.00
C258   C     0.04251   0.78773   0.13543   0.00000  Uiso   1.00
C259   C     0.46836   0.74196   0.10461   0.00000  Uiso   1.00
C260   C     0.03162   0.92475   0.22811   0.00000  Uiso   1.00
C261   C     0.01509   0.74065   0.10983   0.00000  Uiso   1.00
C262   C     0.48489   0.92609   0.22284   0.00000  Uiso   1.00
C263   C     0.24098   0.67759   0.14442   0.00000  Uiso   1.00
C264   C     0.25898   0.98908   0.18893   0.00000  Uiso   1.00
N265   N     0.23745   0.81881   0.01284   0.00000  Uiso   1.00
N266   N     0.26256   0.84786   0.32049   0.00000  Uiso   1.00
Cl267  Cl    0.38795   0.92156   0.26154   0.00000  Uiso   1.00
Cl268  Cl    0.11209   0.74535   0.07135   0.00000  Uiso   1.00
N269   N     0.37283   0.75638   0.07916   0.00000  Uiso   1.00
O270   O     0.34293   0.72500   0.09429   0.00000  Uiso   1.00
O271   O     0.37532   0.75580   0.02172   0.00000  Uiso   1.00
N272   N     0.12695   0.90995   0.25460   0.00000  Uiso   1.00
O273   O     0.15728   0.94114   0.24002   0.00000  Uiso   1.00
O274   O     0.12326   0.91131   0.31193   0.00000  Uiso   1.00
Cl275  Cl    0.43586   0.68128   0.07380   0.00000  Uiso   1.00
Cl276  Cl    0.06419   0.98546   0.25837   0.00000  Uiso   1.00
N277   N     0.03433   0.69040   0.09867   0.00000  Uiso   1.00
O278   O     0.02370   0.98817   0.04801   0.00000  Uiso   1.00
O279   O     0.06340   0.68027   0.13947   0.00000  Uiso   1.00
N280   N     0.46565   0.97634   0.23364   0.00000  Uiso   1.00
O281   O     0.47637   0.67885   0.28405   0.00000  Uiso   1.00
O282   O     0.43652   0.98621   0.19273   0.00000  Uiso   1.00
N283   N     0.20844   0.98224   0.09583   0.00000  Uiso   1.00
O284   O     0.21173   0.98572   0.03980   0.00000  Uiso   1.00
O285   O     0.17225   0.95921   0.10883   0.00000  Uiso   1.00
N286   N     0.29149   0.68443   0.23755   0.00000  Uiso   1.00
O287   O     0.28813   0.68099   0.29358   0.00000  Uiso   1.00
O288   O     0.32772   0.70741   0.22458   0.00000  Uiso   1.00
Cl289  Cl    0.19720   0.77278   0.30220   0.00000  Uiso   1.00
Cl290  Cl    0.30281   0.89388   0.03112   0.00000  Uiso   1.00
O291   O     0.75326   0.76204   0.20659   0.00000  Uiso   1.00
O292   O     0.74675   0.90462   0.12674   0.00000  Uiso   1.00
O293   O     0.74480   0.75226   0.10279   0.00000  Uiso   1.00
O294   O     0.75520   0.91441   0.23055   0.00000  Uiso   1.00
C295   C     0.74799   0.73339   0.15122   0.00000  Uiso   1.00
C296   C     0.75199   0.93327   0.18212   0.00000  Uiso   1.00
O297   O     0.68936   0.83821   0.21857   0.00000  Uiso   1.00
O298   O     0.81065   0.82845   0.11476   0.00000  Uiso   1.00
O299   O     0.68090   0.82843   0.11477   0.00000  Uiso   1.00
O300   O     0.81910   0.83824   0.21857   0.00000  Uiso   1.00
C301   C     0.66460   0.83281   0.16706   0.00000  Uiso   1.00
C302   C     0.83539   0.83385   0.16626   0.00000  Uiso   1.00
Cu303  Cu    0.75501   0.83913   0.22813   0.00000  Uiso   1.00
Cu304  Cu    0.74500   0.82754   0.10521   0.00000  Uiso   1.00
C305   C     0.91130   0.87578   0.20346   0.00000  Uiso   1.00
C306   C     0.58871   0.79095   0.12956   0.00000  Uiso   1.00
C307   C     0.88369   0.83406   0.16525   0.00000  Uiso   1.00
C308   C     0.61629   0.83257   0.16802   0.00000  Uiso   1.00
C309   C     0.90195   0.79293   0.12534   0.00000  Uiso   1.00
C310   C     0.59797   0.87363   0.20798   0.00000  Uiso   1.00
C311   C     0.94872   0.78923   0.13030   0.00000  Uiso   1.00
C312   C     0.55123   0.87740   0.20270   0.00000  Uiso   1.00
C313   C     0.97655   0.83365   0.16527   0.00000  Uiso   1.00
C314   C     0.52340   0.83301   0.16767   0.00000  Uiso   1.00
C315   C     0.95747   0.87897   0.19747   0.00000  Uiso   1.00
C316   C     0.54251   0.78773   0.13543   0.00000  Uiso   1.00
C317   C     0.96836   0.74196   0.10461   0.00000  Uiso   1.00
C318   C     0.53162   0.92475   0.22811   0.00000  Uiso   1.00
C319   C     0.51509   0.74065   0.10983   0.00000  Uiso   1.00
C320   C     0.98489   0.92609   0.22284   0.00000  Uiso   1.00
C321   C     0.74098   0.67759   0.14442   0.00000  Uiso   1.00
C322   C     0.75898   0.98908   0.18893   0.00000  Uiso   1.00
N323   N     0.73745   0.81881   0.01284   0.00000  Uiso   1.00
N324   N     0.76256   0.84786   0.32049   0.00000  Uiso   1.00
Cl325  Cl    0.88795   0.92156   0.26154   0.00000  Uiso   1.00
Cl326  Cl    0.61209   0.74535   0.07135   0.00000  Uiso   1.00
N327   N     0.87283   0.75638   0.07916   0.00000  Uiso   1.00
O328   O     0.84293   0.72500   0.09429   0.00000  Uiso   1.00
O329   O     0.87532   0.75580   0.02172   0.00000  Uiso   1.00
N330   N     0.62695   0.90995   0.25460   0.00000  Uiso   1.00
O331   O     0.65728   0.94114   0.24002   0.00000  Uiso   1.00
O332   O     0.62326   0.91131   0.31193   0.00000  Uiso   1.00
Cl333  Cl    0.93586   0.68128   0.07380   0.00000  Uiso   1.00
Cl334  Cl    0.56419   0.98546   0.25837   0.00000  Uiso   1.00
N335   N     0.53433   0.69040   0.09867   0.00000  Uiso   1.00
O336   O     0.52370   0.98817   0.04801   0.00000  Uiso   1.00
O337   O     0.56340   0.68027   0.13947   0.00000  Uiso   1.00
N338   N     0.96565   0.97634   0.23364   0.00000  Uiso   1.00
O339   O     0.97637   0.67885   0.28405   0.00000  Uiso   1.00
O340   O     0.93652   0.98621   0.19273   0.00000  Uiso   1.00
N341   N     0.70844   0.98224   0.09583   0.00000  Uiso   1.00
O342   O     0.71173   0.98572   0.03980   0.00000  Uiso   1.00
O343   O     0.67225   0.95921   0.10883   0.00000  Uiso   1.00
N344   N     0.79149   0.68443   0.23755   0.00000  Uiso   1.00
O345   O     0.78813   0.68099   0.29358   0.00000  Uiso   1.00
O346   O     0.82772   0.70741   0.22458   0.00000  Uiso   1.00
Cl347  Cl    0.69720   0.77278   0.30220   0.00000  Uiso   1.00
Cl348  Cl    0.80281   0.89388   0.03112   0.00000  Uiso   1.00
O349   O     0.25326   0.09538   0.53992   0.00000  Uiso   1.00
O350   O     0.24675   0.23796   0.46008   0.00000  Uiso   1.00
O351   O     0.24480   0.08559   0.43612   0.00000  Uiso   1.00
O352   O     0.25520   0.24774   0.56388   0.00000  Uiso   1.00
C353   C     0.24799   0.06673   0.48455   0.00000  Uiso   1.00
C354   C     0.25199   0.26660   0.51545   0.00000  Uiso   1.00
O355   O     0.18936   0.17155   0.55191   0.00000  Uiso   1.00
O356   O     0.31065   0.16179   0.44809   0.00000  Uiso   1.00
O357   O     0.18090   0.16176   0.44810   0.00000  Uiso   1.00
O358   O     0.31910   0.17157   0.55190   0.00000  Uiso   1.00
C359   C     0.16460   0.16615   0.50040   0.00000  Uiso   1.00
C360   C     0.33539   0.16718   0.49960   0.00000  Uiso   1.00
Cu361  Cu    0.25501   0.17246   0.56146   0.00000  Uiso   1.00
Cu362  Cu    0.24500   0.16087   0.43854   0.00000  Uiso   1.00
C363   C     0.41130   0.20912   0.53679   0.00000  Uiso   1.00
C364   C     0.08871   0.12428   0.46290   0.00000  Uiso   1.00
C365   C     0.38369   0.16740   0.49858   0.00000  Uiso   1.00
C366   C     0.11629   0.16591   0.50135   0.00000  Uiso   1.00
C367   C     0.40195   0.12626   0.45867   0.00000  Uiso   1.00
C368   C     0.09797   0.20696   0.54131   0.00000  Uiso   1.00
C369   C     0.44872   0.12256   0.46364   0.00000  Uiso   1.00
C370   C     0.05123   0.21073   0.53604   0.00000  Uiso   1.00
C371   C     0.47655   0.16698   0.49861   0.00000  Uiso   1.00
C372   C     0.02340   0.16634   0.50100   0.00000  Uiso   1.00
C373   C     0.45747   0.21230   0.53080   0.00000  Uiso   1.00
C374   C     0.04251   0.12106   0.46876   0.00000  Uiso   1.00
C375   C     0.46836   0.07529   0.43794   0.00000  Uiso   1.00
C376   C     0.03162   0.25809   0.56145   0.00000  Uiso   1.00
C377   C     0.01509   0.07398   0.44316   0.00000  Uiso   1.00
C378   C     0.48489   0.25942   0.55617   0.00000  Uiso   1.00
C379   C     0.24098   0.01092   0.47775   0.00000  Uiso   1.00
C380   C     0.25898   0.32241   0.52226   0.00000  Uiso   1.00
N381   N     0.23745   0.15214   0.34617   0.00000  Uiso   1.00
N382   N     0.26256   0.18119   0.65383   0.00000  Uiso   1.00
Cl383  Cl    0.38795   0.25490   0.59487   0.00000  Uiso   1.00
Cl384  Cl    0.11209   0.07868   0.40469   0.00000  Uiso   1.00
N385   N     0.37283   0.08971   0.41249   0.00000  Uiso   1.00
O386   O     0.34293   0.05834   0.42762   0.00000  Uiso   1.00
O387   O     0.37532   0.08913   0.35505   0.00000  Uiso   1.00
N388   N     0.12695   0.24328   0.58793   0.00000  Uiso   1.00
O389   O     0.15728   0.27447   0.57335   0.00000  Uiso   1.00
O390   O     0.12326   0.24465   0.64527   0.00000  Uiso   1.00
Cl391  Cl    0.43586   0.01462   0.40713   0.00000  Uiso   1.00
Cl392  Cl    0.06419   0.31879   0.59170   0.00000  Uiso   1.00
N393   N     0.03433   0.02374   0.43200   0.00000  Uiso   1.00
O394   O     0.02370   0.32150   0.38134   0.00000  Uiso   1.00
O395   O     0.06340   0.01361   0.47280   0.00000  Uiso   1.00
N396   N     0.46565   0.30967   0.56697   0.00000  Uiso   1.00
O397   O     0.47637   0.01218   0.61738   0.00000  Uiso   1.00
O398   O     0.43652   0.31955   0.52607   0.00000  Uiso   1.00
N399   N     0.20844   0.31558   0.42917   0.00000  Uiso   1.00
O400   O     0.21173   0.31905   0.37313   0.00000  Uiso   1.00
O401   O     0.17225   0.29254   0.44217   0.00000  Uiso   1.00
N402   N     0.29149   0.01776   0.57088   0.00000  Uiso   1.00
O403   O     0.28813   0.01433   0.62691   0.00000  Uiso   1.00
O404   O     0.32772   0.04075   0.55792   0.00000  Uiso   1.00
Cl405  Cl    0.19720   0.10612   0.63554   0.00000  Uiso   1.00
Cl406  Cl    0.30281   0.22721   0.36446   0.00000  Uiso   1.00
O407   O     0.75326   0.09538   0.53992   0.00000  Uiso   1.00
O408   O     0.74675   0.23796   0.46008   0.00000  Uiso   1.00
O409   O     0.74480   0.08559   0.43612   0.00000  Uiso   1.00
O410   O     0.75520   0.24774   0.56388   0.00000  Uiso   1.00
C411   C     0.74799   0.06673   0.48455   0.00000  Uiso   1.00
C412   C     0.75199   0.26660   0.51545   0.00000  Uiso   1.00
O413   O     0.68936   0.17155   0.55191   0.00000  Uiso   1.00
O414   O     0.81065   0.16179   0.44809   0.00000  Uiso   1.00
O415   O     0.68090   0.16176   0.44810   0.00000  Uiso   1.00
O416   O     0.81910   0.17157   0.55190   0.00000  Uiso   1.00
C417   C     0.66460   0.16615   0.50040   0.00000  Uiso   1.00
C418   C     0.83539   0.16718   0.49960   0.00000  Uiso   1.00
Cu419  Cu    0.75501   0.17246   0.56146   0.00000  Uiso   1.00
Cu420  Cu    0.74500   0.16087   0.43854   0.00000  Uiso   1.00
C421   C     0.91130   0.20912   0.53679   0.00000  Uiso   1.00
C422   C     0.58871   0.12428   0.46290   0.00000  Uiso   1.00
C423   C     0.88369   0.16740   0.49858   0.00000  Uiso   1.00
C424   C     0.61629   0.16591   0.50135   0.00000  Uiso   1.00
C425   C     0.90195   0.12626   0.45867   0.00000  Uiso   1.00
C426   C     0.59797   0.20696   0.54131   0.00000  Uiso   1.00
C427   C     0.94872   0.12256   0.46364   0.00000  Uiso   1.00
C428   C     0.55123   0.21073   0.53604   0.00000  Uiso   1.00
C429   C     0.97655   0.16698   0.49861   0.00000  Uiso   1.00
C430   C     0.52340   0.16634   0.50100   0.00000  Uiso   1.00
C431   C     0.95747   0.21230   0.53080   0.00000  Uiso   1.00
C432   C     0.54251   0.12106   0.46876   0.00000  Uiso   1.00
C433   C     0.96836   0.07529   0.43794   0.00000  Uiso   1.00
C434   C     0.53162   0.25809   0.56145   0.00000  Uiso   1.00
C435   C     0.51509   0.07398   0.44316   0.00000  Uiso   1.00
C436   C     0.98489   0.25942   0.55617   0.00000  Uiso   1.00
C437   C     0.74098   0.01092   0.47775   0.00000  Uiso   1.00
C438   C     0.75898   0.32241   0.52226   0.00000  Uiso   1.00
N439   N     0.73745   0.15214   0.34617   0.00000  Uiso   1.00
N440   N     0.76256   0.18119   0.65383   0.00000  Uiso   1.00
Cl441  Cl    0.88795   0.25490   0.59487   0.00000  Uiso   1.00
Cl442  Cl    0.61209   0.07868   0.40469   0.00000  Uiso   1.00
N443   N     0.87283   0.08971   0.41249   0.00000  Uiso   1.00
O444   O     0.84293   0.05834   0.42762   0.00000  Uiso   1.00
O445   O     0.87532   0.08913   0.35505   0.00000  Uiso   1.00
N446   N     0.62695   0.24328   0.58793   0.00000  Uiso   1.00
O447   O     0.65728   0.27447   0.57335   0.00000  Uiso   1.00
O448   O     0.62326   0.24465   0.64527   0.00000  Uiso   1.00
Cl449  Cl    0.93586   0.01462   0.40713   0.00000  Uiso   1.00
Cl450  Cl    0.56419   0.31879   0.59170   0.00000  Uiso   1.00
N451   N     0.53433   0.02374   0.43200   0.00000  Uiso   1.00
O452   O     0.52370   0.32150   0.38134   0.00000  Uiso   1.00
O453   O     0.56340   0.01361   0.47280   0.00000  Uiso   1.00
N454   N     0.96565   0.30967   0.56697   0.00000  Uiso   1.00
O455   O     0.97637   0.01218   0.61738   0.00000  Uiso   1.00
O456   O     0.93652   0.31955   0.52607   0.00000  Uiso   1.00
N457   N     0.70844   0.31558   0.42917   0.00000  Uiso   1.00
O458   O     0.71173   0.31905   0.37313   0.00000  Uiso   1.00
O459   O     0.67225   0.29254   0.44217   0.00000  Uiso   1.00
N460   N     0.79149   0.01776   0.57088   0.00000  Uiso   1.00
O461   O     0.78813   0.01433   0.62691   0.00000  Uiso   1.00
O462   O     0.82772   0.04075   0.55792   0.00000  Uiso   1.00
Cl463  Cl    0.69720   0.10612   0.63554   0.00000  Uiso   1.00
Cl464  Cl    0.80281   0.22721   0.36446   0.00000  Uiso   1.00
O465   O     0.25326   0.42871   0.53992   0.00000  Uiso   1.00
O466   O     0.24675   0.57129   0.46008   0.00000  Uiso   1.00
O467   O     0.24480   0.41892   0.43612   0.00000  Uiso   1.00
O468   O     0.25520   0.58108   0.56388   0.00000  Uiso   1.00
C469   C     0.24799   0.40006   0.48455   0.00000  Uiso   1.00
C470   C     0.25199   0.59994   0.51545   0.00000  Uiso   1.00
O471   O     0.18936   0.50488   0.55191   0.00000  Uiso   1.00
O472   O     0.31065   0.49512   0.44809   0.00000  Uiso   1.00
O473   O     0.18090   0.49510   0.44810   0.00000  Uiso   1.00
O474   O     0.31910   0.50490   0.55190   0.00000  Uiso   1.00
C475   C     0.16460   0.49948   0.50040   0.00000  Uiso   1.00
C476   C     0.33539   0.50052   0.49960   0.00000  Uiso   1.00
Cu477  Cu    0.25501   0.50579   0.56146   0.00000  Uiso   1.00
Cu478  Cu    0.24500   0.49421   0.43854   0.00000  Uiso   1.00
C479   C     0.41130   0.54245   0.53679   0.00000  Uiso   1.00
C480   C     0.08871   0.45762   0.46290   0.00000  Uiso   1.00
C481   C     0.38369   0.50073   0.49858   0.00000  Uiso   1.00
C482   C     0.11629   0.49924   0.50135   0.00000  Uiso   1.00
C483   C     0.40195   0.45960   0.45867   0.00000  Uiso   1.00
C484   C     0.09797   0.54029   0.54131   0.00000  Uiso   1.00
C485   C     0.44872   0.45590   0.46364   0.00000  Uiso   1.00
C486   C     0.05123   0.54407   0.53604   0.00000  Uiso   1.00
C487   C     0.47655   0.50031   0.49861   0.00000  Uiso   1.00
C488   C     0.02340   0.49968   0.50100   0.00000  Uiso   1.00
C489   C     0.45747   0.54564   0.53080   0.00000  Uiso   1.00
C490   C     0.04251   0.45440   0.46876   0.00000  Uiso   1.00
C491   C     0.46836   0.40863   0.43794   0.00000  Uiso   1.00
C492   C     0.03162   0.59142   0.56145   0.00000  Uiso   1.00
C493   C     0.01509   0.40732   0.44316   0.00000  Uiso   1.00
C494   C     0.48489   0.59276   0.55617   0.00000  Uiso   1.00
C495   C     0.24098   0.34425   0.47775   0.00000  Uiso   1.00
C496   C     0.25898   0.65574   0.52226   0.00000  Uiso   1.00
N497   N     0.23745   0.48547   0.34617   0.00000  Uiso   1.00
N498   N     0.26256   0.51453   0.65383   0.00000  Uiso   1.00
Cl499  Cl    0.38795   0.58823   0.59487   0.00000  Uiso   1.00
Cl500  Cl    0.11209   0.41202   0.40469   0.00000  Uiso   1.00
N501   N     0.37283   0.42305   0.41249   0.00000  Uiso   1.00
O502   O     0.34293   0.39167   0.42762   0.00000  Uiso   1.00
O503   O     0.37532   0.42247   0.35505   0.00000  Uiso   1.00
N504   N     0.12695   0.57662   0.58793   0.00000  Uiso   1.00
O505   O     0.15728   0.60781   0.57335   0.00000  Uiso   1.00
O506   O     0.12326   0.57798   0.64527   0.00000  Uiso   1.00
Cl507  Cl    0.43586   0.34795   0.40713   0.00000  Uiso   1.00
Cl508  Cl    0.06419   0.65213   0.59170   0.00000  Uiso   1.00
N509   N     0.03433   0.35707   0.43200   0.00000  Uiso   1.00
O510   O     0.02370   0.65484   0.38134   0.00000  Uiso   1.00
O511   O     0.06340   0.34694   0.47280   0.00000  Uiso   1.00
N512   N     0.46565   0.64301   0.56697   0.00000  Uiso   1.00
O513   O     0.47637   0.34551   0.61738   0.00000  Uiso   1.00
O514   O     0.43652   0.65288   0.52607   0.00000  Uiso   1.00
N515   N     0.20844   0.64891   0.42917   0.00000  Uiso   1.00
O516   O     0.21173   0.65238   0.37313   0.00000  Uiso   1.00
O517   O     0.17225   0.62587   0.44217   0.00000  Uiso   1.00
N518   N     0.29149   0.35109   0.57088   0.00000  Uiso   1.00
O519   O     0.28813   0.34766   0.62691   0.00000  Uiso   1.00
O520   O     0.32772   0.37408   0.55792   0.00000  Uiso   1.00
Cl521  Cl    0.19720   0.43945   0.63554   0.00000  Uiso   1.00
Cl522  Cl    0.30281   0.56055   0.36446   0.00000  Uiso   1.00
O523   O     0.75326   0.42871   0.53992   0.00000  Uiso   1.00
O524   O     0.74675   0.57129   0.46008   0.00000  Uiso   1.00
O525   O     0.74480   0.41892   0.43612   0.00000  Uiso   1.00
O526   O     0.75520   0.58108   0.56388   0.00000  Uiso   1.00
C527   C     0.74799   0.40006   0.48455   0.00000  Uiso   1.00
C528   C     0.75199   0.59994   0.51545   0.00000  Uiso   1.00
O529   O     0.68936   0.50488   0.55191   0.00000  Uiso   1.00
O530   O     0.81065   0.49512   0.44809   0.00000  Uiso   1.00
O531   O     0.68090   0.49510   0.44810   0.00000  Uiso   1.00
O532   O     0.81910   0.50490   0.55190   0.00000  Uiso   1.00
C533   C     0.66460   0.49948   0.50040   0.00000  Uiso   1.00
C534   C     0.83539   0.50052   0.49960   0.00000  Uiso   1.00
Cu535  Cu    0.75501   0.50579   0.56146   0.00000  Uiso   1.00
Cu536  Cu    0.74500   0.49421   0.43854   0.00000  Uiso   1.00
C537   C     0.91130   0.54245   0.53679   0.00000  Uiso   1.00
C538   C     0.58871   0.45762   0.46290   0.00000  Uiso   1.00
C539   C     0.88369   0.50073   0.49858   0.00000  Uiso   1.00
C540   C     0.61629   0.49924   0.50135   0.00000  Uiso   1.00
C541   C     0.90195   0.45960   0.45867   0.00000  Uiso   1.00
C542   C     0.59797   0.54029   0.54131   0.00000  Uiso   1.00
C543   C     0.94872   0.45590   0.46364   0.00000  Uiso   1.00
C544   C     0.55123   0.54407   0.53604   0.00000  Uiso   1.00
C545   C     0.97655   0.50031   0.49861   0.00000  Uiso   1.00
C546   C     0.52340   0.49968   0.50100   0.00000  Uiso   1.00
C547   C     0.95747   0.54564   0.53080   0.00000  Uiso   1.00
C548   C     0.54251   0.45440   0.46876   0.00000  Uiso   1.00
C549   C     0.96836   0.40863   0.43794   0.00000  Uiso   1.00
C550   C     0.53162   0.59142   0.56145   0.00000  Uiso   1.00
C551   C     0.51509   0.40732   0.44316   0.00000  Uiso   1.00
C552   C     0.98489   0.59276   0.55617   0.00000  Uiso   1.00
C553   C     0.74098   0.34425   0.47775   0.00000  Uiso   1.00
C554   C     0.75898   0.65574   0.52226   0.00000  Uiso   1.00
N555   N     0.73745   0.48547   0.34617   0.00000  Uiso   1.00
N556   N     0.76256   0.51453   0.65383   0.00000  Uiso   1.00
Cl557  Cl    0.88795   0.58823   0.59487   0.00000  Uiso   1.00
Cl558  Cl    0.61209   0.41202   0.40469   0.00000  Uiso   1.00
N559   N     0.87283   0.42305   0.41249   0.00000  Uiso   1.00
O560   O     0.84293   0.39167   0.42762   0.00000  Uiso   1.00
O561   O     0.87532   0.42247   0.35505   0.00000  Uiso   1.00
N562   N     0.62695   0.57662   0.58793   0.00000  Uiso   1.00
O563   O     0.65728   0.60781   0.57335   0.00000  Uiso   1.00
O564   O     0.62326   0.57798   0.64527   0.00000  Uiso   1.00
Cl565  Cl    0.93586   0.34795   0.40713   0.00000  Uiso   1.00
Cl566  Cl    0.56419   0.65213   0.59170   0.00000  Uiso   1.00
N567   N     0.53433   0.35707   0.43200   0.00000  Uiso   1.00
O568   O     0.52370   0.65484   0.38134   0.00000  Uiso   1.00
O569   O     0.56340   0.34694   0.47280   0.00000  Uiso   1.00
N570   N     0.96565   0.64301   0.56697   0.00000  Uiso   1.00
O571   O     0.97637   0.34551   0.61738   0.00000  Uiso   1.00
O572   O     0.93652   0.65288   0.52607   0.00000  Uiso   1.00
N573   N     0.70844   0.64891   0.42917   0.00000  Uiso   1.00
O574   O     0.71173   0.65238   0.37313   0.00000  Uiso   1.00
O575   O     0.67225   0.62587   0.44217   0.00000  Uiso   1.00
N576   N     0.79149   0.35109   0.57088   0.00000  Uiso   1.00
O577   O     0.78813   0.34766   0.62691   0.00000  Uiso   1.00
O578   O     0.82772   0.37408   0.55792   0.00000  Uiso   1.00
Cl579  Cl    0.69720   0.43945   0.63554   0.00000  Uiso   1.00
Cl580  Cl    0.80281   0.56055   0.36446   0.00000  Uiso   1.00
O581   O     0.25326   0.76204   0.53992   0.00000  Uiso   1.00
O582   O     0.24675   0.90462   0.46008   0.00000  Uiso   1.00
O583   O     0.24480   0.75226   0.43612   0.00000  Uiso   1.00
O584   O     0.25520   0.91441   0.56388   0.00000  Uiso   1.00
C585   C     0.24799   0.73339   0.48455   0.00000  Uiso   1.00
C586   C     0.25199   0.93327   0.51545   0.00000  Uiso   1.00
O587   O     0.18936   0.83821   0.55191   0.00000  Uiso   1.00
O588   O     0.31065   0.82845   0.44809   0.00000  Uiso   1.00
O589   O     0.18090   0.82843   0.44810   0.00000  Uiso   1.00
O590   O     0.31910   0.83824   0.55190   0.00000  Uiso   1.00
C591   C     0.16460   0.83281   0.50040   0.00000  Uiso   1.00
C592   C     0.33539   0.83385   0.49960   0.00000  Uiso   1.00
Cu593  Cu    0.25501   0.83913   0.56146   0.00000  Uiso   1.00
Cu594  Cu    0.24500   0.82754   0.43854   0.00000  Uiso   1.00
C595   C     0.41130   0.87578   0.53679   0.00000  Uiso   1.00
C596   C     0.08871   0.79095   0.46290   0.00000  Uiso   1.00
C597   C     0.38369   0.83406   0.49858   0.00000  Uiso   1.00
C598   C     0.11629   0.83257   0.50135   0.00000  Uiso   1.00
C599   C     0.40195   0.79293   0.45867   0.00000  Uiso   1.00
C600   C     0.09797   0.87363   0.54131   0.00000  Uiso   1.00
C601   C     0.44872   0.78923   0.46364   0.00000  Uiso   1.00
C602   C     0.05123   0.87740   0.53604   0.00000  Uiso   1.00
C603   C     0.47655   0.83365   0.49861   0.00000  Uiso   1.00
C604   C     0.02340   0.83301   0.50100   0.00000  Uiso   1.00
C605   C     0.45747   0.87897   0.53080   0.00000  Uiso   1.00
C606   C     0.04251   0.78773   0.46876   0.00000  Uiso   1.00
C607   C     0.46836   0.74196   0.43794   0.00000  Uiso   1.00
C608   C     0.03162   0.92475   0.56145   0.00000  Uiso   1.00
C609   C     0.01509   0.74065   0.44316   0.00000  Uiso   1.00
C610   C     0.48489   0.92609   0.55617   0.00000  Uiso   1.00
C611   C     0.24098   0.67759   0.47775   0.00000  Uiso   1.00
C612   C     0.25898   0.98908   0.52226   0.00000  Uiso   1.00
N613   N     0.23745   0.81881   0.34617   0.00000  Uiso   1.00
N614   N     0.26256   0.84786   0.65383   0.00000  Uiso   1.00
Cl615  Cl    0.38795   0.92156   0.59487   0.00000  Uiso   1.00
Cl616  Cl    0.11209   0.74535   0.40469   0.00000  Uiso   1.00
N617   N     0.37283   0.75638   0.41249   0.00000  Uiso   1.00
O618   O     0.34293   0.72500   0.42762   0.00000  Uiso   1.00
O619   O     0.37532   0.75580   0.35505   0.00000  Uiso   1.00
N620   N     0.12695   0.90995   0.58793   0.00000  Uiso   1.00
O621   O     0.15728   0.94114   0.57335   0.00000  Uiso   1.00
O622   O     0.12326   0.91131   0.64527   0.00000  Uiso   1.00
Cl623  Cl    0.43586   0.68128   0.40713   0.00000  Uiso   1.00
Cl624  Cl    0.06419   0.98546   0.59170   0.00000  Uiso   1.00
N625   N     0.03433   0.69040   0.43200   0.00000  Uiso   1.00
O626   O     0.02370   0.98817   0.38134   0.00000  Uiso   1.00
O627   O     0.06340   0.68027   0.47280   0.00000  Uiso   1.00
N628   N     0.46565   0.97634   0.56697   0.00000  Uiso   1.00
O629   O     0.47637   0.67885   0.61738   0.00000  Uiso   1.00
O630   O     0.43652   0.98621   0.52607   0.00000  Uiso   1.00
N631   N     0.20844   0.98224   0.42917   0.00000  Uiso   1.00
O632   O     0.21173   0.98572   0.37313   0.00000  Uiso   1.00
O633   O     0.17225   0.95921   0.44217   0.00000  Uiso   1.00
N634   N     0.29149   0.68443   0.57088   0.00000  Uiso   1.00
O635   O     0.28813   0.68099   0.62691   0.00000  Uiso   1.00
O636   O     0.32772   0.70741   0.55792   0.00000  Uiso   1.00
Cl637  Cl    0.19720   0.77278   0.63554   0.00000  Uiso   1.00
Cl638  Cl    0.30281   0.89388   0.36446   0.00000  Uiso   1.00
O639   O     0.75326   0.76204   0.53992   0.00000  Uiso   1.00
O640   O     0.74675   0.90462   0.46008   0.00000  Uiso   1.00
O641   O     0.74480   0.75226   0.43612   0.00000  Uiso   1.00
O642   O     0.75520   0.91441   0.56388   0.00000  Uiso   1.00
C643   C     0.74799   0.73339   0.48455   0.00000  Uiso   1.00
C644   C     0.75199   0.93327   0.51545   0.00000  Uiso   1.00
O645   O     0.68936   0.83821   0.55191   0.00000  Uiso   1.00
O646   O     0.81065   0.82845   0.44809   0.00000  Uiso   1.00
O647   O     0.68090   0.82843   0.44810   0.00000  Uiso   1.00
O648   O     0.81910   0.83824   0.55190   0.00000  Uiso   1.00
C649   C     0.66460   0.83281   0.50040   0.00000  Uiso   1.00
C650   C     0.83539   0.83385   0.49960   0.00000  Uiso   1.00
Cu651  Cu    0.75501   0.83913   0.56146   0.00000  Uiso   1.00
Cu652  Cu    0.74500   0.82754   0.43854   0.00000  Uiso   1.00
C653   C     0.91130   0.87578   0.53679   0.00000  Uiso   1.00
C654   C     0.58871   0.79095   0.46290   0.00000  Uiso   1.00
C655   C     0.88369   0.83406   0.49858   0.00000  Uiso   1.00
C656   C     0.61629   0.83257   0.50135   0.00000  Uiso   1.00
C657   C     0.90195   0.79293   0.45867   0.00000  Uiso   1.00
C658   C     0.59797   0.87363   0.54131   0.00000  Uiso   1.00
C659   C     0.94872   0.78923   0.46364   0.00000  Uiso   1.00
C660   C     0.55123   0.87740   0.53604   0.00000  Uiso   1.00
C661   C     0.97655   0.83365   0.49861   0.00000  Uiso   1.00
C662   C     0.52340   0.83301   0.50100   0.00000  Uiso   1.00
C663   C     0.95747   0.87897   0.53080   0.00000  Uiso   1.00
C664   C     0.54251   0.78773   0.46876   0.00000  Uiso   1.00
C665   C     0.96836   0.74196   0.43794   0.00000  Uiso   1.00
C666   C     0.53162   0.92475   0.56145   0.00000  Uiso   1.00
C667   C     0.51509   0.74065   0.44316   0.00000  Uiso   1.00
C668   C     0.98489   0.92609   0.55617   0.00000  Uiso   1.00
C669   C     0.74098   0.67759   0.47775   0.00000  Uiso   1.00
C670   C     0.75898   0.98908   0.52226   0.00000  Uiso   1.00
N671   N     0.73745   0.81881   0.34617   0.00000  Uiso   1.00
N672   N     0.76256   0.84786   0.65383   0.00000  Uiso   1.00
Cl673  Cl    0.88795   0.92156   0.59487   0.00000  Uiso   1.00
Cl674  Cl    0.61209   0.74535   0.40469   0.00000  Uiso   1.00
N675   N     0.87283   0.75638   0.41249   0.00000  Uiso   1.00
O676   O     0.84293   0.72500   0.42762   0.00000  Uiso   1.00
O677   O     0.87532   0.75580   0.35505   0.00000  Uiso   1.00
N678   N     0.62695   0.90995   0.58793   0.00000  Uiso   1.00
O679   O     0.65728   0.94114   0.57335   0.00000  Uiso   1.00
O680   O     0.62326   0.91131   0.64527   0.00000  Uiso   1.00
Cl681  Cl    0.93586   0.68128   0.40713   0.00000  Uiso   1.00
Cl682  Cl    0.56419   0.98546   0.59170   0.00000  Uiso   1.00
N683   N     0.53433   0.69040   0.43200   0.00000  Uiso   1.00
O684   O     0.52370   0.98817   0.38134   0.00000  Uiso   1.00
O685   O     0.56340   0.68027   0.47280   0.00000  Uiso   1.00
N686   N     0.96565   0.97634   0.56697   0.00000  Uiso   1.00
O687   O     0.97637   0.67885   0.61738   0.00000  Uiso   1.00
O688   O     0.93652   0.98621   0.52607   0.00000  Uiso   1.00
N689   N     0.70844   0.98224   0.42917   0.00000  Uiso   1.00
O690   O     0.71173   0.98572   0.37313   0.00000  Uiso   1.00
O691   O     0.67225   0.95921   0.44217   0.00000  Uiso   1.00
N692   N     0.79149   0.68443   0.57088   0.00000  Uiso   1.00
O693   O     0.78813   0.68099   0.62691   0.00000  Uiso   1.00
O694   O     0.82772   0.70741   0.55792   0.00000  Uiso   1.00
Cl695  Cl    0.69720   0.77278   0.63554   0.00000  Uiso   1.00
Cl696  Cl    0.80281   0.89388   0.36446   0.00000  Uiso   1.00
O697   O     0.25326   0.09538   0.87326   0.00000  Uiso   1.00
O698   O     0.24675   0.23796   0.79341   0.00000  Uiso   1.00
O699   O     0.24480   0.08559   0.76945   0.00000  Uiso   1.00
O700   O     0.25520   0.24774   0.89721   0.00000  Uiso   1.00
C701   C     0.24799   0.06673   0.81789   0.00000  Uiso   1.00
C702   C     0.25199   0.26660   0.84878   0.00000  Uiso   1.00
O703   O     0.18936   0.17155   0.88524   0.00000  Uiso   1.00
O704   O     0.31065   0.16179   0.78143   0.00000  Uiso   1.00
O705   O     0.18090   0.16176   0.78143   0.00000  Uiso   1.00
O706   O     0.31910   0.17157   0.88523   0.00000  Uiso   1.00
C707   C     0.16460   0.16615   0.83373   0.00000  Uiso   1.00
C708   C     0.33539   0.16718   0.83293   0.00000  Uiso   1.00
Cu709  Cu    0.25501   0.17246   0.89479   0.00000  Uiso   1.00
Cu710  Cu    0.24500   0.16087   0.77187   0.00000  Uiso   1.00
C711   C     0.41130   0.20912   0.87013   0.00000  Uiso   1.00
C712   C     0.08871   0.12428   0.79623   0.00000  Uiso   1.00
C713   C     0.38369   0.16740   0.83192   0.00000  Uiso   1.00
C714   C     0.11629   0.16591   0.83469   0.00000  Uiso   1.00
C715   C     0.40195   0.12626   0.79201   0.00000  Uiso   1.00
C716   C     0.09797   0.20696   0.87464   0.00000  Uiso   1.00
C717   C     0.44872   0.12256   0.79697   0.00000  Uiso   1.00
C718   C     0.05123   0.21073   0.86937   0.00000  Uiso   1.00
C719   C     0.47655   0.16698   0.83194   0.00000  Uiso   1.00
C720   C     0.02340   0.16634   0.83434   0.00000  Uiso   1.00
C721   C     0.45747   0.21230   0.86413   0.00000  Uiso   1.00
C722   C     0.04251   0.12106   0.80210   0.00000  Uiso   1.00
C723   C     0.46836   0.07529   0.77127   0.00000  Uiso   1.00
C724   C     0.03162   0.25809   0.89478   0.00000  Uiso   1.00
C725   C     0.01509   0.07398   0.77650   0.00000  Uiso   1.00
C726   C     0.48489   0.25942   0.88950   0.00000  Uiso   1.00
C727   C     0.24098   0.01092   0.81109   0.00000  Uiso   1.00
C728   C     0.25898   0.32241   0.85560   0.00000  Uiso   1.00
N729   N     0.23745   0.15214   0.67951   0.00000  Uiso   1.00
N730   N     0.26256   0.18119   0.98716   0.00000  Uiso   1.00
Cl731  Cl    0.38795   0.25490   0.92820   0.00000  Uiso   1.00
Cl732  Cl    0.11209   0.07868   0.73802   0.00000  Uiso   1.00
N733   N     0.37283   0.08971   0.74583   0.00000  Uiso   1.00
O734   O     0.34293   0.05834   0.76095   0.00000  Uiso   1.00
O735   O     0.37532   0.08913   0.68838   0.00000  Uiso   1.00
N736   N     0.12695   0.24328   0.92126   0.00000  Uiso   1.00
O737   O     0.15728   0.27447   0.90669   0.00000  Uiso   1.00
O738   O     0.12326   0.24465   0.97860   0.00000  Uiso   1.00
Cl739  Cl    0.43586   0.01462   0.74047   0.00000  Uiso   1.00
Cl740  Cl    0.06419   0.31879   0.92503   0.00000  Uiso   1.00
N741   N     0.03433   0.02374   0.76534   0.00000  Uiso   1.00
O742   O     0.02370   0.32150   0.71467   0.00000  Uiso   1.00
O743   O     0.06340   0.01361   0.80613   0.00000  Uiso   1.00
N744   N     0.46565   0.30967   0.90031   0.00000  Uiso   1.00
O745   O     0.47637   0.01218   0.95072   0.00000  Uiso   1.00
O746   O     0.43652   0.31955   0.85940   0.00000  Uiso   1.00
N747   N     0.20844   0.31558   0.76250   0.00000  Uiso   1.00
O748   O     0.21173   0.31905   0.70647   0.00000  Uiso   1.00
O749   O     0.17225   0.29254   0.77550   0.00000  Uiso   1.00
N750   N     0.29149   0.01776   0.90421   0.00000  Uiso   1.00
O751   O     0.28813   0.01433   0.96025   0.00000  Uiso   1.00
O752   O     0.32772   0.04075   0.89125   0.00000  Uiso   1.00
Cl753  Cl    0.19720   0.10612   0.96887   0.00000  Uiso   1.00
Cl754  Cl    0.30281   0.22721   0.69779   0.00000  Uiso   1.00
O755   O     0.75326   0.09538   0.87326   0.00000  Uiso   1.00
O756   O     0.74675   0.23796   0.79341   0.00000  Uiso   1.00
O757   O     0.74480   0.08559   0.76945   0.00000  Uiso   1.00
O758   O     0.75520   0.24774   0.89721   0.00000  Uiso   1.00
C759   C     0.74799   0.06673   0.81789   0.00000  Uiso   1.00
C760   C     0.75199   0.26660   0.84878   0.00000  Uiso   1.00
O761   O     0.68936   0.17155   0.88524   0.00000  Uiso   1.00
O762   O     0.81065   0.16179   0.78143   0.00000  Uiso   1.00
O763   O     0.68090   0.16176   0.78143   0.00000  Uiso   1.00
O764   O     0.81910   0.17157   0.88523   0.00000  Uiso   1.00
C765   C     0.66460   0.16615   0.83373   0.00000  Uiso   1.00
C766   C     0.83539   0.16718   0.83293   0.00000  Uiso   1.00
Cu767  Cu    0.75501   0.17246   0.89479   0.00000  Uiso   1.00
Cu768  Cu    0.74500   0.16087   0.77187   0.00000  Uiso   1.00
C769   C     0.91130   0.20912   0.87013   0.00000  Uiso   1.00
C770   C     0.58871   0.12428   0.79623   0.00000  Uiso   1.00
C771   C     0.88369   0.16740   0.83192   0.00000  Uiso   1.00
C772   C     0.61629   0.16591   0.83469   0.00000  Uiso   1.00
C773   C     0.90195   0.12626   0.79201   0.00000  Uiso   1.00
C774   C     0.59797   0.20696   0.87464   0.00000  Uiso   1.00
C775   C     0.94872   0.12256   0.79697   0.00000  Uiso   1.00
C776   C     0.55123   0.21073   0.86937   0.00000  Uiso   1.00
C777   C     0.97655   0.16698   0.83194   0.00000  Uiso   1.00
C778   C     0.52340   0.16634   0.83434   0.00000  Uiso   1.00
C779   C     0.95747   0.21230   0.86413   0.00000  Uiso   1.00
C780   C     0.54251   0.12106   0.80210   0.00000  Uiso   1.00
C781   C     0.96836   0.07529   0.77127   0.00000  Uiso   1.00
C782   C     0.53162   0.25809   0.89478   0.00000  Uiso   1.00
C783   C     0.51509   0.07398   0.77650   0.00000  Uiso   1.00
C784   C     0.98489   0.25942   0.88950   0.00000  Uiso   1.00
C785   C     0.74098   0.01092   0.81109   0.00000  Uiso   1.00
C786   C     0.75898   0.32241   0.85560   0.00000  Uiso   1.00
N787   N     0.73745   0.15214   0.67951   0.00000  Uiso   1.00
N788   N     0.76256   0.18119   0.98716   0.00000  Uiso   1.00
Cl789  Cl    0.88795   0.25490   0.92820   0.00000  Uiso   1.00
Cl790  Cl    0.61209   0.07868   0.73802   0.00000  Uiso   1.00
N791   N     0.87283   0.08971   0.74583   0.00000  Uiso   1.00
O792   O     0.84293   0.05834   0.76095   0.00000  Uiso   1.00
O793   O     0.87532   0.08913   0.68838   0.00000  Uiso   1.00
N794   N     0.62695   0.24328   0.92126   0.00000  Uiso   1.00
O795   O     0.65728   0.27447   0.90669   0.00000  Uiso   1.00
O796   O     0.62326   0.24465   0.97860   0.00000  Uiso   1.00
Cl797  Cl    0.93586   0.01462   0.74047   0.00000  Uiso   1.00
Cl798  Cl    0.56419   0.31879   0.92503   0.00000  Uiso   1.00
N799   N     0.53433   0.02374   0.76534   0.00000  Uiso   1.00
O800   O     0.52370   0.32150   0.71467   0.00000  Uiso   1.00
O801   O     0.56340   0.01361   0.80613   0.00000  Uiso   1.00
N802   N     0.96565   0.30967   0.90031   0.00000  Uiso   1.00
O803   O     0.97637   0.01218   0.95072   0.00000  Uiso   1.00
O804   O     0.93652   0.31955   0.85940   0.00000  Uiso   1.00
N805   N     0.70844   0.31558   0.76250   0.00000  Uiso   1.00
O806   O     0.71173   0.31905   0.70647   0.00000  Uiso   1.00
O807   O     0.67225   0.29254   0.77550   0.00000  Uiso   1.00
N808   N     0.79149   0.01776   0.90421   0.00000  Uiso   1.00
O809   O     0.78813   0.01433   0.96025   0.00000  Uiso   1.00
O810   O     0.82772   0.04075   0.89125   0.00000  Uiso   1.00
Cl811  Cl    0.69720   0.10612   0.96887   0.00000  Uiso   1.00
Cl812  Cl    0.80281   0.22721   0.69779   0.00000  Uiso   1.00
O813   O     0.25326   0.42871   0.87326   0.00000  Uiso   1.00
O814   O     0.24675   0.57129   0.79341   0.00000  Uiso   1.00
O815   O     0.24480   0.41892   0.76945   0.00000  Uiso   1.00
O816   O     0.25520   0.58108   0.89721   0.00000  Uiso   1.00
C817   C     0.24799   0.40006   0.81789   0.00000  Uiso   1.00
C818   C     0.25199   0.59994   0.84878   0.00000  Uiso   1.00
O819   O     0.18936   0.50488   0.88524   0.00000  Uiso   1.00
O820   O     0.31065   0.49512   0.78143   0.00000  Uiso   1.00
O821   O     0.18090   0.49510   0.78143   0.00000  Uiso   1.00
O822   O     0.31910   0.50490   0.88523   0.00000  Uiso   1.00
C823   C     0.16460   0.49948   0.83373   0.00000  Uiso   1.00
C824   C     0.33539   0.50052   0.83293   0.00000  Uiso   1.00
Cu825  Cu    0.25501   0.50579   0.89479   0.00000  Uiso   1.00
Cu826  Cu    0.24500   0.49421   0.77187   0.00000  Uiso   1.00
C827   C     0.41130   0.54245   0.87013   0.00000  Uiso   1.00
C828   C     0.08871   0.45762   0.79623   0.00000  Uiso   1.00
C829   C     0.38369   0.50073   0.83192   0.00000  Uiso   1.00
C830   C     0.11629   0.49924   0.83469   0.00000  Uiso   1.00
C831   C     0.40195   0.45960   0.79201   0.00000  Uiso   1.00
C832   C     0.09797   0.54029   0.87464   0.00000  Uiso   1.00
C833   C     0.44872   0.45590   0.79697   0.00000  Uiso   1.00
C834   C     0.05123   0.54407   0.86937   0.00000  Uiso   1.00
C835   C     0.47655   0.50031   0.83194   0.00000  Uiso   1.00
C836   C     0.02340   0.49968   0.83434   0.00000  Uiso   1.00
C837   C     0.45747   0.54564   0.86413   0.00000  Uiso   1.00
C838   C     0.04251   0.45440   0.80210   0.00000  Uiso   1.00
C839   C     0.46836   0.40863   0.77127   0.00000  Uiso   1.00
C840   C     0.03162   0.59142   0.89478   0.00000  Uiso   1.00
C841   C     0.01509   0.40732   0.77650   0.00000  Uiso   1.00
C842   C     0.48489   0.59276   0.88950   0.00000  Uiso   1.00
C843   C     0.24098   0.34425   0.81109   0.00000  Uiso   1.00
C844   C     0.25898   0.65574   0.85560   0.00000  Uiso   1.00
N845   N     0.23745   0.48547   0.67951   0.00000  Uiso   1.00
N846   N     0.26256   0.51453   0.98716   0.00000  Uiso   1.00
Cl847  Cl    0.38795   0.58823   0.92820   0.00000  Uiso   1.00
Cl848  Cl    0.11209   0.41202   0.73802   0.00000  Uiso   1.00
N849   N     0.37283   0.42305   0.74583   0.00000  Uiso   1.00
O850   O     0.34293   0.39167   0.76095   0.00000  Uiso   1.00
O851   O     0.37532   0.42247   0.68838   0.00000  Uiso   1.00
N852   N     0.12695   0.57662   0.92126   0.00000  Uiso   1.00
O853   O     0.15728   0.60781   0.90669   0.00000  Uiso   1.00
O854   O     0.12326   0.57798   0.97860   0.00000  Uiso   1.00
Cl855  Cl    0.43586   0.34795   0.74047   0.00000  Uiso   1.00
Cl856  Cl    0.06419   0.65213   0.92503   0.00000  Uiso   1.00
N857   N     0.03433   0.35707   0.76534   0.00000  Uiso   1.00
O858   O     0.02370   0.65484   0.71467   0.00000  Uiso   1.00
O859   O     0.06340   0.34694   0.80613   0.00000  Uiso   1.00
N860   N     0.46565   0.64301   0.90031   0.00000  Uiso   1.00
O861   O     0.47637   0.34551   0.95072   0.00000  Uiso   1.00
O862   O     0.43652   0.65288   0.85940   0.00000  Uiso   1.00
N863   N     0.20844   0.64891   0.76250   0.00000  Uiso   1.00
O864   O     0.21173   0.65238   0.70647   0.00000  Uiso   1.00
O865   O     0.17225   0.62587   0.77550   0.00000  Uiso   1.00
N866   N     0.29149   0.35109   0.90421   0.00000  Uiso   1.00
O867   O     0.28813   0.34766   0.96025   0.00000  Uiso   1.00
O868   O     0.32772   0.37408   0.89125   0.00000  Uiso   1.00
Cl869  Cl    0.19720   0.43945   0.96887   0.00000  Uiso   1.00
Cl870  Cl    0.30281   0.56055   0.69779   0.00000  Uiso   1.00
O871   O     0.75326   0.42871   0.87326   0.00000  Uiso   1.00
O872   O     0.74675   0.57129   0.79341   0.00000  Uiso   1.00
O873   O     0.74480   0.41892   0.76945   0.00000  Uiso   1.00
O874   O     0.75520   0.58108   0.89721   0.00000  Uiso   1.00
C875   C     0.74799   0.40006   0.81789   0.00000  Uiso   1.00
C876   C     0.75199   0.59994   0.84878   0.00000  Uiso   1.00
O877   O     0.68936   0.50488   0.88524   0.00000  Uiso   1.00
O878   O     0.81065   0.49512   0.78143   0.00000  Uiso   1.00
O879   O     0.68090   0.49510   0.78143   0.00000  Uiso   1.00
O880   O     0.81910   0.50490   0.88523   0.00000  Uiso   1.00
C881   C     0.66460   0.49948   0.83373   0.00000  Uiso   1.00
C882   C     0.83539   0.50052   0.83293   0.00000  Uiso   1.00
Cu883  Cu    0.75501   0.50579   0.89479   0.00000  Uiso   1.00
Cu884  Cu    0.74500   0.49421   0.77187   0.00000  Uiso   1.00
C885   C     0.91130   0.54245   0.87013   0.00000  Uiso   1.00
C886   C     0.58871   0.45762   0.79623   0.00000  Uiso   1.00
C887   C     0.88369   0.50073   0.83192   0.00000  Uiso   1.00
C888   C     0.61629   0.49924   0.83469   0.00000  Uiso   1.00
C889   C     0.90195   0.45960   0.79201   0.00000  Uiso   1.00
C890   C     0.59797   0.54029   0.87464   0.00000  Uiso   1.00
C891   C     0.94872   0.45590   0.79697   0.00000  Uiso   1.00
C892   C     0.55123   0.54407   0.86937   0.00000  Uiso   1.00
C893   C     0.97655   0.50031   0.83194   0.00000  Uiso   1.00
C894   C     0.52340   0.49968   0.83434   0.00000  Uiso   1.00
C895   C     0.95747   0.54564   0.86413   0.00000  Uiso   1.00
C896   C     0.54251   0.45440   0.80210   0.00000  Uiso   1.00
C897   C     0.96836   0.40863   0.77127   0.00000  Uiso   1.00
C898   C     0.53162   0.59142   0.89478   0.00000  Uiso   1.00
C899   C     0.51509   0.40732   0.77650   0.00000  Uiso   1.00
C900   C     0.98489   0.59276   0.88950   0.00000  Uiso   1.00
C901   C     0.74098   0.34425   0.81109   0.00000  Uiso   1.00
C902   C     0.75898   0.65574   0.85560   0.00000  Uiso   1.00
N903   N     0.73745   0.48547   0.67951   0.00000  Uiso   1.00
N904   N     0.76256   0.51453   0.98716   0.00000  Uiso   1.00
Cl905  Cl    0.88795   0.58823   0.92820   0.00000  Uiso   1.00
Cl906  Cl    0.61209   0.41202   0.73802   0.00000  Uiso   1.00
N907   N     0.87283   0.42305   0.74583   0.00000  Uiso   1.00
O908   O     0.84293   0.39167   0.76095   0.00000  Uiso   1.00
O909   O     0.87532   0.42247   0.68838   0.00000  Uiso   1.00
N910   N     0.62695   0.57662   0.92126   0.00000  Uiso   1.00
O911   O     0.65728   0.60781   0.90669   0.00000  Uiso   1.00
O912   O     0.62326   0.57798   0.97860   0.00000  Uiso   1.00
Cl913  Cl    0.93586   0.34795   0.74047   0.00000  Uiso   1.00
Cl914  Cl    0.56419   0.65213   0.92503   0.00000  Uiso   1.00
N915   N     0.53433   0.35707   0.76534   0.00000  Uiso   1.00
O916   O     0.52370   0.65484   0.71467   0.00000  Uiso   1.00
O917   O     0.56340   0.34694   0.80613   0.00000  Uiso   1.00
N918   N     0.96565   0.64301   0.90031   0.00000  Uiso   1.00
O919   O     0.97637   0.34551   0.95072   0.00000  Uiso   1.00
O920   O     0.93652   0.65288   0.85940   0.00000  Uiso   1.00
N921   N     0.70844   0.64891   0.76250   0.00000  Uiso   1.00
O922   O     0.71173   0.65238   0.70647   0.00000  Uiso   1.00
O923   O     0.67225   0.62587   0.77550   0.00000  Uiso   1.00
N924   N     0.79149   0.35109   0.90421   0.00000  Uiso   1.00
O925   O     0.78813   0.34766   0.96025   0.00000  Uiso   1.00
O926   O     0.82772   0.37408   0.89125   0.00000  Uiso   1.00
Cl927  Cl    0.69720   0.43945   0.96887   0.00000  Uiso   1.00
Cl928  Cl    0.80281   0.56055   0.69779   0.00000  Uiso   1.00
O929   O     0.25326   0.76204   0.87326   0.00000  Uiso   1.00
O930   O     0.24675   0.90462   0.79341   0.00000  Uiso   1.00
O931   O     0.24480   0.75226   0.76945   0.00000  Uiso   1.00
O932   O     0.25520   0.91441   0.89721   0.00000  Uiso   1.00
C933   C     0.24799   0.73339   0.81789   0.00000  Uiso   1.00
C934   C     0.25199   0.93327   0.84878   0.00000  Uiso   1.00
O935   O     0.18936   0.83821   0.88524   0.00000  Uiso   1.00
O936   O     0.31065   0.82845   0.78143   0.00000  Uiso   1.00
O937   O     0.18090   0.82843   0.78143   0.00000  Uiso   1.00
O938   O     0.31910   0.83824   0.88523   0.00000  Uiso   1.00
C939   C     0.16460   0.83281   0.83373   0.00000  Uiso   1.00
C940   C     0.33539   0.83385   0.83293   0.00000  Uiso   1.00
Cu941  Cu    0.25501   0.83913   0.89479   0.00000  Uiso   1.00
Cu942  Cu    0.24500   0.82754   0.77187   0.00000  Uiso   1.00
C943   C     0.41130   0.87578   0.87013   0.00000  Uiso   1.00
C944   C     0.08871   0.79095   0.79623   0.00000  Uiso   1.00
C945   C     0.38369   0.83406   0.83192   0.00000  Uiso   1.00
C946   C     0.11629   0.83257   0.83469   0.00000  Uiso   1.00
C947   C     0.40195   0.79293   0.79201   0.00000  Uiso   1.00
C948   C     0.09797   0.87363   0.87464   0.00000  Uiso   1.00
C949   C     0.44872   0.78923   0.79697   0.00000  Uiso   1.00
C950   C     0.05123   0.87740   0.86937   0.00000  Uiso   1.00
C951   C     0.47655   0.83365   0.83194   0.00000  Uiso   1.00
C952   C     0.02340   0.83301   0.83434   0.00000  Uiso   1.00
C953   C     0.45747   0.87897   0.86413   0.00000  Uiso   1.00
C954   C     0.04251   0.78773   0.80210   0.00000  Uiso   1.00
C955   C     0.46836   0.74196   0.77127   0.00000  Uiso   1.00
C956   C     0.03162   0.92475   0.89478   0.00000  Uiso   1.00
C957   C     0.01509   0.74065   0.77650   0.00000  Uiso   1.00
C958   C     0.48489   0.92609   0.88950   0.00000  Uiso   1.00
C959   C     0.24098   0.67759   0.81109   0.00000  Uiso   1.00
C960   C     0.25898   0.98908   0.85560   0.00000  Uiso   1.00
N961   N     0.23745   0.81881   0.67951   0.00000  Uiso   1.00
N962   N     0.26256   0.84786   0.98716   0.00000  Uiso   1.00
Cl963  Cl    0.38795   0.92156   0.92820   0.00000  Uiso   1.00
Cl964  Cl    0.11209   0.74535   0.73802   0.00000  Uiso   1.00
N965   N     0.37283   0.75638   0.74583   0.00000  Uiso   1.00
O966   O     0.34293   0.72500   0.76095   0.00000  Uiso   1.00
O967   O     0.37532   0.75580   0.68838   0.00000  Uiso   1.00
N968   N     0.12695   0.90995   0.92126   0.00000  Uiso   1.00
O969   O     0.15728   0.94114   0.90669   0.00000  Uiso   1.00
O970   O     0.12326   0.91131   0.97860   0.00000  Uiso   1.00
Cl971  Cl    0.43586   0.68128   0.74047   0.00000  Uiso   1.00
Cl972  Cl    0.06419   0.98546   0.92503   0.00000  Uiso   1.00
N973   N     0.03433   0.69040   0.76534   0.00000  Uiso   1.00
O974   O     0.02370   0.98817   0.71467   0.00000  Uiso   1.00
O975   O     0.06340   0.68027   0.80613   0.00000  Uiso   1.00
N976   N     0.46565   0.97634   0.90031   0.00000  Uiso   1.00
O977   O     0.47637   0.67885   0.95072   0.00000  Uiso   1.00
O978   O     0.43652   0.98621   0.85940   0.00000  Uiso   1.00
N979   N     0.20844   0.98224   0.76250   0.00000  Uiso   1.00
O980   O     0.21173   0.98572   0.70647   0.00000  Uiso   1.00
O981   O     0.17225   0.95921   0.77550   0.00000  Uiso   1.00
N982   N     0.29149   0.68443   0.90421   0.00000  Uiso   1.00
O983   O     0.28813   0.68099   0.96025   0.00000  Uiso   1.00
O984   O     0.32772   0.70741   0.89125   0.00000  Uiso   1.00
Cl985  Cl    0.19720   0.77278   0.96887   0.00000  Uiso   1.00
Cl986  Cl    0.30281   0.89388   0.69779   0.00000  Uiso   1.00
O987   O     0.75326   0.76204   0.87326   0.00000  Uiso   1.00
O988   O     0.74675   0.90462   0.79341   0.00000  Uiso   1.00
O989   O     0.74480   0.75226   0.76945   0.00000  Uiso   1.00
O990   O     0.75520   0.91441   0.89721   0.00000  Uiso   1.00
C991   C     0.74799   0.73339   0.81789   0.00000  Uiso   1.00
C992   C     0.75199   0.93327   0.84878   0.00000  Uiso   1.00
O993   O     0.68936   0.83821   0.88524   0.00000  Uiso   1.00
O994   O     0.81065   0.82845   0.78143   0.00000  Uiso   1.00
O995   O     0.68090   0.82843   0.78143   0.00000  Uiso   1.00
O996   O     0.81910   0.83824   0.88523   0.00000  Uiso   1.00
C997   C     0.66460   0.83281   0.83373   0.00000  Uiso   1.00
C998   C     0.83539   0.83385   0.83293   0.00000  Uiso   1.00
Cu999  Cu    0.75501   0.83913   0.89479   0.00000  Uiso   1.00
Cu1000 Cu    0.74500   0.82754   0.77187   0.00000  Uiso   1.00
C1001  C     0.91130   0.87578   0.87013   0.00000  Uiso   1.00
C1002  C     0.58871   0.79095   0.79623   0.00000  Uiso   1.00
C1003  C     0.88369   0.83406   0.83192   0.00000  Uiso   1.00
C1004  C     0.61629   0.83257   0.83469   0.00000  Uiso   1.00
C1005  C     0.90195   0.79293   0.79201   0.00000  Uiso   1.00
C1006  C     0.59797   0.87363   0.87464   0.00000  Uiso   1.00
C1007  C     0.94872   0.78923   0.79697   0.00000  Uiso   1.00
C1008  C     0.55123   0.87740   0.86937   0.00000  Uiso   1.00
C1009  C     0.97655   0.83365   0.83194   0.00000  Uiso   1.00
C1010  C     0.52340   0.83301   0.83434   0.00000  Uiso   1.00
C1011  C     0.95747   0.87897   0.86413   0.00000  Uiso   1.00
C1012  C     0.54251   0.78773   0.80210   0.00000  Uiso   1.00
C1013  C     0.96836   0.74196   0.77127   0.00000  Uiso   1.00
C1014  C     0.53162   0.92475   0.89478   0.00000  Uiso   1.00
C1015  C     0.51509   0.74065   0.77650   0.00000  Uiso   1.00
C1016  C     0.98489   0.92609   0.88950   0.00000  Uiso   1.00
C1017  C     0.74098   0.67759   0.81109   0.00000  Uiso   1.00
C1018  C     0.75898   0.98908   0.85560   0.00000  Uiso   1.00
N1019  N     0.73745   0.81881   0.67951   0.00000  Uiso   1.00
N1020  N     0.76256   0.84786   0.98716   0.00000  Uiso   1.00
Cl1021 Cl    0.88795   0.92156   0.92820   0.00000  Uiso   1.00
Cl1022 Cl    0.61209   0.74535   0.73802   0.00000  Uiso   1.00
N1023  N     0.87283   0.75638   0.74583   0.00000  Uiso   1.00
O1024  O     0.84293   0.72500   0.76095   0.00000  Uiso   1.00
O1025  O     0.87532   0.75580   0.68838   0.00000  Uiso   1.00
N1026  N     0.62695   0.90995   0.92126   0.00000  Uiso   1.00
O1027  O     0.65728   0.94114   0.90669   0.00000  Uiso   1.00
O1028  O     0.62326   0.91131   0.97860   0.00000  Uiso   1.00
Cl1029 Cl    0.93586   0.68128   0.74047   0.00000  Uiso   1.00
Cl1030 Cl    0.56419   0.98546   0.92503   0.00000  Uiso   1.00
N1031  N     0.53433   0.69040   0.76534   0.00000  Uiso   1.00
O1032  O     0.52370   0.98817   0.71467   0.00000  Uiso   1.00
O1033  O     0.56340   0.68027   0.80613   0.00000  Uiso   1.00
N1034  N     0.96565   0.97634   0.90031   0.00000  Uiso   1.00
O1035  O     0.97637   0.67885   0.95072   0.00000  Uiso   1.00
O1036  O     0.93652   0.98621   0.85940   0.00000  Uiso   1.00
N1037  N     0.70844   0.98224   0.76250   0.00000  Uiso   1.00
O1038  O     0.71173   0.98572   0.70647   0.00000  Uiso   1.00
O1039  O     0.67225   0.95921   0.77550   0.00000  Uiso   1.00
N1040  N     0.79149   0.68443   0.90421   0.00000  Uiso   1.00
O1041  O     0.78813   0.68099   0.96025   0.00000  Uiso   1.00
O1042  O     0.82772   0.70741   0.89125   0.00000  Uiso   1.00
Cl1043 Cl    0.69720   0.77278   0.96887   0.00000  Uiso   1.00
Cl1044 Cl    0.80281   0.89388   0.69779   0.00000  Uiso   1.00
loop_
_geom_bond_atom_site_label_1
_geom_bond_atom_site_label_2
_geom_bond_distance
_geom_bond_site_symmetry_2
_ccdc_geom_bond_type
O1     C5      1.292   .     A
O1     Cu13    1.956   .     S
O2     C6      1.292   .     A
O2     Cu14    1.956   .     S
O3     Cu14    1.954   .     S
O3     C5      1.298   .     A
O4     C6      1.298   .     A
O4     Cu13    1.954   .     S
C5     C31     1.431   .     S
C6     C32     1.431   .     S
O7     C11     1.302   .     A
O7     Cu13    1.968   .     S
O8     Cu14    1.968   .     S
O8     C12     1.302   .     A
O9     Cu14    1.960   .     S
O9     C11     1.300   .     A
O10    C12     1.300   .     A
O10    Cu13    1.960   .     S
C11    C18     1.456   .     S
C12    C17     1.456   .     S
Cu13   N34     2.037   .     S
Cu13   Cu14    2.711   .     S
Cu14   N33     2.037   .     S
C15    C17     1.402   .     A
C15    C25     1.407   .     A
C15    Cl35    1.781   .     S
C16    C18     1.402   .     A
C16    Cl36    1.781   .     S
C16    C26     1.407   .     A
C17    C19     1.404   .     A
C18    C20     1.405   .     A
C19    C21     1.413   .     A
C19    N37     1.435   .     S
C20    N40     1.435   .     S
C20    C22     1.413   .     A
C21    C27     1.422   .     A
C21    C23     1.423   .     A
C22    C28     1.422   .     A
C22    C24     1.423   .     A
C23    C25     1.418   .     A
C23    C82     1.408   .     S
C24    C26     1.418   .     A
C24    C81     1.408   1_455 S
C25    C30     1.415   .     A
C26    C29     1.415   .     A
C27    Cl43    1.775   .     S
C27    C87     1.405   .     S
C28    Cl44    1.775   .     S
C28    C88     1.405   1_455 S
C29    N45     1.443   .     S
C29    C85     1.405   1_455 S
C30    N48     1.443   .     S
C30    C86     1.405   .     S
C31    C264    1.356   1_545 S
C31    N283    1.443   1_545 S
C32    C147    1.356   .     S
C32    N170    1.443   .     S
N33    N730    1.301   1_554 S
N33    Cl753   1.726   1_554 S
N34    N381    1.301   .     S
N34    Cl406   1.726   .     S
N37    O38     1.302   .     A
N37    O39     1.302   .     A
N40    O42     1.301   .     A
N40    O41     1.301   .     A
N45    O47     1.300   .     A
N45    O278    1.299   1_545 S
O46    N161    1.299   .     S
N48    O50     1.300   .     A
N48    O165    1.300   .     S
O49    N280    1.300   1_545 S
N51    O53     1.302   .     A
N51    O52     1.301   .     A
N51    C147    1.443   .     S
N54    O55     1.301   .     A
N54    O56     1.302   .     A
N54    C264    1.443   1_545 S
Cl57   N381    1.726   .     S
Cl58   N730    1.726   1_554 S
O59    C63     1.292   .     A
O59    Cu71    1.956   .     S
O60    C64     1.292   .     A
O60    Cu72    1.956   .     S
O61    Cu72    1.954   .     S
O61    C63     1.298   .     A
O62    C64     1.298   .     A
O62    Cu71    1.954   .     S
C63    C89     1.431   .     S
C64    C90     1.431   .     S
O65    C69     1.302   .     A
O65    Cu71    1.968   .     S
O66    Cu72    1.968   .     S
O66    C70     1.302   .     A
O67    Cu72    1.960   .     S
O67    C69     1.300   .     A
O68    C70     1.300   .     A
O68    Cu71    1.960   .     S
C69    C76     1.456   .     S
C70    C75     1.456   .     S
Cu71   N92     2.037   .     S
Cu71   Cu72    2.711   .     S
Cu72   N91     2.037   .     S
C73    C75     1.402   .     A
C73    C83     1.407   .     A
C73    Cl93    1.781   .     S
C74    C76     1.402   .     A
C74    Cl94    1.781   .     S
C74    C84     1.407   .     A
C75    C77     1.404   .     A
C76    C78     1.405   .     A
C77    C79     1.413   .     A
C77    N95     1.435   .     S
C78    N98     1.435   .     S
C78    C80     1.413   .     A
C79    C85     1.422   .     A
C79    C81     1.423   .     A
C80    C86     1.422   .     A
C80    C82     1.423   .     A
C81    C83     1.418   .     A
C81    C24     1.408   1_655 S
C82    C84     1.418   .     A
C83    C88     1.415   .     A
C84    C87     1.415   .     A
C85    Cl101   1.775   .     S
C85    C29     1.405   1_655 S
C86    Cl102   1.775   .     S
C87    N103    1.443   .     S
C88    N106    1.443   .     S
C88    C28     1.405   1_655 S
C89    C322    1.356   1_545 S
C89    N341    1.443   1_545 S
C90    C205    1.356   .     S
C90    N228    1.443   .     S
N91    N788    1.301   1_554 S
N91    Cl811   1.726   1_554 S
N92    N439    1.301   .     S
N92    Cl464   1.726   .     S
N95    O96     1.302   .     A
N95    O97     1.302   .     A
N98    O100    1.301   .     A
N98    O99     1.301   .     A
N103   O105    1.300   .     A
N103   O336    1.299   1_545 S
O104   N219    1.299   .     S
N106   O108    1.300   .     A
N106   O223    1.300   .     S
O107   N338    1.300   1_545 S
N109   O111    1.302   .     A
N109   O110    1.301   .     A
N109   C205    1.443   .     S
N112   O113    1.301   .     A
N112   O114    1.302   .     A
N112   C322    1.443   1_545 S
Cl115  N439    1.726   .     S
Cl116  N788    1.726   1_554 S
O117   C121    1.292   .     A
O117   Cu129   1.956   .     S
O118   C122    1.292   .     A
O118   Cu130   1.956   .     S
O119   Cu130   1.954   .     S
O119   C121    1.298   .     A
O120   C122    1.298   .     A
O120   Cu129   1.954   .     S
C121   C147    1.431   .     S
C122   C148    1.431   .     S
O123   C127    1.302   .     A
O123   Cu129   1.968   .     S
O124   Cu130   1.968   .     S
O124   C128    1.302   .     A
O125   Cu130   1.960   .     S
O125   C127    1.300   .     A
O126   C128    1.300   .     A
O126   Cu129   1.960   .     S
C127   C134    1.456   .     S
C128   C133    1.456   .     S
Cu129  N150    2.037   .     S
Cu129  Cu130   2.711   .     S
Cu130  N149    2.037   .     S
C131   C133    1.402   .     A
C131   C141    1.407   .     A
C131   Cl151   1.781   .     S
C132   C134    1.402   .     A
C132   Cl152   1.781   .     S
C132   C142    1.407   .     A
C133   C135    1.404   .     A
C134   C136    1.405   .     A
C135   C137    1.413   .     A
C135   N153    1.435   .     S
C136   N156    1.435   .     S
C136   C138    1.413   .     A
C137   C143    1.422   .     A
C137   C139    1.423   .     A
C138   C144    1.422   .     A
C138   C140    1.423   .     A
C139   C141    1.418   .     A
C139   C198    1.408   .     S
C140   C142    1.418   .     A
C140   C197    1.408   1_455 S
C141   C146    1.415   .     A
C142   C145    1.415   .     A
C143   Cl159   1.775   .     S
C143   C203    1.405   .     S
C144   Cl160   1.775   .     S
C144   C204    1.405   1_455 S
C145   N161    1.443   .     S
C145   C201    1.405   1_455 S
C146   N164    1.443   .     S
C146   C202    1.405   .     S
C148   C263    1.356   .     S
C148   N286    1.443   .     S
N149   N846    1.301   1_554 S
N149   Cl869   1.726   1_554 S
N150   N497    1.301   .     S
N150   Cl522   1.726   .     S
N153   O154    1.302   .     A
N153   O155    1.302   .     A
N156   O158    1.301   .     A
N156   O157    1.301   .     A
N161   O163    1.300   .     A
O162   N277    1.299   .     S
N164   O166    1.300   .     A
N164   O281    1.300   .     S
N167   O169    1.302   .     A
N167   O168    1.301   .     A
N167   C263    1.443   .     S
N170   O171    1.301   .     A
N170   O172    1.302   .     A
Cl173  N497    1.726   .     S
Cl174  N846    1.726   1_554 S
O175   C179    1.292   .     A
O175   Cu187   1.956   .     S
O176   C180    1.292   .     A
O176   Cu188   1.956   .     S
O177   Cu188   1.954   .     S
O177   C179    1.298   .     A
O178   C180    1.298   .     A
O178   Cu187   1.954   .     S
C179   C205    1.431   .     S
C180   C206    1.431   .     S
O181   C185    1.302   .     A
O181   Cu187   1.968   .     S
O182   Cu188   1.968   .     S
O182   C186    1.302   .     A
O183   Cu188   1.960   .     S
O183   C185    1.300   .     A
O184   C186    1.300   .     A
O184   Cu187   1.960   .     S
C185   C192    1.456   .     S
C186   C191    1.456   .     S
Cu187  N208    2.037   .     S
Cu187  Cu188   2.711   .     S
Cu188  N207    2.037   .     S
C189   C191    1.402   .     A
C189   C199    1.407   .     A
C189   Cl209   1.781   .     S
C190   C192    1.402   .     A
C190   Cl210   1.781   .     S
C190   C200    1.407   .     A
C191   C193    1.404   .     A
C192   C194    1.405   .     A
C193   C195    1.413   .     A
C193   N211    1.435   .     S
C194   N214    1.435   .     S
C194   C196    1.413   .     A
C195   C201    1.422   .     A
C195   C197    1.423   .     A
C196   C202    1.422   .     A
C196   C198    1.423   .     A
C197   C199    1.418   .     A
C197   C140    1.408   1_655 S
C198   C200    1.418   .     A
C199   C204    1.415   .     A
C200   C203    1.415   .     A
C201   Cl217   1.775   .     S
C201   C145    1.405   1_655 S
C202   Cl218   1.775   .     S
C203   N219    1.443   .     S
C204   N222    1.443   .     S
C204   C144    1.405   1_655 S
C206   C321    1.356   .     S
C206   N344    1.443   .     S
N207   N904    1.301   1_554 S
N207   Cl927   1.726   1_554 S
N208   N555    1.301   .     S
N208   Cl580   1.726   .     S
N211   O212    1.302   .     A
N211   O213    1.302   .     A
N214   O216    1.301   .     A
N214   O215    1.301   .     A
N219   O221    1.300   .     A
O220   N335    1.299   .     S
N222   O224    1.300   .     A
N222   O339    1.300   .     S
N225   O227    1.302   .     A
N225   O226    1.301   .     A
N225   C321    1.443   .     S
N228   O229    1.301   .     A
N228   O230    1.302   .     A
Cl231  N555    1.726   .     S
Cl232  N904    1.726   1_554 S
O233   C237    1.292   .     A
O233   Cu245   1.956   .     S
O234   C238    1.292   .     A
O234   Cu246   1.956   .     S
O235   Cu246   1.954   .     S
O235   C237    1.298   .     A
O236   C238    1.298   .     A
O236   Cu245   1.954   .     S
C237   C263    1.431   .     S
C238   C264    1.431   .     S
O239   C243    1.302   .     A
O239   Cu245   1.968   .     S
O240   Cu246   1.968   .     S
O240   C244    1.302   .     A
O241   Cu246   1.960   .     S
O241   C243    1.300   .     A
O242   C244    1.300   .     A
O242   Cu245   1.960   .     S
C243   C250    1.456   .     S
C244   C249    1.456   .     S
Cu245  N266    2.037   .     S
Cu245  Cu246   2.711   .     S
Cu246  N265    2.037   .     S
C247   C249    1.402   .     A
C247   C257    1.407   .     A
C247   Cl267   1.781   .     S
C248   C250    1.402   .     A
C248   Cl268   1.781   .     S
C248   C258    1.407   .     A
C249   C251    1.404   .     A
C250   C252    1.405   .     A
C251   C253    1.413   .     A
C251   N269    1.435   .     S
C252   N272    1.435   .     S
C252   C254    1.413   .     A
C253   C259    1.422   .     A
C253   C255    1.423   .     A
C254   C260    1.422   .     A
C254   C256    1.423   .     A
C255   C257    1.418   .     A
C255   C314    1.408   .     S
C256   C258    1.418   .     A
C256   C313    1.408   1_455 S
C257   C262    1.415   .     A
C258   C261    1.415   .     A
C259   Cl275   1.775   .     S
C259   C319    1.405   .     S
C260   Cl276   1.775   .     S
C260   C320    1.405   1_455 S
C261   N277    1.443   .     S
C261   C317    1.405   1_455 S
C262   N280    1.443   .     S
C262   C318    1.405   .     S
C264   C31     1.356   1_565 S
C264   N54     1.443   1_565 S
N265   N962    1.301   1_554 S
N265   Cl985   1.726   1_554 S
N266   N613    1.301   .     S
N266   Cl638   1.726   .     S
N269   O270    1.302   .     A
N269   O271    1.302   .     A
N272   O274    1.301   .     A
N272   O273    1.301   .     A
N277   O279    1.300   .     A
O278   N45     1.299   1_565 S
N280   O282    1.300   .     A
N280   O49     1.300   1_565 S
N283   O285    1.302   .     A
N283   O284    1.301   .     A
N283   C31     1.443   1_565 S
N286   O287    1.301   .     A
N286   O288    1.302   .     A
Cl289  N613    1.726   .     S
Cl290  N962    1.726   1_554 S
O291   C295    1.292   .     A
O291   Cu303   1.956   .     S
O292   C296    1.292   .     A
O292   Cu304   1.956   .     S
O293   Cu304   1.954   .     S
O293   C295    1.298   .     A
O294   C296    1.298   .     A
O294   Cu303   1.954   .     S
C295   C321    1.431   .     S
C296   C322    1.431   .     S
O297   C301    1.302   .     A
O297   Cu303   1.968   .     S
O298   Cu304   1.968   .     S
O298   C302    1.302   .     A
O299   Cu304   1.960   .     S
O299   C301    1.300   .     A
O300   C302    1.300   .     A
O300   Cu303   1.960   .     S
C301   C308    1.456   .     S
C302   C307    1.456   .     S
Cu303  N324    2.037   .     S
Cu303  Cu304   2.711   .     S
Cu304  N323    2.037   .     S
C305   C307    1.402   .     A
C305   C315    1.407   .     A
C305   Cl325   1.781   .     S
C306   C308    1.402   .     A
C306   Cl326   1.781   .     S
C306   C316    1.407   .     A
C307   C309    1.404   .     A
C308   C310    1.405   .     A
C309   C311    1.413   .     A
C309   N327    1.435   .     S
C310   N330    1.435   .     S
C310   C312    1.413   .     A
C311   C317    1.422   .     A
C311   C313    1.423   .     A
C312   C318    1.422   .     A
C312   C314    1.423   .     A
C313   C315    1.418   .     A
C313   C256    1.408   1_655 S
C314   C316    1.418   .     A
C315   C320    1.415   .     A
C316   C319    1.415   .     A
C317   Cl333   1.775   .     S
C317   C261    1.405   1_655 S
C318   Cl334   1.775   .     S
C319   N335    1.443   .     S
C320   N338    1.443   .     S
C320   C260    1.405   1_655 S
C322   C89     1.356   1_565 S
C322   N112    1.443   1_565 S
N323   N1020   1.301   1_554 S
N323   Cl1043  1.726   1_554 S
N324   N671    1.301   .     S
N324   Cl696   1.726   .     S
N327   O328    1.302   .     A
N327   O329    1.302   .     A
N330   O332    1.301   .     A
N330   O331    1.301   .     A
N335   O337    1.300   .     A
O336   N103    1.299   1_565 S
N338   O340    1.300   .     A
N338   O107    1.300   1_565 S
N341   O343    1.302   .     A
N341   O342    1.301   .     A
N341   C89     1.443   1_565 S
N344   O345    1.301   .     A
N344   O346    1.302   .     A
Cl347  N671    1.726   .     S
Cl348  N1020   1.726   1_554 S
O349   C353    1.292   .     A
O349   Cu361   1.956   .     S
O350   C354    1.292   .     A
O350   Cu362   1.956   .     S
O351   Cu362   1.954   .     S
O351   C353    1.298   .     A
O352   C354    1.298   .     A
O352   Cu361   1.954   .     S
C353   C379    1.431   .     S
C354   C380    1.431   .     S
O355   C359    1.302   .     A
O355   Cu361   1.968   .     S
O356   Cu362   1.968   .     S
O356   C360    1.302   .     A
O357   Cu362   1.960   .     S
O357   C359    1.300   .     A
O358   C360    1.300   .     A
O358   Cu361   1.960   .     S
C359   C366    1.456   .     S
C360   C365    1.456   .     S
Cu361  N382    2.037   .     S
Cu361  Cu362   2.711   .     S
Cu362  N381    2.037   .     S
C363   C365    1.402   .     A
C363   C373    1.407   .     A
C363   Cl383   1.781   .     S
C364   C366    1.402   .     A
C364   Cl384   1.781   .     S
C364   C374    1.407   .     A
C365   C367    1.404   .     A
C366   C368    1.405   .     A
C367   C369    1.413   .     A
C367   N385    1.435   .     S
C368   N388    1.435   .     S
C368   C370    1.413   .     A
C369   C375    1.422   .     A
C369   C371    1.423   .     A
C370   C376    1.422   .     A
C370   C372    1.423   .     A
C371   C373    1.418   .     A
C371   C430    1.408   .     S
C372   C374    1.418   .     A
C372   C429    1.408   1_455 S
C373   C378    1.415   .     A
C374   C377    1.415   .     A
C375   Cl391   1.775   .     S
C375   C435    1.405   .     S
C376   Cl392   1.775   .     S
C376   C436    1.405   1_455 S
C377   N393    1.443   .     S
C377   C433    1.405   1_455 S
C378   N396    1.443   .     S
C378   C434    1.405   .     S
C379   C612    1.356   1_545 S
C379   N631    1.443   1_545 S
C380   C495    1.356   .     S
C380   N518    1.443   .     S
N382   N729    1.301   .     S
N382   Cl754   1.726   .     S
N385   O386    1.302   .     A
N385   O387    1.302   .     A
N388   O390    1.301   .     A
N388   O389    1.301   .     A
N393   O395    1.300   .     A
N393   O626    1.299   1_545 S
O394   N509    1.299   .     S
N396   O398    1.300   .     A
N396   O513    1.300   .     S
O397   N628    1.300   1_545 S
N399   O401    1.302   .     A
N399   O400    1.301   .     A
N399   C495    1.443   .     S
N402   O403    1.301   .     A
N402   O404    1.302   .     A
N402   C612    1.443   1_545 S
Cl405  N729    1.726   .     S
O407   C411    1.292   .     A
O407   Cu419   1.956   .     S
O408   C412    1.292   .     A
O408   Cu420   1.956   .     S
O409   Cu420   1.954   .     S
O409   C411    1.298   .     A
O410   C412    1.298   .     A
O410   Cu419   1.954   .     S
C411   C437    1.431   .     S
C412   C438    1.431   .     S
O413   C417    1.302   .     A
O413   Cu419   1.968   .     S
O414   Cu420   1.968   .     S
O414   C418    1.302   .     A
O415   Cu420   1.960   .     S
O415   C417    1.300   .     A
O416   C418    1.300   .     A
O416   Cu419   1.960   .     S
C417   C424    1.456   .     S
C418   C423    1.456   .     S
Cu419  N440    2.037   .     S
Cu419  Cu420   2.711   .     S
Cu420  N439    2.037   .     S
C421   C423    1.402   .     A
C421   C431    1.407   .     A
C421   Cl441   1.781   .     S
C422   C424    1.402   .     A
C422   Cl442   1.781   .     S
C422   C432    1.407   .     A
C423   C425    1.404   .     A
C424   C426    1.405   .     A
C425   C427    1.413   .     A
C425   N443    1.435   .     S
C426   N446    1.435   .     S
C426   C428    1.413   .     A
C427   C433    1.422   .     A
C427   C429    1.423   .     A
C428   C434    1.422   .     A
C428   C430    1.423   .     A
C429   C431    1.418   .     A
C429   C372    1.408   1_655 S
C430   C432    1.418   .     A
C431   C436    1.415   .     A
C432   C435    1.415   .     A
C433   Cl449   1.775   .     S
C433   C377    1.405   1_655 S
C434   Cl450   1.775   .     S
C435   N451    1.443   .     S
C436   N454    1.443   .     S
C436   C376    1.405   1_655 S
C437   C670    1.356   1_545 S
C437   N689    1.443   1_545 S
C438   C553    1.356   .     S
C438   N576    1.443   .     S
N440   N787    1.301   .     S
N440   Cl812   1.726   .     S
N443   O444    1.302   .     A
N443   O445    1.302   .     A
N446   O448    1.301   .     A
N446   O447    1.301   .     A
N451   O453    1.300   .     A
N451   O684    1.299   1_545 S
O452   N567    1.299   .     S
N454   O456    1.300   .     A
N454   O571    1.300   .     S
O455   N686    1.300   1_545 S
N457   O459    1.302   .     A
N457   O458    1.301   .     A
N457   C553    1.443   .     S
N460   O461    1.301   .     A
N460   O462    1.302   .     A
N460   C670    1.443   1_545 S
Cl463  N787    1.726   .     S
O465   C469    1.292   .     A
O465   Cu477   1.956   .     S
O466   C470    1.292   .     A
O466   Cu478   1.956   .     S
O467   Cu478   1.954   .     S
O467   C469    1.298   .     A
O468   C470    1.298   .     A
O468   Cu477   1.954   .     S
C469   C495    1.431   .     S
C470   C496    1.431   .     S
O471   C475    1.302   .     A
O471   Cu477   1.968   .     S
O472   Cu478   1.968   .     S
O472   C476    1.302   .     A
O473   Cu478   1.960   .     S
O473   C475    1.300   .     A
O474   C476    1.300   .     A
O474   Cu477   1.960   .     S
C475   C482    1.456   .     S
C476   C481    1.456   .     S
Cu477  N498    2.037   .     S
Cu477  Cu478   2.711   .     S
Cu478  N497    2.037   .     S
C479   C481    1.402   .     A
C479   C489    1.407   .     A
C479   Cl499   1.781   .     S
C480   C482    1.402   .     A
C480   Cl500   1.781   .     S
C480   C490    1.407   .     A
C481   C483    1.404   .     A
C482   C484    1.405   .     A
C483   C485    1.413   .     A
C483   N501    1.435   .     S
C484   N504    1.435   .     S
C484   C486    1.413   .     A
C485   C491    1.422   .     A
C485   C487    1.423   .     A
C486   C492    1.422   .     A
C486   C488    1.423   .     A
C487   C489    1.418   .     A
C487   C546    1.408   .     S
C488   C490    1.418   .     A
C488   C545    1.408   1_455 S
C489   C494    1.415   .     A
C490   C493    1.415   .     A
C491   Cl507   1.775   .     S
C491   C551    1.405   .     S
C492   Cl508   1.775   .     S
C492   C552    1.405   1_455 S
C493   N509    1.443   .     S
C493   C549    1.405   1_455 S
C494   N512    1.443   .     S
C494   C550    1.405   .     S
C496   C611    1.356   .     S
C496   N634    1.443   .     S
N498   N845    1.301   .     S
N498   Cl870   1.726   .     S
N501   O502    1.302   .     A
N501   O503    1.302   .     A
N504   O506    1.301   .     A
N504   O505    1.301   .     A
N509   O511    1.300   .     A
O510   N625    1.299   .     S
N512   O514    1.300   .     A
N512   O629    1.300   .     S
N515   O517    1.302   .     A
N515   O516    1.301   .     A
N515   C611    1.443   .     S
N518   O519    1.301   .     A
N518   O520    1.302   .     A
Cl521  N845    1.726   .     S
O523   C527    1.292   .     A
O523   Cu535   1.956   .     S
O524   C528    1.292   .     A
O524   Cu536   1.956   .     S
O525   Cu536   1.954   .     S
O525   C527    1.298   .     A
O526   C528    1.298   .     A
O526   Cu535   1.954   .     S
C527   C553    1.431   .     S
C528   C554    1.431   .     S
O529   C533    1.302   .     A
O529   Cu535   1.968   .     S
O530   Cu536   1.968   .     S
O530   C534    1.302   .     A
O531   Cu536   1.960   .     S
O531   C533    1.300   .     A
O532   C534    1.300   .     A
O532   Cu535   1.960   .     S
C533   C540    1.456   .     S
C534   C539    1.456   .     S
Cu535  N556    2.037   .     S
Cu535  Cu536   2.711   .     S
Cu536  N555    2.037   .     S
C537   C539    1.402   .     A
C537   C547    1.407   .     A
C537   Cl557   1.781   .     S
C538   C540    1.402   .     A
C538   Cl558   1.781   .     S
C538   C548    1.407   .     A
C539   C541    1.404   .     A
C540   C542    1.405   .     A
C541   C543    1.413   .     A
C541   N559    1.435   .     S
C542   N562    1.435   .     S
C542   C544    1.413   .     A
C543   C549    1.422   .     A
C543   C545    1.423   .     A
C544   C550    1.422   .     A
C544   C546    1.423   .     A
C545   C547    1.418   .     A
C545   C488    1.408   1_655 S
C546   C548    1.418   .     A
C547   C552    1.415   .     A
C548   C551    1.415   .     A
C549   Cl565   1.775   .     S
C549   C493    1.405   1_655 S
C550   Cl566   1.775   .     S
C551   N567    1.443   .     S
C552   N570    1.443   .     S
C552   C492    1.405   1_655 S
C554   C669    1.356   .     S
C554   N692    1.443   .     S
N556   N903    1.301   .     S
N556   Cl928   1.726   .     S
N559   O560    1.302   .     A
N559   O561    1.302   .     A
N562   O564    1.301   .     A
N562   O563    1.301   .     A
N567   O569    1.300   .     A
O568   N683    1.299   .     S
N570   O572    1.300   .     A
N570   O687    1.300   .     S
N573   O575    1.302   .     A
N573   O574    1.301   .     A
N573   C669    1.443   .     S
N576   O577    1.301   .     A
N576   O578    1.302   .     A
Cl579  N903    1.726   .     S
O581   C585    1.292   .     A
O581   Cu593   1.956   .     S
O582   C586    1.292   .     A
O582   Cu594   1.956   .     S
O583   Cu594   1.954   .     S
O583   C585    1.298   .     A
O584   C586    1.298   .     A
O584   Cu593   1.954   .     S
C585   C611    1.431   .     S
C586   C612    1.431   .     S
O587   C591    1.302   .     A
O587   Cu593   1.968   .     S
O588   Cu594   1.968   .     S
O588   C592    1.302   .     A
O589   Cu594   1.960   .     S
O589   C591    1.300   .     A
O590   C592    1.300   .     A
O590   Cu593   1.960   .     S
C591   C598    1.456   .     S
C592   C597    1.456   .     S
Cu593  N614    2.037   .     S
Cu593  Cu594   2.711   .     S
Cu594  N613    2.037   .     S
C595   C597    1.402   .     A
C595   C605    1.407   .     A
C595   Cl615   1.781   .     S
C596   C598    1.402   .     A
C596   Cl616   1.781   .     S
C596   C606    1.407   .     A
C597   C599    1.404   .     A
C598   C600    1.405   .     A
C599   C601    1.413   .     A
C599   N617    1.435   .     S
C600   N620    1.435   .     S
C600   C602    1.413   .     A
C601   C607    1.422   .     A
C601   C603    1.423   .     A
C602   C608    1.422   .     A
C602   C604    1.423   .     A
C603   C605    1.418   .     A
C603   C662    1.408   .     S
C604   C606    1.418   .     A
C604   C661    1.408   1_455 S
C605   C610    1.415   .     A
C606   C609    1.415   .     A
C607   Cl623   1.775   .     S
C607   C667    1.405   .     S
C608   Cl624   1.775   .     S
C608   C668    1.405   1_455 S
C609   N625    1.443   .     S
C609   C665    1.405   1_455 S
C610   N628    1.443   .     S
C610   C666    1.405   .     S
C612   C379    1.356   1_565 S
C612   N402    1.443   1_565 S
N614   N961    1.301   .     S
N614   Cl986   1.726   .     S
N617   O618    1.302   .     A
N617   O619    1.302   .     A
N620   O622    1.301   .     A
N620   O621    1.301   .     A
N625   O627    1.300   .     A
O626   N393    1.299   1_565 S
N628   O630    1.300   .     A
N628   O397    1.300   1_565 S
N631   O633    1.302   .     A
N631   O632    1.301   .     A
N631   C379    1.443   1_565 S
N634   O635    1.301   .     A
N634   O636    1.302   .     A
Cl637  N961    1.726   .     S
O639   C643    1.292   .     A
O639   Cu651   1.956   .     S
O640   C644    1.292   .     A
O640   Cu652   1.956   .     S
O641   Cu652   1.954   .     S
O641   C643    1.298   .     A
O642   C644    1.298   .     A
O642   Cu651   1.954   .     S
C643   C669    1.431   .     S
C644   C670    1.431   .     S
O645   C649    1.302   .     A
O645   Cu651   1.968   .     S
O646   Cu652   1.968   .     S
O646   C650    1.302   .     A
O647   Cu652   1.960   .     S
O647   C649    1.300   .     A
O648   C650    1.300   .     A
O648   Cu651   1.960   .     S
C649   C656    1.456   .     S
C650   C655    1.456   .     S
Cu651  N672    2.037   .     S
Cu651  Cu652   2.711   .     S
Cu652  N671    2.037   .     S
C653   C655    1.402   .     A
C653   C663    1.407   .     A
C653   Cl673   1.781   .     S
C654   C656    1.402   .     A
C654   Cl674   1.781   .     S
C654   C664    1.407   .     A
C655   C657    1.404   .     A
C656   C658    1.405   .     A
C657   C659    1.413   .     A
C657   N675    1.435   .     S
C658   N678    1.435   .     S
C658   C660    1.413   .     A
C659   C665    1.422   .     A
C659   C661    1.423   .     A
C660   C666    1.422   .     A
C660   C662    1.423   .     A
C661   C663    1.418   .     A
C661   C604    1.408   1_655 S
C662   C664    1.418   .     A
C663   C668    1.415   .     A
C664   C667    1.415   .     A
C665   Cl681   1.775   .     S
C665   C609    1.405   1_655 S
C666   Cl682   1.775   .     S
C667   N683    1.443   .     S
C668   N686    1.443   .     S
C668   C608    1.405   1_655 S
C670   C437    1.356   1_565 S
C670   N460    1.443   1_565 S
N672   N1019   1.301   .     S
N672   Cl1044  1.726   .     S
N675   O676    1.302   .     A
N675   O677    1.302   .     A
N678   O680    1.301   .     A
N678   O679    1.301   .     A
N683   O685    1.300   .     A
O684   N451    1.299   1_565 S
N686   O688    1.300   .     A
N686   O455    1.300   1_565 S
N689   O691    1.302   .     A
N689   O690    1.301   .     A
N689   C437    1.443   1_565 S
N692   O693    1.301   .     A
N692   O694    1.302   .     A
Cl695  N1019   1.726   .     S
O697   C701    1.292   .     A
O697   Cu709   1.956   .     S
O698   C702    1.292   .     A
O698   Cu710   1.956   .     S
O699   Cu710   1.954   .     S
O699   C701    1.298   .     A
O700   C702    1.298   .     A
O700   Cu709   1.954   .     S
C701   C727    1.431   .     S
C702   C728    1.431   .     S
O703   C707    1.302   .     A
O703   Cu709   1.968   .     S
O704   Cu710   1.968   .     S
O704   C708    1.302   .     A
O705   Cu710   1.960   .     S
O705   C707    1.300   .     A
O706   C708    1.300   .     A
O706   Cu709   1.960   .     S
C707   C714    1.456   .     S
C708   C713    1.456   .     S
Cu709  N730    2.037   .     S
Cu709  Cu710   2.711   .     S
Cu710  N729    2.037   .     S
C711   C713    1.402   .     A
C711   C721    1.407   .     A
C711   Cl731   1.781   .     S
C712   C714    1.402   .     A
C712   Cl732   1.781   .     S
C712   C722    1.407   .     A
C713   C715    1.404   .     A
C714   C716    1.405   .     A
C715   C717    1.413   .     A
C715   N733    1.435   .     S
C716   N736    1.435   .     S
C716   C718    1.413   .     A
C717   C723    1.422   .     A
C717   C719    1.423   .     A
C718   C724    1.422   .     A
C718   C720    1.423   .     A
C719   C721    1.418   .     A
C719   C778    1.408   .     S
C720   C722    1.418   .     A
C720   C777    1.408   1_455 S
C721   C726    1.415   .     A
C722   C725    1.415   .     A
C723   Cl739   1.775   .     S
C723   C783    1.405   .     S
C724   Cl740   1.775   .     S
C724   C784    1.405   1_455 S
C725   N741    1.443   .     S
C725   C781    1.405   1_455 S
C726   N744    1.443   .     S
C726   C782    1.405   .     S
C727   C960    1.356   1_545 S
C727   N979    1.443   1_545 S
C728   C843    1.356   .     S
C728   N866    1.443   .     S
N730   N33     1.301   1_556 S
N730   Cl58    1.726   1_556 S
N733   O734    1.302   .     A
N733   O735    1.302   .     A
N736   O738    1.301   .     A
N736   O737    1.301   .     A
N741   O743    1.300   .     A
N741   O974    1.299   1_545 S
O742   N857    1.299   .     S
N744   O746    1.300   .     A
N744   O861    1.300   .     S
O745   N976    1.300   1_545 S
N747   O749    1.302   .     A
N747   O748    1.301   .     A
N747   C843    1.443   .     S
N750   O751    1.301   .     A
N750   O752    1.302   .     A
N750   C960    1.443   1_545 S
Cl753  N33     1.726   1_556 S
O755   C759    1.292   .     A
O755   Cu767   1.956   .     S
O756   C760    1.292   .     A
O756   Cu768   1.956   .     S
O757   Cu768   1.954   .     S
O757   C759    1.298   .     A
O758   C760    1.298   .     A
O758   Cu767   1.954   .     S
C759   C785    1.431   .     S
C760   C786    1.431   .     S
O761   C765    1.302   .     A
O761   Cu767   1.968   .     S
O762   Cu768   1.968   .     S
O762   C766    1.302   .     A
O763   Cu768   1.960   .     S
O763   C765    1.300   .     A
O764   C766    1.300   .     A
O764   Cu767   1.960   .     S
C765   C772    1.456   .     S
C766   C771    1.456   .     S
Cu767  N788    2.037   .     S
Cu767  Cu768   2.711   .     S
Cu768  N787    2.037   .     S
C769   C771    1.402   .     A
C769   C779    1.407   .     A
C769   Cl789   1.781   .     S
C770   C772    1.402   .     A
C770   Cl790   1.781   .     S
C770   C780    1.407   .     A
C771   C773    1.404   .     A
C772   C774    1.405   .     A
C773   C775    1.413   .     A
C773   N791    1.435   .     S
C774   N794    1.435   .     S
C774   C776    1.413   .     A
C775   C781    1.422   .     A
C775   C777    1.423   .     A
C776   C782    1.422   .     A
C776   C778    1.423   .     A
C777   C779    1.418   .     A
C777   C720    1.408   1_655 S
C778   C780    1.418   .     A
C779   C784    1.415   .     A
C780   C783    1.415   .     A
C781   Cl797   1.775   .     S
C781   C725    1.405   1_655 S
C782   Cl798   1.775   .     S
C783   N799    1.443   .     S
C784   N802    1.443   .     S
C784   C724    1.405   1_655 S
C785   C1018   1.356   1_545 S
C785   N1037   1.443   1_545 S
C786   C901    1.356   .     S
C786   N924    1.443   .     S
N788   N91     1.301   1_556 S
N788   Cl116   1.726   1_556 S
N791   O792    1.302   .     A
N791   O793    1.302   .     A
N794   O796    1.301   .     A
N794   O795    1.301   .     A
N799   O801    1.300   .     A
N799   O1032   1.299   1_545 S
O800   N915    1.299   .     S
N802   O804    1.300   .     A
N802   O919    1.300   .     S
O803   N1034   1.300   1_545 S
N805   O807    1.302   .     A
N805   O806    1.301   .     A
N805   C901    1.443   .     S
N808   O809    1.301   .     A
N808   O810    1.302   .     A
N808   C1018   1.443   1_545 S
Cl811  N91     1.726   1_556 S
O813   C817    1.292   .     A
O813   Cu825   1.956   .     S
O814   C818    1.292   .     A
O814   Cu826   1.956   .     S
O815   Cu826   1.954   .     S
O815   C817    1.298   .     A
O816   C818    1.298   .     A
O816   Cu825   1.954   .     S
C817   C843    1.431   .     S
C818   C844    1.431   .     S
O819   C823    1.302   .     A
O819   Cu825   1.968   .     S
O820   Cu826   1.968   .     S
O820   C824    1.302   .     A
O821   Cu826   1.960   .     S
O821   C823    1.300   .     A
O822   C824    1.300   .     A
O822   Cu825   1.960   .     S
C823   C830    1.456   .     S
C824   C829    1.456   .     S
Cu825  N846    2.037   .     S
Cu825  Cu826   2.711   .     S
Cu826  N845    2.037   .     S
C827   C829    1.402   .     A
C827   C837    1.407   .     A
C827   Cl847   1.781   .     S
C828   C830    1.402   .     A
C828   Cl848   1.781   .     S
C828   C838    1.407   .     A
C829   C831    1.404   .     A
C830   C832    1.405   .     A
C831   C833    1.413   .     A
C831   N849    1.435   .     S
C832   N852    1.435   .     S
C832   C834    1.413   .     A
C833   C839    1.422   .     A
C833   C835    1.423   .     A
C834   C840    1.422   .     A
C834   C836    1.423   .     A
C835   C837    1.418   .     A
C835   C894    1.408   .     S
C836   C838    1.418   .     A
C836   C893    1.408   1_455 S
C837   C842    1.415   .     A
C838   C841    1.415   .     A
C839   Cl855   1.775   .     S
C839   C899    1.405   .     S
C840   Cl856   1.775   .     S
C840   C900    1.405   1_455 S
C841   N857    1.443   .     S
C841   C897    1.405   1_455 S
C842   N860    1.443   .     S
C842   C898    1.405   .     S
C844   C959    1.356   .     S
C844   N982    1.443   .     S
N846   N149    1.301   1_556 S
N846   Cl174   1.726   1_556 S
N849   O850    1.302   .     A
N849   O851    1.302   .     A
N852   O854    1.301   .     A
N852   O853    1.301   .     A
N857   O859    1.300   .     A
O858   N973    1.299   .     S
N860   O862    1.300   .     A
N860   O977    1.300   .     S
N863   O865    1.302   .     A
N863   O864    1.301   .     A
N863   C959    1.443   .     S
N866   O867    1.301   .     A
N866   O868    1.302   .     A
Cl869  N149    1.726   1_556 S
O871   C875    1.292   .     A
O871   Cu883   1.956   .     S
O872   C876    1.292   .     A
O872   Cu884   1.956   .     S
O873   Cu884   1.954   .     S
O873   C875    1.298   .     A
O874   C876    1.298   .     A
O874   Cu883   1.954   .     S
C875   C901    1.431   .     S
C876   C902    1.431   .     S
O877   C881    1.302   .     A
O877   Cu883   1.968   .     S
O878   Cu884   1.968   .     S
O878   C882    1.302   .     A
O879   Cu884   1.960   .     S
O879   C881    1.300   .     A
O880   C882    1.300   .     A
O880   Cu883   1.960   .     S
C881   C888    1.456   .     S
C882   C887    1.456   .     S
Cu883  N904    2.037   .     S
Cu883  Cu884   2.711   .     S
Cu884  N903    2.037   .     S
C885   C887    1.402   .     A
C885   C895    1.407   .     A
C885   Cl905   1.781   .     S
C886   C888    1.402   .     A
C886   Cl906   1.781   .     S
C886   C896    1.407   .     A
C887   C889    1.404   .     A
C888   C890    1.405   .     A
C889   C891    1.413   .     A
C889   N907    1.435   .     S
C890   N910    1.435   .     S
C890   C892    1.413   .     A
C891   C897    1.422   .     A
C891   C893    1.423   .     A
C892   C898    1.422   .     A
C892   C894    1.423   .     A
C893   C895    1.418   .     A
C893   C836    1.408   1_655 S
C894   C896    1.418   .     A
C895   C900    1.415   .     A
C896   C899    1.415   .     A
C897   Cl913   1.775   .     S
C897   C841    1.405   1_655 S
C898   Cl914   1.775   .     S
C899   N915    1.443   .     S
C900   N918    1.443   .     S
C900   C840    1.405   1_655 S
C902   C1017   1.356   .     S
C902   N1040   1.443   .     S
N904   N207    1.301   1_556 S
N904   Cl232   1.726   1_556 S
N907   O908    1.302   .     A
N907   O909    1.302   .     A
N910   O912    1.301   .     A
N910   O911    1.301   .     A
N915   O917    1.300   .     A
O916   N1031   1.299   .     S
N918   O920    1.300   .     A
N918   O1035   1.300   .     S
N921   O923    1.302   .     A
N921   O922    1.301   .     A
N921   C1017   1.443   .     S
N924   O925    1.301   .     A
N924   O926    1.302   .     A
Cl927  N207    1.726   1_556 S
O929   C933    1.292   .     A
O929   Cu941   1.956   .     S
O930   C934    1.292   .     A
O930   Cu942   1.956   .     S
O931   Cu942   1.954   .     S
O931   C933    1.298   .     A
O932   C934    1.298   .     A
O932   Cu941   1.954   .     S
C933   C959    1.431   .     S
C934   C960    1.431   .     S
O935   C939    1.302   .     A
O935   Cu941   1.968   .     S
O936   Cu942   1.968   .     S
O936   C940    1.302   .     A
O937   Cu942   1.960   .     S
O937   C939    1.300   .     A
O938   C940    1.300   .     A
O938   Cu941   1.960   .     S
C939   C946    1.456   .     S
C940   C945    1.456   .     S
Cu941  N962    2.037   .     S
Cu941  Cu942   2.711   .     S
Cu942  N961    2.037   .     S
C943   C945    1.402   .     A
C943   C953    1.407   .     A
C943   Cl963   1.781   .     S
C944   C946    1.402   .     A
C944   Cl964   1.781   .     S
C944   C954    1.407   .     A
C945   C947    1.404   .     A
C946   C948    1.405   .     A
C947   C949    1.413   .     A
C947   N965    1.435   .     S
C948   N968    1.435   .     S
C948   C950    1.413   .     A
C949   C955    1.422   .     A
C949   C951    1.423   .     A
C950   C956    1.422   .     A
C950   C952    1.423   .     A
C951   C953    1.418   .     A
C951   C1010   1.408   .     S
C952   C954    1.418   .     A
C952   C1009   1.408   1_455 S
C953   C958    1.415   .     A
C954   C957    1.415   .     A
C955   Cl971   1.775   .     S
C955   C1015   1.405   .     S
C956   Cl972   1.775   .     S
C956   C1016   1.405   1_455 S
C957   N973    1.443   .     S
C957   C1013   1.405   1_455 S
C958   N976    1.443   .     S
C958   C1014   1.405   .     S
C960   C727    1.356   1_565 S
C960   N750    1.443   1_565 S
N962   N265    1.301   1_556 S
N962   Cl290   1.726   1_556 S
N965   O966    1.302   .     A
N965   O967    1.302   .     A
N968   O970    1.301   .     A
N968   O969    1.301   .     A
N973   O975    1.300   .     A
O974   N741    1.299   1_565 S
N976   O978    1.300   .     A
N976   O745    1.300   1_565 S
N979   O981    1.302   .     A
N979   O980    1.301   .     A
N979   C727    1.443   1_565 S
N982   O983    1.301   .     A
N982   O984    1.302   .     A
Cl985  N265    1.726   1_556 S
O987   C991    1.292   .     A
O987   Cu999   1.956   .     S
O988   C992    1.292   .     A
O988   Cu1000  1.956   .     S
O989   Cu1000  1.954   .     S
O989   C991    1.298   .     A
O990   C992    1.298   .     A
O990   Cu999   1.954   .     S
C991   C1017   1.431   .     S
C992   C1018   1.431   .     S
O993   C997    1.302   .     A
O993   Cu999   1.968   .     S
O994   Cu1000  1.968   .     S
O994   C998    1.302   .     A
O995   Cu1000  1.960   .     S
O995   C997    1.300   .     A
O996   C998    1.300   .     A
O996   Cu999   1.960   .     S
C997   C1004   1.456   .     S
C998   C1003   1.456   .     S
Cu999  N1020   2.037   .     S
Cu999  Cu1000  2.711   .     S
Cu1000 N1019   2.037   .     S
C1001  C1003   1.402   .     A
C1001  C1011   1.407   .     A
C1001  Cl1021  1.781   .     S
C1002  C1004   1.402   .     A
C1002  Cl1022  1.781   .     S
C1002  C1012   1.407   .     A
C1003  C1005   1.404   .     A
C1004  C1006   1.405   .     A
C1005  C1007   1.413   .     A
C1005  N1023   1.435   .     S
C1006  N1026   1.435   .     S
C1006  C1008   1.413   .     A
C1007  C1013   1.422   .     A
C1007  C1009   1.423   .     A
C1008  C1014   1.422   .     A
C1008  C1010   1.423   .     A
C1009  C1011   1.418   .     A
C1009  C952    1.408   1_655 S
C1010  C1012   1.418   .     A
C1011  C1016   1.415   .     A
C1012  C1015   1.415   .     A
C1013  Cl1029  1.775   .     S
C1013  C957    1.405   1_655 S
C1014  Cl1030  1.775   .     S
C1015  N1031   1.443   .     S
C1016  N1034   1.443   .     S
C1016  C956    1.405   1_655 S
C1018  C785    1.356   1_565 S
C1018  N808    1.443   1_565 S
N1020  N323    1.301   1_556 S
N1020  Cl348   1.726   1_556 S
N1023  O1024   1.302   .     A
N1023  O1025   1.302   .     A
N1026  O1028   1.301   .     A
N1026  O1027   1.301   .     A
N1031  O1033   1.300   .     A
O1032  N799    1.299   1_565 S
N1034  O1036   1.300   .     A
N1034  O803    1.300   1_565 S
N1037  O1039   1.302   .     A
N1037  O1038   1.301   .     A
N1037  C785    1.443   1_565 S
N1040  O1041   1.301   .     A
N1040  O1042   1.302   .     A
Cl1043 N323    1.726   1_556 S
