data_str_m2_o1_o1_pcu_sym.74
_audit_creation_date              2020-01-03
_audit_creation_method            'Materials Studio'
_symmetry_space_group_name_H-M    'P1'
_symmetry_Int_Tables_number       1
_symmetry_cell_setting            triclinic
loop_
_symmetry_equiv_pos_as_xyz
  x,y,z
_cell_length_a                    33.1661
_cell_length_b                    28.5068
_cell_length_c                    29.3003
_cell_angle_alpha                 88.8776
_cell_angle_beta                  90.5144
_cell_angle_gamma                 90.9124
loop_
_atom_site_label
_atom_site_type_symbol
_atom_site_fract_x
_atom_site_fract_y
_atom_site_fract_z
_atom_site_U_iso_or_equiv
_atom_site_adp_type
_atom_site_occupancy
C1     C     0.05853   0.18948   0.16703   0.00000  Uiso   1.00
C2     C     0.49560   0.29151   0.30800   0.00000  Uiso   1.00
C3     C     0.00232   0.29227   0.02405   0.00000  Uiso   1.00
C4     C     0.00632   0.21060   0.31089   0.00000  Uiso   1.00
C5     C     0.24497   0.45997   0.02408   0.00000  Uiso   1.00
C6     C     0.24650   0.04171   0.30809   0.00000  Uiso   1.00
C7     C     0.25301   0.04220   0.02429   0.00000  Uiso   1.00
C8     C     0.25607   0.46058   0.31081   0.00000  Uiso   1.00
C9     C     0.38380   0.14700   0.12901   0.00000  Uiso   1.00
C10    C     0.12332   0.33922   0.20703   0.00000  Uiso   1.00
C11    C     0.11426   0.35261   0.12591   0.00000  Uiso   1.00
C12    C     0.43963   0.30802   0.16641   0.00000  Uiso   1.00
C13    C     0.40710   0.11975   0.20348   0.00000  Uiso   1.00
C14    C     0.11077   0.13900   0.20739   0.00000  Uiso   1.00
C15    C     0.38858   0.35947   0.12604   0.00000  Uiso   1.00
C16    C     0.38174   0.34593   0.20684   0.00000  Uiso   1.00
C17    C     0.09904   0.12914   0.12688   0.00000  Uiso   1.00
C18    C     0.13432   0.39594   0.12896   0.00000  Uiso   1.00
C19    C     0.37361   0.08886   0.20635   0.00000  Uiso   1.00
C20    C     0.36303   0.10414   0.12557   0.00000  Uiso   1.00
C21    C     0.15684   0.37016   0.20418   0.00000  Uiso   1.00
C22    C     0.35937   0.38737   0.20791   0.00000  Uiso   1.00
C23    C     0.44119   0.18971   0.16684   0.00000  Uiso   1.00
C24    C     0.13653   0.10698   0.12491   0.00000  Uiso   1.00
C25    C     0.13304   0.09754   0.20680   0.00000  Uiso   1.00
C26    C     0.35087   0.38082   0.12657   0.00000  Uiso   1.00
C27    C     0.10026   0.33207   0.16687   0.00000  Uiso   1.00
C28    C     0.40928   0.15314   0.16728   0.00000  Uiso   1.00
C29    C     0.40304   0.33745   0.16627   0.00000  Uiso   1.00
C30    C     0.08956   0.15241   0.16731   0.00000  Uiso   1.00
C31    C     0.34992   0.08260   0.16652   0.00000  Uiso   1.00
C32    C     0.15936   0.40297   0.16746   0.00000  Uiso   1.00
C33    C     0.15267   0.08704   0.16566   0.00000  Uiso   1.00
C34    C     0.06198   0.30517   0.16678   0.00000  Uiso   1.00
C35    C     0.33930   0.40205   0.16738   0.00000  Uiso   1.00
C36    C     0.46000   0.17707   0.03421   0.00000  Uiso   1.00
C37    C     0.47124   0.13338   0.06200   0.00000  Uiso   1.00
C38    C     0.47880   0.33636   0.28450   0.00000  Uiso   1.00
C39    C     0.00843   0.36631   0.25616   0.00000  Uiso   1.00
C40    C     0.49978   0.34233   0.04383   0.00000  Uiso   1.00
C41    C     0.01622   0.36758   0.08550   0.00000  Uiso   1.00
C42    C     0.04026   0.17897   0.30064   0.00000  Uiso   1.00
C43    C     0.02652   0.13423   0.27763   0.00000  Uiso   1.00
C44    C     0.21145   0.42552   0.03516   0.00000  Uiso   1.00
C45    C     0.30843   0.43933   0.16702   0.00000  Uiso   1.00
C46    C     0.22438   0.38323   0.06405   0.00000  Uiso   1.00
C47    C     0.23096   0.08726   0.28455   0.00000  Uiso   1.00
C48    C     0.26118   0.11655   0.25652   0.00000  Uiso   1.00
C49    C     0.25139   0.09213   0.04452   0.00000  Uiso   1.00
C50    C     0.26327   0.11839   0.08784   0.00000  Uiso   1.00
C51    C     0.29032   0.42936   0.30092   0.00000  Uiso   1.00
C52    C     0.27677   0.38419   0.27851   0.00000  Uiso   1.00
C53    C     0.35634   0.22358   0.11305   0.00000  Uiso   1.00
C54    C     0.11626   0.32966   0.29091   0.00000  Uiso   1.00
C55    C     0.12984   0.28255   0.08377   0.00000  Uiso   1.00
C56    C     0.18942   0.05774   0.16627   0.00000  Uiso   1.00
C57    C     0.46050   0.06650   0.22603   0.00000  Uiso   1.00
C58    C     0.15517   0.20056   0.23227   0.00000  Uiso   1.00
C59    C     0.42845   0.41853   0.08815   0.00000  Uiso   1.00
C60    C     0.36573   0.26914   0.23963   0.00000  Uiso   1.00
C61    C     0.06592   0.08813   0.06410   0.00000  Uiso   1.00
C62    C     0.10856   0.47318   0.11069   0.00000  Uiso   1.00
C63    C     0.36760   0.07788   0.29020   0.00000  Uiso   1.00
C64    C     0.37633   0.03590   0.07999   0.00000  Uiso   1.00
C65    C     0.21012   0.31708   0.22732   0.00000  Uiso   1.00
C66    C     0.40422   0.44856   0.23282   0.00000  Uiso   1.00
C67    C     0.19123   0.43963   0.16686   0.00000  Uiso   1.00
C68    C     0.15815   0.15270   0.05685   0.00000  Uiso   1.00
C69    C     0.11619   0.02194   0.24152   0.00000  Uiso   1.00
C70    C     0.31755   0.34186   0.06458   0.00000  Uiso   1.00
C71    C     0.31187   0.05535   0.16672   0.00000  Uiso   1.00
C72    C     0.49497   0.20992   0.02414   0.00000  Uiso   1.00
Cu73   Cu    0.00000   0.25000   0.21355   0.00000  Uiso   1.00
Cu74   Cu   -0.00000   0.25000   0.11978   0.00000  Uiso   1.00
Cu75   Cu    0.25000  -0.00000   0.21355   0.00000  Uiso   1.00
Cu76   Cu    0.25000  -0.00000   0.11978   0.00000  Uiso   1.00
H77    H     0.48123   0.10565   0.03910   0.00000  Uiso   1.00
H78    H     0.46448   0.36120   0.30729   0.00000  Uiso   1.00
H79    H     0.13120   0.00198   0.21468   0.00000  Uiso   1.00
H80    H     0.34226   0.40937   0.06260   0.00000  Uiso   1.00
H81    H     0.30112   0.34801   0.03223   0.00000  Uiso   1.00
H82    H     0.29815   0.32063   0.08812   0.00000  Uiso   1.00
H83    H     0.34447   0.32162   0.05581   0.00000  Uiso   1.00
H84    H     0.00997   0.40558   0.08162   0.00000  Uiso   1.00
H85    H     0.00175   0.35728   0.11794   0.00000  Uiso   1.00
H86    H     0.04894   0.36749   0.08608   0.00000  Uiso   1.00
H87    H     0.01520   0.36529   0.01811   0.00000  Uiso   1.00
H88    H     0.46772   0.34926   0.04348   0.00000  Uiso   1.00
H89    H     0.00495   0.11439   0.29950   0.00000  Uiso   1.00
H90    H     0.01186   0.14267   0.24471   0.00000  Uiso   1.00
H91    H     0.05269   0.11151   0.27168   0.00000  Uiso   1.00
H92    H     0.06272   0.19967   0.28151   0.00000  Uiso   1.00
H93    H     0.49463   0.14115   0.08808   0.00000  Uiso   1.00
H94    H     0.05661   0.16875   0.33204   0.00000  Uiso   1.00
H95    H     0.23578   0.35559   0.04190   0.00000  Uiso   1.00
H96    H     0.24740   0.39291   0.08991   0.00000  Uiso   1.00
H97    H     0.19796   0.36763   0.08177   0.00000  Uiso   1.00
H98    H     0.18730   0.44517   0.05092   0.00000  Uiso   1.00
H99    H     0.19701   0.41200   0.00351   0.00000  Uiso   1.00
H100   H     0.29249   0.10686   0.26491   0.00000  Uiso   1.00
H101   H     0.25483   0.11342   0.21952   0.00000  Uiso   1.00
H102   H     0.25832   0.15439   0.26423   0.00000  Uiso   1.00
H103   H     0.20231   0.08157   0.26839   0.00000  Uiso   1.00
H104   H     0.44430   0.11880   0.07939   0.00000  Uiso   1.00
H105   H     0.21722   0.11252   0.30730   0.00000  Uiso   1.00
H106   H     0.25214   0.15487   0.08419   0.00000  Uiso   1.00
H107   H     0.24964   0.10580   0.11979   0.00000  Uiso   1.00
H108   H     0.29585   0.12354   0.09064   0.00000  Uiso   1.00
H109   H     0.26818   0.11485   0.01971   0.00000  Uiso   1.00
H110   H     0.21946   0.09854   0.04239   0.00000  Uiso   1.00
H111   H     0.25480   0.36484   0.30029   0.00000  Uiso   1.00
H112   H     0.26261   0.39212   0.24518   0.00000  Uiso   1.00
H113   H     0.30289   0.36117   0.27348   0.00000  Uiso   1.00
H114   H     0.31257   0.45006   0.28147   0.00000  Uiso   1.00
H115   H     0.43657   0.19742   0.05062   0.00000  Uiso   1.00
H116   H     0.30685   0.42013   0.33256   0.00000  Uiso   1.00
H117   H     0.36567   0.17369   0.06511   0.00000  Uiso   1.00
H118   H     0.32753   0.21217   0.12925   0.00000  Uiso   1.00
H119   H     0.34938   0.24788   0.08427   0.00000  Uiso   1.00
H120   H     0.37543   0.24281   0.13770   0.00000  Uiso   1.00
H121   H     0.10598   0.27625   0.24278   0.00000  Uiso   1.00
H122   H     0.08859   0.31659   0.30837   0.00000  Uiso   1.00
H123   H     0.11544   0.36861   0.28870   0.00000  Uiso   1.00
H124   H     0.14273   0.31887   0.31178   0.00000  Uiso   1.00
H125   H     0.11951   0.34757   0.05499   0.00000  Uiso   1.00
H126   H     0.44512   0.16522   0.00215   0.00000  Uiso   1.00
H127   H     0.16297   0.28615   0.08896   0.00000  Uiso   1.00
H128   H     0.12392   0.26562   0.05051   0.00000  Uiso   1.00
H129   H     0.11716   0.25929   0.11102   0.00000  Uiso   1.00
H130   H     0.43819   0.12155   0.26500   0.00000  Uiso   1.00
H131   H     0.45966   0.04597   0.25864   0.00000  Uiso   1.00
H132   H     0.49233   0.07189   0.21575   0.00000  Uiso   1.00
H133   H     0.44568   0.04532   0.19895   0.00000  Uiso   1.00
H134   H     0.12101   0.15791   0.27432   0.00000  Uiso   1.00
H135   H     0.18208   0.17807   0.22934   0.00000  Uiso   1.00
H136   H     0.16076   0.22510   0.26066   0.00000  Uiso   1.00
H137   H     0.03998   0.35786   0.26493   0.00000  Uiso   1.00
H138   H     0.15095   0.22116   0.20003   0.00000  Uiso   1.00
H139   H     0.40223   0.36079   0.05780   0.00000  Uiso   1.00
H140   H     0.44640   0.42596   0.05700   0.00000  Uiso   1.00
H141   H     0.44717   0.42563   0.11896   0.00000  Uiso   1.00
H142   H     0.40287   0.44300   0.08718   0.00000  Uiso   1.00
H143   H     0.37378   0.32959   0.27596   0.00000  Uiso   1.00
H144   H     0.33363   0.27190   0.22880   0.00000  Uiso   1.00
H145   H     0.36724   0.24872   0.27226   0.00000  Uiso   1.00
H146   H     0.38272   0.24976   0.21400   0.00000  Uiso   1.00
H147   H     0.07898   0.16054   0.06704   0.00000  Uiso   1.00
H148   H     0.00263   0.36241   0.21916   0.00000  Uiso   1.00
H149   H     0.04540   0.09416   0.03491   0.00000  Uiso   1.00
H150   H     0.05210   0.06164   0.08772   0.00000  Uiso   1.00
H151   H     0.09367   0.07434   0.04925   0.00000  Uiso   1.00
H152   H     0.11549   0.42078   0.06474   0.00000  Uiso   1.00
H153   H     0.07811   0.46398   0.12399   0.00000  Uiso   1.00
H154   H     0.10539   0.49853   0.08179   0.00000  Uiso   1.00
H155   H     0.12674   0.49047   0.13749   0.00000  Uiso   1.00
H156   H     0.35642   0.02543   0.24136   0.00000  Uiso   1.00
H157   H     0.34011   0.06458   0.30787   0.00000  Uiso   1.00
H158   H     0.36681   0.11686   0.28864   0.00000  Uiso   1.00
H159   H     0.00447   0.40411   0.26330   0.00000  Uiso   1.00
H160   H     0.39428   0.06674   0.31053   0.00000  Uiso   1.00
H161   H     0.36387   0.10149   0.05388   0.00000  Uiso   1.00
H162   H     0.40970   0.03974   0.08136   0.00000  Uiso   1.00
H163   H     0.36746   0.01924   0.04739   0.00000  Uiso   1.00
H164   H     0.36632   0.01222   0.10832   0.00000  Uiso   1.00
H165   H     0.18752   0.37220   0.26592   0.00000  Uiso   1.00
H166   H     0.20959   0.29694   0.26016   0.00000  Uiso   1.00
H167   H     0.24184   0.32237   0.21661   0.00000  Uiso   1.00
H168   H     0.19514   0.29555   0.20063   0.00000  Uiso   1.00
H169   H     0.37043   0.40549   0.27492   0.00000  Uiso   1.00
H170   H     0.45001   0.32966   0.26901   0.00000  Uiso   1.00
H171   H     0.43108   0.42606   0.22948   0.00000  Uiso   1.00
H172   H     0.41004   0.47297   0.26126   0.00000  Uiso   1.00
H173   H     0.39985   0.46932   0.20070   0.00000  Uiso   1.00
H174   H     0.15861   0.07839   0.06546   0.00000  Uiso   1.00
H175   H     0.18874   0.16336   0.04574   0.00000  Uiso   1.00
H176   H     0.14734   0.18244   0.07709   0.00000  Uiso   1.00
H177   H     0.13900   0.14832   0.02591   0.00000  Uiso   1.00
H178   H     0.12678   0.08277   0.27656   0.00000  Uiso   1.00
H179   H     0.08365   0.02557   0.23299   0.00000  Uiso   1.00
H180   H     0.11909   0.00160   0.27408   0.00000  Uiso   1.00
N181   N     0.00000   0.25000   0.28402   0.00000  Uiso   1.00
N182   N     0.41429   0.37004   0.08892   0.00000  Uiso   1.00
N183   N     0.38330   0.31534   0.24597   0.00000  Uiso   1.00
N184   N     0.07350   0.13168   0.08768   0.00000  Uiso   1.00
N185   N     0.12825   0.43170   0.09494   0.00000  Uiso   1.00
N186   N     0.36957   0.05804   0.24518   0.00000  Uiso   1.00
N187   N     0.35786   0.08147   0.08263   0.00000  Uiso   1.00
N188   N     0.19102   0.36228   0.23263   0.00000  Uiso   1.00
N189   N     0.36867   0.42008   0.24255   0.00000  Uiso   1.00
N190   N     0.15877   0.10898   0.08364   0.00000  Uiso   1.00
N191   N     0.13502   0.06771   0.24646   0.00000  Uiso   1.00
N192   N    -0.00000   0.25000   0.04931   0.00000  Uiso   1.00
N193   N     0.32866   0.38613   0.08519   0.00000  Uiso   1.00
N194   N     0.25000  -0.00000   0.28402   0.00000  Uiso   1.00
N195   N     0.25000  -0.00000   0.04931   0.00000  Uiso   1.00
N196   N     0.37749   0.18370   0.09605   0.00000  Uiso   1.00
N197   N     0.11882   0.30907   0.24627   0.00000  Uiso   1.00
N198   N     0.11146   0.32833   0.08361   0.00000  Uiso   1.00
N199   N     0.44141   0.11166   0.23165   0.00000  Uiso   1.00
N200   N     0.11958   0.17213   0.24180   0.00000  Uiso   1.00
O201   O     0.04508   0.20491   0.20625   0.00000  Uiso   1.00
O202   O     0.20491   0.04509   0.12709   0.00000  Uiso   1.00
O203   O     0.20491   0.04509   0.20625   0.00000  Uiso   1.00
O204   O     0.29508   0.45491   0.12709   0.00000  Uiso   1.00
O205   O     0.20491   0.45491   0.12709   0.00000  Uiso   1.00
O206   O     0.29508   0.04509   0.20625   0.00000  Uiso   1.00
O207   O     0.29508   0.04509   0.12709   0.00000  Uiso   1.00
O208   O     0.20491   0.45491   0.20625   0.00000  Uiso   1.00
O209   O     0.45491   0.29509   0.12709   0.00000  Uiso   1.00
O210   O     0.45491   0.29509   0.20625   0.00000  Uiso   1.00
O211   O     0.04508   0.20491   0.12709   0.00000  Uiso   1.00
O212   O     0.45491   0.20491   0.12709   0.00000  Uiso   1.00
O213   O     0.04508   0.29509   0.20625   0.00000  Uiso   1.00
O214   O     0.04508   0.29509   0.12709   0.00000  Uiso   1.00
O215   O     0.45491   0.20491   0.20625   0.00000  Uiso   1.00
O216   O     0.29508   0.45491   0.20625   0.00000  Uiso   1.00
C217   C     0.55853   0.18948   0.16703   0.00000  Uiso   1.00
C218   C     0.99560   0.29151   0.30800   0.00000  Uiso   1.00
C219   C     0.50232   0.29227   0.02405   0.00000  Uiso   1.00
C220   C     0.50632   0.21060   0.31089   0.00000  Uiso   1.00
C221   C     0.74497   0.45997   0.02408   0.00000  Uiso   1.00
C222   C     0.74650   0.04171   0.30809   0.00000  Uiso   1.00
C223   C     0.75301   0.04220   0.02429   0.00000  Uiso   1.00
C224   C     0.75607   0.46058   0.31081   0.00000  Uiso   1.00
C225   C     0.88380   0.14700   0.12901   0.00000  Uiso   1.00
C226   C     0.62332   0.33922   0.20703   0.00000  Uiso   1.00
C227   C     0.61426   0.35261   0.12591   0.00000  Uiso   1.00
C228   C     0.93963   0.30802   0.16641   0.00000  Uiso   1.00
C229   C     0.90710   0.11975   0.20348   0.00000  Uiso   1.00
C230   C     0.61077   0.13900   0.20739   0.00000  Uiso   1.00
C231   C     0.88858   0.35947   0.12604   0.00000  Uiso   1.00
C232   C     0.88174   0.34593   0.20684   0.00000  Uiso   1.00
C233   C     0.59904   0.12914   0.12688   0.00000  Uiso   1.00
C234   C     0.63432   0.39594   0.12896   0.00000  Uiso   1.00
C235   C     0.87361   0.08886   0.20635   0.00000  Uiso   1.00
C236   C     0.86303   0.10414   0.12557   0.00000  Uiso   1.00
C237   C     0.65684   0.37016   0.20418   0.00000  Uiso   1.00
C238   C     0.85937   0.38737   0.20791   0.00000  Uiso   1.00
C239   C     0.94119   0.18971   0.16684   0.00000  Uiso   1.00
C240   C     0.63653   0.10698   0.12491   0.00000  Uiso   1.00
C241   C     0.63304   0.09754   0.20680   0.00000  Uiso   1.00
C242   C     0.85087   0.38082   0.12657   0.00000  Uiso   1.00
C243   C     0.60026   0.33207   0.16687   0.00000  Uiso   1.00
C244   C     0.90928   0.15314   0.16728   0.00000  Uiso   1.00
C245   C     0.90304   0.33745   0.16627   0.00000  Uiso   1.00
C246   C     0.58956   0.15241   0.16731   0.00000  Uiso   1.00
C247   C     0.84992   0.08260   0.16652   0.00000  Uiso   1.00
C248   C     0.65936   0.40297   0.16746   0.00000  Uiso   1.00
C249   C     0.65267   0.08704   0.16566   0.00000  Uiso   1.00
C250   C     0.56198   0.30517   0.16678   0.00000  Uiso   1.00
C251   C     0.83930   0.40205   0.16738   0.00000  Uiso   1.00
C252   C     0.96000   0.17707   0.03421   0.00000  Uiso   1.00
C253   C     0.97124   0.13338   0.06200   0.00000  Uiso   1.00
C254   C     0.97880   0.33636   0.28450   0.00000  Uiso   1.00
C255   C     0.50843   0.36631   0.25616   0.00000  Uiso   1.00
C256   C     0.99978   0.34233   0.04383   0.00000  Uiso   1.00
C257   C     0.51622   0.36758   0.08550   0.00000  Uiso   1.00
C258   C     0.54026   0.17897   0.30064   0.00000  Uiso   1.00
C259   C     0.52652   0.13423   0.27763   0.00000  Uiso   1.00
C260   C     0.71145   0.42552   0.03516   0.00000  Uiso   1.00
C261   C     0.80843   0.43933   0.16702   0.00000  Uiso   1.00
C262   C     0.72438   0.38323   0.06405   0.00000  Uiso   1.00
C263   C     0.73096   0.08726   0.28455   0.00000  Uiso   1.00
C264   C     0.76118   0.11655   0.25652   0.00000  Uiso   1.00
C265   C     0.75139   0.09213   0.04452   0.00000  Uiso   1.00
C266   C     0.76327   0.11839   0.08784   0.00000  Uiso   1.00
C267   C     0.79032   0.42936   0.30092   0.00000  Uiso   1.00
C268   C     0.77677   0.38419   0.27851   0.00000  Uiso   1.00
C269   C     0.85634   0.22358   0.11305   0.00000  Uiso   1.00
C270   C     0.61626   0.32966   0.29091   0.00000  Uiso   1.00
C271   C     0.62984   0.28255   0.08377   0.00000  Uiso   1.00
C272   C     0.68942   0.05774   0.16627   0.00000  Uiso   1.00
C273   C     0.96050   0.06650   0.22603   0.00000  Uiso   1.00
C274   C     0.65517   0.20056   0.23227   0.00000  Uiso   1.00
C275   C     0.92845   0.41853   0.08815   0.00000  Uiso   1.00
C276   C     0.86573   0.26914   0.23963   0.00000  Uiso   1.00
C277   C     0.56592   0.08813   0.06410   0.00000  Uiso   1.00
C278   C     0.60856   0.47318   0.11069   0.00000  Uiso   1.00
C279   C     0.86760   0.07788   0.29020   0.00000  Uiso   1.00
C280   C     0.87633   0.03590   0.07999   0.00000  Uiso   1.00
C281   C     0.71012   0.31708   0.22732   0.00000  Uiso   1.00
C282   C     0.90422   0.44856   0.23282   0.00000  Uiso   1.00
C283   C     0.69123   0.43963   0.16686   0.00000  Uiso   1.00
C284   C     0.65815   0.15270   0.05685   0.00000  Uiso   1.00
C285   C     0.61619   0.02194   0.24152   0.00000  Uiso   1.00
C286   C     0.81755   0.34186   0.06458   0.00000  Uiso   1.00
C287   C     0.81187   0.05535   0.16672   0.00000  Uiso   1.00
C288   C     0.99497   0.20992   0.02414   0.00000  Uiso   1.00
Cu289  Cu    0.50000   0.25000   0.21355   0.00000  Uiso   1.00
Cu290  Cu    0.50000   0.25000   0.11978   0.00000  Uiso   1.00
Cu291  Cu    0.75000  -0.00000   0.21355   0.00000  Uiso   1.00
Cu292  Cu    0.75000  -0.00000   0.11978   0.00000  Uiso   1.00
H293   H     0.98123   0.10565   0.03910   0.00000  Uiso   1.00
H294   H     0.96448   0.36120   0.30729   0.00000  Uiso   1.00
H295   H     0.63120   0.00198   0.21468   0.00000  Uiso   1.00
H296   H     0.84226   0.40937   0.06260   0.00000  Uiso   1.00
H297   H     0.80112   0.34801   0.03223   0.00000  Uiso   1.00
H298   H     0.79815   0.32063   0.08812   0.00000  Uiso   1.00
H299   H     0.84447   0.32162   0.05581   0.00000  Uiso   1.00
H300   H     0.50997   0.40558   0.08162   0.00000  Uiso   1.00
H301   H     0.50175   0.35728   0.11794   0.00000  Uiso   1.00
H302   H     0.54894   0.36749   0.08608   0.00000  Uiso   1.00
H303   H     0.51520   0.36529   0.01811   0.00000  Uiso   1.00
H304   H     0.96772   0.34926   0.04348   0.00000  Uiso   1.00
H305   H     0.50495   0.11439   0.29950   0.00000  Uiso   1.00
H306   H     0.51186   0.14267   0.24471   0.00000  Uiso   1.00
H307   H     0.55269   0.11151   0.27168   0.00000  Uiso   1.00
H308   H     0.56272   0.19967   0.28151   0.00000  Uiso   1.00
H309   H     0.99463   0.14115   0.08808   0.00000  Uiso   1.00
H310   H     0.55661   0.16875   0.33204   0.00000  Uiso   1.00
H311   H     0.73578   0.35559   0.04190   0.00000  Uiso   1.00
H312   H     0.74740   0.39291   0.08991   0.00000  Uiso   1.00
H313   H     0.69796   0.36763   0.08177   0.00000  Uiso   1.00
H314   H     0.68730   0.44517   0.05092   0.00000  Uiso   1.00
H315   H     0.69701   0.41200   0.00351   0.00000  Uiso   1.00
H316   H     0.79249   0.10686   0.26491   0.00000  Uiso   1.00
H317   H     0.75483   0.11342   0.21952   0.00000  Uiso   1.00
H318   H     0.75832   0.15439   0.26423   0.00000  Uiso   1.00
H319   H     0.70231   0.08157   0.26839   0.00000  Uiso   1.00
H320   H     0.94430   0.11880   0.07939   0.00000  Uiso   1.00
H321   H     0.71722   0.11252   0.30730   0.00000  Uiso   1.00
H322   H     0.75214   0.15487   0.08419   0.00000  Uiso   1.00
H323   H     0.74964   0.10580   0.11979   0.00000  Uiso   1.00
H324   H     0.79585   0.12354   0.09064   0.00000  Uiso   1.00
H325   H     0.76818   0.11485   0.01971   0.00000  Uiso   1.00
H326   H     0.71946   0.09854   0.04239   0.00000  Uiso   1.00
H327   H     0.75480   0.36484   0.30029   0.00000  Uiso   1.00
H328   H     0.76261   0.39212   0.24518   0.00000  Uiso   1.00
H329   H     0.80289   0.36117   0.27348   0.00000  Uiso   1.00
H330   H     0.81257   0.45006   0.28147   0.00000  Uiso   1.00
H331   H     0.93657   0.19742   0.05062   0.00000  Uiso   1.00
H332   H     0.80685   0.42013   0.33256   0.00000  Uiso   1.00
H333   H     0.86567   0.17369   0.06511   0.00000  Uiso   1.00
H334   H     0.82753   0.21217   0.12925   0.00000  Uiso   1.00
H335   H     0.84938   0.24788   0.08427   0.00000  Uiso   1.00
H336   H     0.87543   0.24281   0.13770   0.00000  Uiso   1.00
H337   H     0.60598   0.27625   0.24278   0.00000  Uiso   1.00
H338   H     0.58859   0.31659   0.30837   0.00000  Uiso   1.00
H339   H     0.61544   0.36861   0.28870   0.00000  Uiso   1.00
H340   H     0.64273   0.31887   0.31178   0.00000  Uiso   1.00
H341   H     0.61951   0.34757   0.05499   0.00000  Uiso   1.00
H342   H     0.94512   0.16522   0.00215   0.00000  Uiso   1.00
H343   H     0.66297   0.28615   0.08896   0.00000  Uiso   1.00
H344   H     0.62392   0.26562   0.05051   0.00000  Uiso   1.00
H345   H     0.61716   0.25929   0.11102   0.00000  Uiso   1.00
H346   H     0.93819   0.12155   0.26500   0.00000  Uiso   1.00
H347   H     0.95966   0.04597   0.25864   0.00000  Uiso   1.00
H348   H     0.99233   0.07189   0.21575   0.00000  Uiso   1.00
H349   H     0.94568   0.04532   0.19895   0.00000  Uiso   1.00
H350   H     0.62101   0.15791   0.27432   0.00000  Uiso   1.00
H351   H     0.68208   0.17807   0.22934   0.00000  Uiso   1.00
H352   H     0.66076   0.22510   0.26066   0.00000  Uiso   1.00
H353   H     0.53998   0.35786   0.26493   0.00000  Uiso   1.00
H354   H     0.65095   0.22116   0.20003   0.00000  Uiso   1.00
H355   H     0.90223   0.36079   0.05780   0.00000  Uiso   1.00
H356   H     0.94640   0.42596   0.05700   0.00000  Uiso   1.00
H357   H     0.94717   0.42563   0.11896   0.00000  Uiso   1.00
H358   H     0.90287   0.44300   0.08718   0.00000  Uiso   1.00
H359   H     0.87378   0.32959   0.27596   0.00000  Uiso   1.00
H360   H     0.83363   0.27190   0.22880   0.00000  Uiso   1.00
H361   H     0.86724   0.24872   0.27226   0.00000  Uiso   1.00
H362   H     0.88272   0.24976   0.21400   0.00000  Uiso   1.00
H363   H     0.57898   0.16054   0.06704   0.00000  Uiso   1.00
H364   H     0.50263   0.36241   0.21916   0.00000  Uiso   1.00
H365   H     0.54540   0.09416   0.03491   0.00000  Uiso   1.00
H366   H     0.55210   0.06164   0.08772   0.00000  Uiso   1.00
H367   H     0.59367   0.07434   0.04925   0.00000  Uiso   1.00
H368   H     0.61549   0.42078   0.06474   0.00000  Uiso   1.00
H369   H     0.57811   0.46398   0.12399   0.00000  Uiso   1.00
H370   H     0.60539   0.49853   0.08179   0.00000  Uiso   1.00
H371   H     0.62674   0.49047   0.13749   0.00000  Uiso   1.00
H372   H     0.85642   0.02543   0.24136   0.00000  Uiso   1.00
H373   H     0.84011   0.06458   0.30787   0.00000  Uiso   1.00
H374   H     0.86681   0.11686   0.28864   0.00000  Uiso   1.00
H375   H     0.50447   0.40411   0.26330   0.00000  Uiso   1.00
H376   H     0.89428   0.06674   0.31053   0.00000  Uiso   1.00
H377   H     0.86387   0.10149   0.05388   0.00000  Uiso   1.00
H378   H     0.90970   0.03974   0.08136   0.00000  Uiso   1.00
H379   H     0.86746   0.01924   0.04739   0.00000  Uiso   1.00
H380   H     0.86632   0.01222   0.10832   0.00000  Uiso   1.00
H381   H     0.68752   0.37220   0.26592   0.00000  Uiso   1.00
H382   H     0.70959   0.29694   0.26016   0.00000  Uiso   1.00
H383   H     0.74184   0.32237   0.21661   0.00000  Uiso   1.00
H384   H     0.69514   0.29555   0.20063   0.00000  Uiso   1.00
H385   H     0.87043   0.40549   0.27492   0.00000  Uiso   1.00
H386   H     0.95001   0.32966   0.26901   0.00000  Uiso   1.00
H387   H     0.93108   0.42606   0.22948   0.00000  Uiso   1.00
H388   H     0.91004   0.47297   0.26126   0.00000  Uiso   1.00
H389   H     0.89985   0.46932   0.20070   0.00000  Uiso   1.00
H390   H     0.65861   0.07839   0.06546   0.00000  Uiso   1.00
H391   H     0.68874   0.16336   0.04574   0.00000  Uiso   1.00
H392   H     0.64734   0.18244   0.07709   0.00000  Uiso   1.00
H393   H     0.63900   0.14832   0.02591   0.00000  Uiso   1.00
H394   H     0.62678   0.08277   0.27656   0.00000  Uiso   1.00
H395   H     0.58365   0.02557   0.23299   0.00000  Uiso   1.00
H396   H     0.61909   0.00160   0.27408   0.00000  Uiso   1.00
N397   N     0.50000   0.25000   0.28402   0.00000  Uiso   1.00
N398   N     0.91429   0.37004   0.08892   0.00000  Uiso   1.00
N399   N     0.88330   0.31534   0.24597   0.00000  Uiso   1.00
N400   N     0.57350   0.13168   0.08768   0.00000  Uiso   1.00
N401   N     0.62825   0.43170   0.09494   0.00000  Uiso   1.00
N402   N     0.86957   0.05804   0.24518   0.00000  Uiso   1.00
N403   N     0.85786   0.08147   0.08263   0.00000  Uiso   1.00
N404   N     0.69102   0.36228   0.23263   0.00000  Uiso   1.00
N405   N     0.86867   0.42008   0.24255   0.00000  Uiso   1.00
N406   N     0.65877   0.10898   0.08364   0.00000  Uiso   1.00
N407   N     0.63502   0.06771   0.24646   0.00000  Uiso   1.00
N408   N     0.50000   0.25000   0.04931   0.00000  Uiso   1.00
N409   N     0.82866   0.38613   0.08519   0.00000  Uiso   1.00
N410   N     0.75000  -0.00000   0.28402   0.00000  Uiso   1.00
N411   N     0.75000  -0.00000   0.04931   0.00000  Uiso   1.00
N412   N     0.87749   0.18370   0.09605   0.00000  Uiso   1.00
N413   N     0.61882   0.30907   0.24627   0.00000  Uiso   1.00
N414   N     0.61146   0.32833   0.08361   0.00000  Uiso   1.00
N415   N     0.94141   0.11166   0.23165   0.00000  Uiso   1.00
N416   N     0.61958   0.17213   0.24180   0.00000  Uiso   1.00
O417   O     0.54508   0.20491   0.20625   0.00000  Uiso   1.00
O418   O     0.70491   0.04509   0.12709   0.00000  Uiso   1.00
O419   O     0.70491   0.04509   0.20625   0.00000  Uiso   1.00
O420   O     0.79508   0.45491   0.12709   0.00000  Uiso   1.00
O421   O     0.70491   0.45491   0.12709   0.00000  Uiso   1.00
O422   O     0.79508   0.04509   0.20625   0.00000  Uiso   1.00
O423   O     0.79508   0.04509   0.12709   0.00000  Uiso   1.00
O424   O     0.70491   0.45491   0.20625   0.00000  Uiso   1.00
O425   O     0.95491   0.29509   0.12709   0.00000  Uiso   1.00
O426   O     0.95491   0.29509   0.20625   0.00000  Uiso   1.00
O427   O     0.54508   0.20491   0.12709   0.00000  Uiso   1.00
O428   O     0.95491   0.20491   0.12709   0.00000  Uiso   1.00
O429   O     0.54508   0.29509   0.20625   0.00000  Uiso   1.00
O430   O     0.54508   0.29509   0.12709   0.00000  Uiso   1.00
O431   O     0.95491   0.20491   0.20625   0.00000  Uiso   1.00
O432   O     0.79508   0.45491   0.20625   0.00000  Uiso   1.00
C433   C     0.05853   0.68948   0.16703   0.00000  Uiso   1.00
C434   C     0.49560   0.79151   0.30800   0.00000  Uiso   1.00
C435   C     0.00232   0.79227   0.02405   0.00000  Uiso   1.00
C436   C     0.00632   0.71060   0.31089   0.00000  Uiso   1.00
C437   C     0.24497   0.95997   0.02408   0.00000  Uiso   1.00
C438   C     0.24650   0.54171   0.30809   0.00000  Uiso   1.00
C439   C     0.25301   0.54220   0.02429   0.00000  Uiso   1.00
C440   C     0.25607   0.96058   0.31081   0.00000  Uiso   1.00
C441   C     0.38380   0.64700   0.12901   0.00000  Uiso   1.00
C442   C     0.12332   0.83922   0.20703   0.00000  Uiso   1.00
C443   C     0.11426   0.85261   0.12591   0.00000  Uiso   1.00
C444   C     0.43963   0.80802   0.16641   0.00000  Uiso   1.00
C445   C     0.40710   0.61975   0.20348   0.00000  Uiso   1.00
C446   C     0.11077   0.63900   0.20739   0.00000  Uiso   1.00
C447   C     0.38858   0.85947   0.12604   0.00000  Uiso   1.00
C448   C     0.38174   0.84593   0.20684   0.00000  Uiso   1.00
C449   C     0.09904   0.62914   0.12688   0.00000  Uiso   1.00
C450   C     0.13432   0.89594   0.12896   0.00000  Uiso   1.00
C451   C     0.37361   0.58886   0.20635   0.00000  Uiso   1.00
C452   C     0.36303   0.60414   0.12557   0.00000  Uiso   1.00
C453   C     0.15684   0.87016   0.20418   0.00000  Uiso   1.00
C454   C     0.35937   0.88737   0.20791   0.00000  Uiso   1.00
C455   C     0.44119   0.68971   0.16684   0.00000  Uiso   1.00
C456   C     0.13653   0.60698   0.12491   0.00000  Uiso   1.00
C457   C     0.13304   0.59754   0.20680   0.00000  Uiso   1.00
C458   C     0.35087   0.88082   0.12657   0.00000  Uiso   1.00
C459   C     0.10026   0.83207   0.16687   0.00000  Uiso   1.00
C460   C     0.40928   0.65314   0.16728   0.00000  Uiso   1.00
C461   C     0.40304   0.83745   0.16627   0.00000  Uiso   1.00
C462   C     0.08956   0.65241   0.16731   0.00000  Uiso   1.00
C463   C     0.34992   0.58260   0.16652   0.00000  Uiso   1.00
C464   C     0.15936   0.90297   0.16746   0.00000  Uiso   1.00
C465   C     0.15267   0.58704   0.16566   0.00000  Uiso   1.00
C466   C     0.06198   0.80517   0.16678   0.00000  Uiso   1.00
C467   C     0.33930   0.90205   0.16738   0.00000  Uiso   1.00
C468   C     0.46000   0.67707   0.03421   0.00000  Uiso   1.00
C469   C     0.47124   0.63338   0.06200   0.00000  Uiso   1.00
C470   C     0.47880   0.83636   0.28450   0.00000  Uiso   1.00
C471   C     0.00843   0.86631   0.25616   0.00000  Uiso   1.00
C472   C     0.49978   0.84233   0.04383   0.00000  Uiso   1.00
C473   C     0.01622   0.86758   0.08550   0.00000  Uiso   1.00
C474   C     0.04026   0.67897   0.30064   0.00000  Uiso   1.00
C475   C     0.02652   0.63423   0.27763   0.00000  Uiso   1.00
C476   C     0.21145   0.92552   0.03516   0.00000  Uiso   1.00
C477   C     0.30843   0.93933   0.16702   0.00000  Uiso   1.00
C478   C     0.22438   0.88323   0.06405   0.00000  Uiso   1.00
C479   C     0.23096   0.58726   0.28455   0.00000  Uiso   1.00
C480   C     0.26118   0.61655   0.25652   0.00000  Uiso   1.00
C481   C     0.25139   0.59213   0.04452   0.00000  Uiso   1.00
C482   C     0.26327   0.61839   0.08784   0.00000  Uiso   1.00
C483   C     0.29032   0.92936   0.30092   0.00000  Uiso   1.00
C484   C     0.27677   0.88419   0.27851   0.00000  Uiso   1.00
C485   C     0.35634   0.72358   0.11305   0.00000  Uiso   1.00
C486   C     0.11626   0.82966   0.29091   0.00000  Uiso   1.00
C487   C     0.12984   0.78255   0.08377   0.00000  Uiso   1.00
C488   C     0.18942   0.55774   0.16627   0.00000  Uiso   1.00
C489   C     0.46050   0.56650   0.22603   0.00000  Uiso   1.00
C490   C     0.15517   0.70056   0.23227   0.00000  Uiso   1.00
C491   C     0.42845   0.91853   0.08815   0.00000  Uiso   1.00
C492   C     0.36573   0.76914   0.23963   0.00000  Uiso   1.00
C493   C     0.06592   0.58813   0.06410   0.00000  Uiso   1.00
C494   C     0.10856   0.97318   0.11069   0.00000  Uiso   1.00
C495   C     0.36760   0.57788   0.29020   0.00000  Uiso   1.00
C496   C     0.37633   0.53590   0.07999   0.00000  Uiso   1.00
C497   C     0.21012   0.81708   0.22732   0.00000  Uiso   1.00
C498   C     0.40422   0.94856   0.23282   0.00000  Uiso   1.00
C499   C     0.19123   0.93963   0.16686   0.00000  Uiso   1.00
C500   C     0.15815   0.65270   0.05685   0.00000  Uiso   1.00
C501   C     0.11619   0.52194   0.24152   0.00000  Uiso   1.00
C502   C     0.31755   0.84186   0.06458   0.00000  Uiso   1.00
C503   C     0.31187   0.55535   0.16672   0.00000  Uiso   1.00
C504   C     0.49497   0.70992   0.02414   0.00000  Uiso   1.00
Cu505  Cu    0.00000   0.75000   0.21355   0.00000  Uiso   1.00
Cu506  Cu   -0.00000   0.75000   0.11978   0.00000  Uiso   1.00
Cu507  Cu    0.25000   0.50000   0.21355   0.00000  Uiso   1.00
Cu508  Cu    0.25000   0.50000   0.11978   0.00000  Uiso   1.00
H509   H     0.48123   0.60565   0.03910   0.00000  Uiso   1.00
H510   H     0.46448   0.86120   0.30729   0.00000  Uiso   1.00
H511   H     0.13120   0.50198   0.21468   0.00000  Uiso   1.00
H512   H     0.34226   0.90937   0.06260   0.00000  Uiso   1.00
H513   H     0.30112   0.84801   0.03223   0.00000  Uiso   1.00
H514   H     0.29815   0.82063   0.08812   0.00000  Uiso   1.00
H515   H     0.34447   0.82162   0.05581   0.00000  Uiso   1.00
H516   H     0.00997   0.90558   0.08162   0.00000  Uiso   1.00
H517   H     0.00175   0.85728   0.11794   0.00000  Uiso   1.00
H518   H     0.04894   0.86749   0.08608   0.00000  Uiso   1.00
H519   H     0.01520   0.86529   0.01811   0.00000  Uiso   1.00
H520   H     0.46772   0.84926   0.04348   0.00000  Uiso   1.00
H521   H     0.00495   0.61439   0.29950   0.00000  Uiso   1.00
H522   H     0.01186   0.64267   0.24471   0.00000  Uiso   1.00
H523   H     0.05269   0.61151   0.27168   0.00000  Uiso   1.00
H524   H     0.06272   0.69967   0.28151   0.00000  Uiso   1.00
H525   H     0.49463   0.64115   0.08808   0.00000  Uiso   1.00
H526   H     0.05661   0.66875   0.33204   0.00000  Uiso   1.00
H527   H     0.23578   0.85559   0.04190   0.00000  Uiso   1.00
H528   H     0.24740   0.89291   0.08991   0.00000  Uiso   1.00
H529   H     0.19796   0.86763   0.08177   0.00000  Uiso   1.00
H530   H     0.18730   0.94517   0.05092   0.00000  Uiso   1.00
H531   H     0.19701   0.91200   0.00351   0.00000  Uiso   1.00
H532   H     0.29249   0.60686   0.26491   0.00000  Uiso   1.00
H533   H     0.25483   0.61342   0.21952   0.00000  Uiso   1.00
H534   H     0.25832   0.65439   0.26423   0.00000  Uiso   1.00
H535   H     0.20231   0.58157   0.26839   0.00000  Uiso   1.00
H536   H     0.44430   0.61880   0.07939   0.00000  Uiso   1.00
H537   H     0.21722   0.61252   0.30730   0.00000  Uiso   1.00
H538   H     0.25214   0.65487   0.08419   0.00000  Uiso   1.00
H539   H     0.24964   0.60580   0.11979   0.00000  Uiso   1.00
H540   H     0.29585   0.62354   0.09064   0.00000  Uiso   1.00
H541   H     0.26818   0.61485   0.01971   0.00000  Uiso   1.00
H542   H     0.21946   0.59854   0.04239   0.00000  Uiso   1.00
H543   H     0.25480   0.86484   0.30029   0.00000  Uiso   1.00
H544   H     0.26261   0.89212   0.24518   0.00000  Uiso   1.00
H545   H     0.30289   0.86117   0.27348   0.00000  Uiso   1.00
H546   H     0.31257   0.95006   0.28147   0.00000  Uiso   1.00
H547   H     0.43657   0.69742   0.05062   0.00000  Uiso   1.00
H548   H     0.30685   0.92013   0.33256   0.00000  Uiso   1.00
H549   H     0.36567   0.67369   0.06511   0.00000  Uiso   1.00
H550   H     0.32753   0.71217   0.12925   0.00000  Uiso   1.00
H551   H     0.34938   0.74788   0.08427   0.00000  Uiso   1.00
H552   H     0.37543   0.74281   0.13770   0.00000  Uiso   1.00
H553   H     0.10598   0.77625   0.24278   0.00000  Uiso   1.00
H554   H     0.08859   0.81659   0.30837   0.00000  Uiso   1.00
H555   H     0.11544   0.86861   0.28870   0.00000  Uiso   1.00
H556   H     0.14273   0.81887   0.31178   0.00000  Uiso   1.00
H557   H     0.11951   0.84757   0.05499   0.00000  Uiso   1.00
H558   H     0.44512   0.66522   0.00215   0.00000  Uiso   1.00
H559   H     0.16297   0.78615   0.08896   0.00000  Uiso   1.00
H560   H     0.12392   0.76562   0.05051   0.00000  Uiso   1.00
H561   H     0.11716   0.75929   0.11102   0.00000  Uiso   1.00
H562   H     0.43819   0.62155   0.26500   0.00000  Uiso   1.00
H563   H     0.45966   0.54597   0.25864   0.00000  Uiso   1.00
H564   H     0.49233   0.57189   0.21575   0.00000  Uiso   1.00
H565   H     0.44568   0.54532   0.19895   0.00000  Uiso   1.00
H566   H     0.12101   0.65791   0.27432   0.00000  Uiso   1.00
H567   H     0.18208   0.67807   0.22934   0.00000  Uiso   1.00
H568   H     0.16076   0.72510   0.26066   0.00000  Uiso   1.00
H569   H     0.03998   0.85786   0.26493   0.00000  Uiso   1.00
H570   H     0.15095   0.72116   0.20003   0.00000  Uiso   1.00
H571   H     0.40223   0.86079   0.05780   0.00000  Uiso   1.00
H572   H     0.44640   0.92596   0.05700   0.00000  Uiso   1.00
H573   H     0.44717   0.92563   0.11896   0.00000  Uiso   1.00
H574   H     0.40287   0.94300   0.08718   0.00000  Uiso   1.00
H575   H     0.37378   0.82959   0.27596   0.00000  Uiso   1.00
H576   H     0.33363   0.77190   0.22880   0.00000  Uiso   1.00
H577   H     0.36724   0.74872   0.27226   0.00000  Uiso   1.00
H578   H     0.38272   0.74976   0.21400   0.00000  Uiso   1.00
H579   H     0.07898   0.66054   0.06704   0.00000  Uiso   1.00
H580   H     0.00263   0.86241   0.21916   0.00000  Uiso   1.00
H581   H     0.04540   0.59416   0.03491   0.00000  Uiso   1.00
H582   H     0.05210   0.56164   0.08772   0.00000  Uiso   1.00
H583   H     0.09367   0.57434   0.04925   0.00000  Uiso   1.00
H584   H     0.11549   0.92078   0.06474   0.00000  Uiso   1.00
H585   H     0.07811   0.96398   0.12399   0.00000  Uiso   1.00
H586   H     0.10539   0.99853   0.08179   0.00000  Uiso   1.00
H587   H     0.12674   0.99047   0.13749   0.00000  Uiso   1.00
H588   H     0.35642   0.52543   0.24136   0.00000  Uiso   1.00
H589   H     0.34011   0.56458   0.30787   0.00000  Uiso   1.00
H590   H     0.36681   0.61686   0.28864   0.00000  Uiso   1.00
H591   H     0.00447   0.90411   0.26330   0.00000  Uiso   1.00
H592   H     0.39428   0.56674   0.31053   0.00000  Uiso   1.00
H593   H     0.36387   0.60149   0.05388   0.00000  Uiso   1.00
H594   H     0.40970   0.53974   0.08136   0.00000  Uiso   1.00
H595   H     0.36746   0.51924   0.04739   0.00000  Uiso   1.00
H596   H     0.36632   0.51222   0.10832   0.00000  Uiso   1.00
H597   H     0.18752   0.87220   0.26592   0.00000  Uiso   1.00
H598   H     0.20959   0.79694   0.26016   0.00000  Uiso   1.00
H599   H     0.24184   0.82237   0.21661   0.00000  Uiso   1.00
H600   H     0.19514   0.79555   0.20063   0.00000  Uiso   1.00
H601   H     0.37043   0.90549   0.27492   0.00000  Uiso   1.00
H602   H     0.45001   0.82966   0.26901   0.00000  Uiso   1.00
H603   H     0.43108   0.92606   0.22948   0.00000  Uiso   1.00
H604   H     0.41004   0.97297   0.26126   0.00000  Uiso   1.00
H605   H     0.39985   0.96932   0.20070   0.00000  Uiso   1.00
H606   H     0.15861   0.57839   0.06546   0.00000  Uiso   1.00
H607   H     0.18874   0.66336   0.04574   0.00000  Uiso   1.00
H608   H     0.14734   0.68244   0.07709   0.00000  Uiso   1.00
H609   H     0.13900   0.64832   0.02591   0.00000  Uiso   1.00
H610   H     0.12678   0.58277   0.27656   0.00000  Uiso   1.00
H611   H     0.08365   0.52557   0.23299   0.00000  Uiso   1.00
H612   H     0.11909   0.50160   0.27408   0.00000  Uiso   1.00
N613   N     0.00000   0.75000   0.28402   0.00000  Uiso   1.00
N614   N     0.41429   0.87004   0.08892   0.00000  Uiso   1.00
N615   N     0.38330   0.81534   0.24597   0.00000  Uiso   1.00
N616   N     0.07350   0.63168   0.08768   0.00000  Uiso   1.00
N617   N     0.12825   0.93170   0.09494   0.00000  Uiso   1.00
N618   N     0.36957   0.55804   0.24518   0.00000  Uiso   1.00
N619   N     0.35786   0.58147   0.08263   0.00000  Uiso   1.00
N620   N     0.19102   0.86228   0.23263   0.00000  Uiso   1.00
N621   N     0.36867   0.92008   0.24255   0.00000  Uiso   1.00
N622   N     0.15877   0.60898   0.08364   0.00000  Uiso   1.00
N623   N     0.13502   0.56771   0.24646   0.00000  Uiso   1.00
N624   N    -0.00000   0.75000   0.04931   0.00000  Uiso   1.00
N625   N     0.32866   0.88613   0.08519   0.00000  Uiso   1.00
N626   N     0.25000   0.50000   0.28402   0.00000  Uiso   1.00
N627   N     0.25000   0.50000   0.04931   0.00000  Uiso   1.00
N628   N     0.37749   0.68370   0.09605   0.00000  Uiso   1.00
N629   N     0.11882   0.80907   0.24627   0.00000  Uiso   1.00
N630   N     0.11146   0.82833   0.08361   0.00000  Uiso   1.00
N631   N     0.44141   0.61166   0.23165   0.00000  Uiso   1.00
N632   N     0.11958   0.67213   0.24180   0.00000  Uiso   1.00
O633   O     0.04508   0.70491   0.20625   0.00000  Uiso   1.00
O634   O     0.20491   0.54509   0.12709   0.00000  Uiso   1.00
O635   O     0.20491   0.54509   0.20625   0.00000  Uiso   1.00
O636   O     0.29508   0.95491   0.12709   0.00000  Uiso   1.00
O637   O     0.20491   0.95491   0.12709   0.00000  Uiso   1.00
O638   O     0.29508   0.54509   0.20625   0.00000  Uiso   1.00
O639   O     0.29508   0.54509   0.12709   0.00000  Uiso   1.00
O640   O     0.20491   0.95491   0.20625   0.00000  Uiso   1.00
O641   O     0.45491   0.79509   0.12709   0.00000  Uiso   1.00
O642   O     0.45491   0.79509   0.20625   0.00000  Uiso   1.00
O643   O     0.04508   0.70491   0.12709   0.00000  Uiso   1.00
O644   O     0.45491   0.70491   0.12709   0.00000  Uiso   1.00
O645   O     0.04508   0.79509   0.20625   0.00000  Uiso   1.00
O646   O     0.04508   0.79509   0.12709   0.00000  Uiso   1.00
O647   O     0.45491   0.70491   0.20625   0.00000  Uiso   1.00
O648   O     0.29508   0.95491   0.20625   0.00000  Uiso   1.00
C649   C     0.55853   0.68948   0.16703   0.00000  Uiso   1.00
C650   C     0.99560   0.79151   0.30800   0.00000  Uiso   1.00
C651   C     0.50232   0.79227   0.02405   0.00000  Uiso   1.00
C652   C     0.50632   0.71060   0.31089   0.00000  Uiso   1.00
C653   C     0.74497   0.95997   0.02408   0.00000  Uiso   1.00
C654   C     0.74650   0.54171   0.30809   0.00000  Uiso   1.00
C655   C     0.75301   0.54220   0.02429   0.00000  Uiso   1.00
C656   C     0.75607   0.96058   0.31081   0.00000  Uiso   1.00
C657   C     0.88380   0.64700   0.12901   0.00000  Uiso   1.00
C658   C     0.62332   0.83922   0.20703   0.00000  Uiso   1.00
C659   C     0.61426   0.85261   0.12591   0.00000  Uiso   1.00
C660   C     0.93963   0.80802   0.16641   0.00000  Uiso   1.00
C661   C     0.90710   0.61975   0.20348   0.00000  Uiso   1.00
C662   C     0.61077   0.63900   0.20739   0.00000  Uiso   1.00
C663   C     0.88858   0.85947   0.12604   0.00000  Uiso   1.00
C664   C     0.88174   0.84593   0.20684   0.00000  Uiso   1.00
C665   C     0.59904   0.62914   0.12688   0.00000  Uiso   1.00
C666   C     0.63432   0.89594   0.12896   0.00000  Uiso   1.00
C667   C     0.87361   0.58886   0.20635   0.00000  Uiso   1.00
C668   C     0.86303   0.60414   0.12557   0.00000  Uiso   1.00
C669   C     0.65684   0.87016   0.20418   0.00000  Uiso   1.00
C670   C     0.85937   0.88737   0.20791   0.00000  Uiso   1.00
C671   C     0.94119   0.68971   0.16684   0.00000  Uiso   1.00
C672   C     0.63653   0.60698   0.12491   0.00000  Uiso   1.00
C673   C     0.63304   0.59754   0.20680   0.00000  Uiso   1.00
C674   C     0.85087   0.88082   0.12657   0.00000  Uiso   1.00
C675   C     0.60026   0.83207   0.16687   0.00000  Uiso   1.00
C676   C     0.90928   0.65314   0.16728   0.00000  Uiso   1.00
C677   C     0.90304   0.83745   0.16627   0.00000  Uiso   1.00
C678   C     0.58956   0.65241   0.16731   0.00000  Uiso   1.00
C679   C     0.84992   0.58260   0.16652   0.00000  Uiso   1.00
C680   C     0.65936   0.90297   0.16746   0.00000  Uiso   1.00
C681   C     0.65267   0.58704   0.16566   0.00000  Uiso   1.00
C682   C     0.56198   0.80517   0.16678   0.00000  Uiso   1.00
C683   C     0.83930   0.90205   0.16738   0.00000  Uiso   1.00
C684   C     0.96000   0.67707   0.03421   0.00000  Uiso   1.00
C685   C     0.97124   0.63338   0.06200   0.00000  Uiso   1.00
C686   C     0.97880   0.83636   0.28450   0.00000  Uiso   1.00
C687   C     0.50843   0.86631   0.25616   0.00000  Uiso   1.00
C688   C     0.99978   0.84233   0.04383   0.00000  Uiso   1.00
C689   C     0.51622   0.86758   0.08550   0.00000  Uiso   1.00
C690   C     0.54026   0.67897   0.30064   0.00000  Uiso   1.00
C691   C     0.52652   0.63423   0.27763   0.00000  Uiso   1.00
C692   C     0.71145   0.92552   0.03516   0.00000  Uiso   1.00
C693   C     0.80843   0.93933   0.16702   0.00000  Uiso   1.00
C694   C     0.72438   0.88323   0.06405   0.00000  Uiso   1.00
C695   C     0.73096   0.58726   0.28455   0.00000  Uiso   1.00
C696   C     0.76118   0.61655   0.25652   0.00000  Uiso   1.00
C697   C     0.75139   0.59213   0.04452   0.00000  Uiso   1.00
C698   C     0.76327   0.61839   0.08784   0.00000  Uiso   1.00
C699   C     0.79032   0.92936   0.30092   0.00000  Uiso   1.00
C700   C     0.77677   0.88419   0.27851   0.00000  Uiso   1.00
C701   C     0.85634   0.72358   0.11305   0.00000  Uiso   1.00
C702   C     0.61626   0.82966   0.29091   0.00000  Uiso   1.00
C703   C     0.62984   0.78255   0.08377   0.00000  Uiso   1.00
C704   C     0.68942   0.55774   0.16627   0.00000  Uiso   1.00
C705   C     0.96050   0.56650   0.22603   0.00000  Uiso   1.00
C706   C     0.65517   0.70056   0.23227   0.00000  Uiso   1.00
C707   C     0.92845   0.91853   0.08815   0.00000  Uiso   1.00
C708   C     0.86573   0.76914   0.23963   0.00000  Uiso   1.00
C709   C     0.56592   0.58813   0.06410   0.00000  Uiso   1.00
C710   C     0.60856   0.97318   0.11069   0.00000  Uiso   1.00
C711   C     0.86760   0.57788   0.29020   0.00000  Uiso   1.00
C712   C     0.87633   0.53590   0.07999   0.00000  Uiso   1.00
C713   C     0.71012   0.81708   0.22732   0.00000  Uiso   1.00
C714   C     0.90422   0.94856   0.23282   0.00000  Uiso   1.00
C715   C     0.69123   0.93963   0.16686   0.00000  Uiso   1.00
C716   C     0.65815   0.65270   0.05685   0.00000  Uiso   1.00
C717   C     0.61619   0.52194   0.24152   0.00000  Uiso   1.00
C718   C     0.81755   0.84186   0.06458   0.00000  Uiso   1.00
C719   C     0.81187   0.55535   0.16672   0.00000  Uiso   1.00
C720   C     0.99497   0.70992   0.02414   0.00000  Uiso   1.00
Cu721  Cu    0.50000   0.75000   0.21355   0.00000  Uiso   1.00
Cu722  Cu    0.50000   0.75000   0.11978   0.00000  Uiso   1.00
Cu723  Cu    0.75000   0.50000   0.21355   0.00000  Uiso   1.00
Cu724  Cu    0.75000   0.50000   0.11978   0.00000  Uiso   1.00
H725   H     0.98123   0.60565   0.03910   0.00000  Uiso   1.00
H726   H     0.96448   0.86120   0.30729   0.00000  Uiso   1.00
H727   H     0.63120   0.50198   0.21468   0.00000  Uiso   1.00
H728   H     0.84226   0.90937   0.06260   0.00000  Uiso   1.00
H729   H     0.80112   0.84801   0.03223   0.00000  Uiso   1.00
H730   H     0.79815   0.82063   0.08812   0.00000  Uiso   1.00
H731   H     0.84447   0.82162   0.05581   0.00000  Uiso   1.00
H732   H     0.50997   0.90558   0.08162   0.00000  Uiso   1.00
H733   H     0.50175   0.85728   0.11794   0.00000  Uiso   1.00
H734   H     0.54894   0.86749   0.08608   0.00000  Uiso   1.00
H735   H     0.51520   0.86529   0.01811   0.00000  Uiso   1.00
H736   H     0.96772   0.84926   0.04348   0.00000  Uiso   1.00
H737   H     0.50495   0.61439   0.29950   0.00000  Uiso   1.00
H738   H     0.51186   0.64267   0.24471   0.00000  Uiso   1.00
H739   H     0.55269   0.61151   0.27168   0.00000  Uiso   1.00
H740   H     0.56272   0.69967   0.28151   0.00000  Uiso   1.00
H741   H     0.99463   0.64115   0.08808   0.00000  Uiso   1.00
H742   H     0.55661   0.66875   0.33204   0.00000  Uiso   1.00
H743   H     0.73578   0.85559   0.04190   0.00000  Uiso   1.00
H744   H     0.74740   0.89291   0.08991   0.00000  Uiso   1.00
H745   H     0.69796   0.86763   0.08177   0.00000  Uiso   1.00
H746   H     0.68730   0.94517   0.05092   0.00000  Uiso   1.00
H747   H     0.69701   0.91200   0.00351   0.00000  Uiso   1.00
H748   H     0.79249   0.60686   0.26491   0.00000  Uiso   1.00
H749   H     0.75483   0.61342   0.21952   0.00000  Uiso   1.00
H750   H     0.75832   0.65439   0.26423   0.00000  Uiso   1.00
H751   H     0.70231   0.58157   0.26839   0.00000  Uiso   1.00
H752   H     0.94430   0.61880   0.07939   0.00000  Uiso   1.00
H753   H     0.71722   0.61252   0.30730   0.00000  Uiso   1.00
H754   H     0.75214   0.65487   0.08419   0.00000  Uiso   1.00
H755   H     0.74964   0.60580   0.11979   0.00000  Uiso   1.00
H756   H     0.79585   0.62354   0.09064   0.00000  Uiso   1.00
H757   H     0.76818   0.61485   0.01971   0.00000  Uiso   1.00
H758   H     0.71946   0.59854   0.04239   0.00000  Uiso   1.00
H759   H     0.75480   0.86484   0.30029   0.00000  Uiso   1.00
H760   H     0.76261   0.89212   0.24518   0.00000  Uiso   1.00
H761   H     0.80289   0.86117   0.27348   0.00000  Uiso   1.00
H762   H     0.81257   0.95006   0.28147   0.00000  Uiso   1.00
H763   H     0.93657   0.69742   0.05062   0.00000  Uiso   1.00
H764   H     0.80685   0.92013   0.33256   0.00000  Uiso   1.00
H765   H     0.86567   0.67369   0.06511   0.00000  Uiso   1.00
H766   H     0.82753   0.71217   0.12925   0.00000  Uiso   1.00
H767   H     0.84938   0.74788   0.08427   0.00000  Uiso   1.00
H768   H     0.87543   0.74281   0.13770   0.00000  Uiso   1.00
H769   H     0.60598   0.77625   0.24278   0.00000  Uiso   1.00
H770   H     0.58859   0.81659   0.30837   0.00000  Uiso   1.00
H771   H     0.61544   0.86861   0.28870   0.00000  Uiso   1.00
H772   H     0.64273   0.81887   0.31178   0.00000  Uiso   1.00
H773   H     0.61951   0.84757   0.05499   0.00000  Uiso   1.00
H774   H     0.94512   0.66522   0.00215   0.00000  Uiso   1.00
H775   H     0.66297   0.78615   0.08896   0.00000  Uiso   1.00
H776   H     0.62392   0.76562   0.05051   0.00000  Uiso   1.00
H777   H     0.61716   0.75929   0.11102   0.00000  Uiso   1.00
H778   H     0.93819   0.62155   0.26500   0.00000  Uiso   1.00
H779   H     0.95966   0.54597   0.25864   0.00000  Uiso   1.00
H780   H     0.99233   0.57189   0.21575   0.00000  Uiso   1.00
H781   H     0.94568   0.54532   0.19895   0.00000  Uiso   1.00
H782   H     0.62101   0.65791   0.27432   0.00000  Uiso   1.00
H783   H     0.68208   0.67807   0.22934   0.00000  Uiso   1.00
H784   H     0.66076   0.72510   0.26066   0.00000  Uiso   1.00
H785   H     0.53998   0.85786   0.26493   0.00000  Uiso   1.00
H786   H     0.65095   0.72116   0.20003   0.00000  Uiso   1.00
H787   H     0.90223   0.86079   0.05780   0.00000  Uiso   1.00
H788   H     0.94640   0.92596   0.05700   0.00000  Uiso   1.00
H789   H     0.94717   0.92563   0.11896   0.00000  Uiso   1.00
H790   H     0.90287   0.94300   0.08718   0.00000  Uiso   1.00
H791   H     0.87378   0.82959   0.27596   0.00000  Uiso   1.00
H792   H     0.83363   0.77190   0.22880   0.00000  Uiso   1.00
H793   H     0.86724   0.74872   0.27226   0.00000  Uiso   1.00
H794   H     0.88272   0.74976   0.21400   0.00000  Uiso   1.00
H795   H     0.57898   0.66054   0.06704   0.00000  Uiso   1.00
H796   H     0.50263   0.86241   0.21916   0.00000  Uiso   1.00
H797   H     0.54540   0.59416   0.03491   0.00000  Uiso   1.00
H798   H     0.55210   0.56164   0.08772   0.00000  Uiso   1.00
H799   H     0.59367   0.57434   0.04925   0.00000  Uiso   1.00
H800   H     0.61549   0.92078   0.06474   0.00000  Uiso   1.00
H801   H     0.57811   0.96398   0.12399   0.00000  Uiso   1.00
H802   H     0.60539   0.99853   0.08179   0.00000  Uiso   1.00
H803   H     0.62674   0.99047   0.13749   0.00000  Uiso   1.00
H804   H     0.85642   0.52543   0.24136   0.00000  Uiso   1.00
H805   H     0.84011   0.56458   0.30787   0.00000  Uiso   1.00
H806   H     0.86681   0.61686   0.28864   0.00000  Uiso   1.00
H807   H     0.50447   0.90411   0.26330   0.00000  Uiso   1.00
H808   H     0.89428   0.56674   0.31053   0.00000  Uiso   1.00
H809   H     0.86387   0.60149   0.05388   0.00000  Uiso   1.00
H810   H     0.90970   0.53974   0.08136   0.00000  Uiso   1.00
H811   H     0.86746   0.51924   0.04739   0.00000  Uiso   1.00
H812   H     0.86632   0.51222   0.10832   0.00000  Uiso   1.00
H813   H     0.68752   0.87220   0.26592   0.00000  Uiso   1.00
H814   H     0.70959   0.79694   0.26016   0.00000  Uiso   1.00
H815   H     0.74184   0.82237   0.21661   0.00000  Uiso   1.00
H816   H     0.69514   0.79555   0.20063   0.00000  Uiso   1.00
H817   H     0.87043   0.90549   0.27492   0.00000  Uiso   1.00
H818   H     0.95001   0.82966   0.26901   0.00000  Uiso   1.00
H819   H     0.93108   0.92606   0.22948   0.00000  Uiso   1.00
H820   H     0.91004   0.97297   0.26126   0.00000  Uiso   1.00
H821   H     0.89985   0.96932   0.20070   0.00000  Uiso   1.00
H822   H     0.65861   0.57839   0.06546   0.00000  Uiso   1.00
H823   H     0.68874   0.66336   0.04574   0.00000  Uiso   1.00
H824   H     0.64734   0.68244   0.07709   0.00000  Uiso   1.00
H825   H     0.63900   0.64832   0.02591   0.00000  Uiso   1.00
H826   H     0.62678   0.58277   0.27656   0.00000  Uiso   1.00
H827   H     0.58365   0.52557   0.23299   0.00000  Uiso   1.00
H828   H     0.61909   0.50160   0.27408   0.00000  Uiso   1.00
N829   N     0.50000   0.75000   0.28402   0.00000  Uiso   1.00
N830   N     0.91429   0.87004   0.08892   0.00000  Uiso   1.00
N831   N     0.88330   0.81534   0.24597   0.00000  Uiso   1.00
N832   N     0.57350   0.63168   0.08768   0.00000  Uiso   1.00
N833   N     0.62825   0.93170   0.09494   0.00000  Uiso   1.00
N834   N     0.86957   0.55804   0.24518   0.00000  Uiso   1.00
N835   N     0.85786   0.58147   0.08263   0.00000  Uiso   1.00
N836   N     0.69102   0.86228   0.23263   0.00000  Uiso   1.00
N837   N     0.86867   0.92008   0.24255   0.00000  Uiso   1.00
N838   N     0.65877   0.60898   0.08364   0.00000  Uiso   1.00
N839   N     0.63502   0.56771   0.24646   0.00000  Uiso   1.00
N840   N     0.50000   0.75000   0.04931   0.00000  Uiso   1.00
N841   N     0.82866   0.88613   0.08519   0.00000  Uiso   1.00
N842   N     0.75000   0.50000   0.28402   0.00000  Uiso   1.00
N843   N     0.75000   0.50000   0.04931   0.00000  Uiso   1.00
N844   N     0.87749   0.68370   0.09605   0.00000  Uiso   1.00
N845   N     0.61882   0.80907   0.24627   0.00000  Uiso   1.00
N846   N     0.61146   0.82833   0.08361   0.00000  Uiso   1.00
N847   N     0.94141   0.61166   0.23165   0.00000  Uiso   1.00
N848   N     0.61958   0.67213   0.24180   0.00000  Uiso   1.00
O849   O     0.54508   0.70491   0.20625   0.00000  Uiso   1.00
O850   O     0.70491   0.54509   0.12709   0.00000  Uiso   1.00
O851   O     0.70491   0.54509   0.20625   0.00000  Uiso   1.00
O852   O     0.79508   0.95491   0.12709   0.00000  Uiso   1.00
O853   O     0.70491   0.95491   0.12709   0.00000  Uiso   1.00
O854   O     0.79508   0.54509   0.20625   0.00000  Uiso   1.00
O855   O     0.79508   0.54509   0.12709   0.00000  Uiso   1.00
O856   O     0.70491   0.95491   0.20625   0.00000  Uiso   1.00
O857   O     0.95491   0.79509   0.12709   0.00000  Uiso   1.00
O858   O     0.95491   0.79509   0.20625   0.00000  Uiso   1.00
O859   O     0.54508   0.70491   0.12709   0.00000  Uiso   1.00
O860   O     0.95491   0.70491   0.12709   0.00000  Uiso   1.00
O861   O     0.54508   0.79509   0.20625   0.00000  Uiso   1.00
O862   O     0.54508   0.79509   0.12709   0.00000  Uiso   1.00
O863   O     0.95491   0.70491   0.20625   0.00000  Uiso   1.00
O864   O     0.79508   0.95491   0.20625   0.00000  Uiso   1.00
C865   C     0.05853   0.18948   0.50036   0.00000  Uiso   1.00
C866   C     0.49560   0.29151   0.64133   0.00000  Uiso   1.00
C867   C     0.00232   0.29227   0.35738   0.00000  Uiso   1.00
C868   C     0.00632   0.21060   0.64423   0.00000  Uiso   1.00
C869   C     0.24497   0.45997   0.35741   0.00000  Uiso   1.00
C870   C     0.24650   0.04171   0.64143   0.00000  Uiso   1.00
C871   C     0.25301   0.04220   0.35763   0.00000  Uiso   1.00
C872   C     0.25607   0.46058   0.64415   0.00000  Uiso   1.00
C873   C     0.38380   0.14700   0.46234   0.00000  Uiso   1.00
C874   C     0.12332   0.33922   0.54037   0.00000  Uiso   1.00
C875   C     0.11426   0.35261   0.45925   0.00000  Uiso   1.00
C876   C     0.43963   0.30802   0.49974   0.00000  Uiso   1.00
C877   C     0.40710   0.11975   0.53682   0.00000  Uiso   1.00
C878   C     0.11077   0.13900   0.54073   0.00000  Uiso   1.00
C879   C     0.38858   0.35947   0.45938   0.00000  Uiso   1.00
C880   C     0.38174   0.34593   0.54018   0.00000  Uiso   1.00
C881   C     0.09904   0.12914   0.46021   0.00000  Uiso   1.00
C882   C     0.13432   0.39594   0.46230   0.00000  Uiso   1.00
C883   C     0.37361   0.08886   0.53968   0.00000  Uiso   1.00
C884   C     0.36303   0.10414   0.45890   0.00000  Uiso   1.00
C885   C     0.15684   0.37016   0.53752   0.00000  Uiso   1.00
C886   C     0.35937   0.38737   0.54124   0.00000  Uiso   1.00
C887   C     0.44119   0.18971   0.50017   0.00000  Uiso   1.00
C888   C     0.13653   0.10698   0.45825   0.00000  Uiso   1.00
C889   C     0.13304   0.09754   0.54013   0.00000  Uiso   1.00
C890   C     0.35087   0.38082   0.45990   0.00000  Uiso   1.00
C891   C     0.10026   0.33207   0.50020   0.00000  Uiso   1.00
C892   C     0.40928   0.15314   0.50062   0.00000  Uiso   1.00
C893   C     0.40304   0.33745   0.49960   0.00000  Uiso   1.00
C894   C     0.08956   0.15241   0.50065   0.00000  Uiso   1.00
C895   C     0.34992   0.08260   0.49985   0.00000  Uiso   1.00
C896   C     0.15936   0.40297   0.50080   0.00000  Uiso   1.00
C897   C     0.15267   0.08704   0.49899   0.00000  Uiso   1.00
C898   C     0.06198   0.30517   0.50011   0.00000  Uiso   1.00
C899   C     0.33930   0.40205   0.50071   0.00000  Uiso   1.00
C900   C     0.46000   0.17707   0.36754   0.00000  Uiso   1.00
C901   C     0.47124   0.13338   0.39533   0.00000  Uiso   1.00
C902   C     0.47880   0.33636   0.61783   0.00000  Uiso   1.00
C903   C     0.00843   0.36631   0.58950   0.00000  Uiso   1.00
C904   C     0.49978   0.34233   0.37717   0.00000  Uiso   1.00
C905   C     0.01622   0.36758   0.41883   0.00000  Uiso   1.00
C906   C     0.04026   0.17897   0.63397   0.00000  Uiso   1.00
C907   C     0.02652   0.13423   0.61096   0.00000  Uiso   1.00
C908   C     0.21145   0.42552   0.36849   0.00000  Uiso   1.00
C909   C     0.30843   0.43933   0.50036   0.00000  Uiso   1.00
C910   C     0.22438   0.38323   0.39738   0.00000  Uiso   1.00
C911   C     0.23096   0.08726   0.61788   0.00000  Uiso   1.00
C912   C     0.26118   0.11655   0.58985   0.00000  Uiso   1.00
C913   C     0.25139   0.09213   0.37786   0.00000  Uiso   1.00
C914   C     0.26327   0.11839   0.42118   0.00000  Uiso   1.00
C915   C     0.29032   0.42936   0.63426   0.00000  Uiso   1.00
C916   C     0.27677   0.38419   0.61184   0.00000  Uiso   1.00
C917   C     0.35634   0.22358   0.44638   0.00000  Uiso   1.00
C918   C     0.11626   0.32966   0.62424   0.00000  Uiso   1.00
C919   C     0.12984   0.28255   0.41710   0.00000  Uiso   1.00
C920   C     0.18942   0.05774   0.49960   0.00000  Uiso   1.00
C921   C     0.46050   0.06650   0.55936   0.00000  Uiso   1.00
C922   C     0.15517   0.20056   0.56561   0.00000  Uiso   1.00
C923   C     0.42845   0.41853   0.42148   0.00000  Uiso   1.00
C924   C     0.36573   0.26914   0.57296   0.00000  Uiso   1.00
C925   C     0.06592   0.08813   0.39743   0.00000  Uiso   1.00
C926   C     0.10856   0.47318   0.44402   0.00000  Uiso   1.00
C927   C     0.36760   0.07788   0.62354   0.00000  Uiso   1.00
C928   C     0.37633   0.03590   0.41332   0.00000  Uiso   1.00
C929   C     0.21012   0.31708   0.56066   0.00000  Uiso   1.00
C930   C     0.40422   0.44856   0.56615   0.00000  Uiso   1.00
C931   C     0.19123   0.43963   0.50020   0.00000  Uiso   1.00
C932   C     0.15815   0.15270   0.39018   0.00000  Uiso   1.00
C933   C     0.11619   0.02194   0.57486   0.00000  Uiso   1.00
C934   C     0.31755   0.34186   0.39791   0.00000  Uiso   1.00
C935   C     0.31187   0.05535   0.50005   0.00000  Uiso   1.00
C936   C     0.49497   0.20992   0.35747   0.00000  Uiso   1.00
Cu937  Cu    0.00000   0.25000   0.54689   0.00000  Uiso   1.00
Cu938  Cu   -0.00000   0.25000   0.45311   0.00000  Uiso   1.00
Cu939  Cu    0.25000  -0.00000   0.54689   0.00000  Uiso   1.00
Cu940  Cu    0.25000  -0.00000   0.45311   0.00000  Uiso   1.00
H941   H     0.48123   0.10565   0.37244   0.00000  Uiso   1.00
H942   H     0.46448   0.36120   0.64062   0.00000  Uiso   1.00
H943   H     0.13120   0.00198   0.54801   0.00000  Uiso   1.00
H944   H     0.34226   0.40937   0.39594   0.00000  Uiso   1.00
H945   H     0.30112   0.34801   0.36556   0.00000  Uiso   1.00
H946   H     0.29815   0.32063   0.42145   0.00000  Uiso   1.00
H947   H     0.34447   0.32162   0.38914   0.00000  Uiso   1.00
H948   H     0.00997   0.40558   0.41495   0.00000  Uiso   1.00
H949   H     0.00175   0.35728   0.45127   0.00000  Uiso   1.00
H950   H     0.04894   0.36749   0.41942   0.00000  Uiso   1.00
H951   H     0.01520   0.36529   0.35145   0.00000  Uiso   1.00
H952   H     0.46772   0.34926   0.37681   0.00000  Uiso   1.00
H953   H     0.00495   0.11439   0.63284   0.00000  Uiso   1.00
H954   H     0.01186   0.14267   0.57804   0.00000  Uiso   1.00
H955   H     0.05269   0.11151   0.60501   0.00000  Uiso   1.00
H956   H     0.06272   0.19967   0.61485   0.00000  Uiso   1.00
H957   H     0.49463   0.14115   0.42141   0.00000  Uiso   1.00
H958   H     0.05661   0.16875   0.66537   0.00000  Uiso   1.00
H959   H     0.23578   0.35559   0.37524   0.00000  Uiso   1.00
H960   H     0.24740   0.39291   0.42324   0.00000  Uiso   1.00
H961   H     0.19796   0.36763   0.41510   0.00000  Uiso   1.00
H962   H     0.18730   0.44517   0.38425   0.00000  Uiso   1.00
H963   H     0.19701   0.41200   0.33685   0.00000  Uiso   1.00
H964   H     0.29249   0.10686   0.59824   0.00000  Uiso   1.00
H965   H     0.25483   0.11342   0.55285   0.00000  Uiso   1.00
H966   H     0.25832   0.15439   0.59756   0.00000  Uiso   1.00
H967   H     0.20231   0.08157   0.60172   0.00000  Uiso   1.00
H968   H     0.44430   0.11880   0.41272   0.00000  Uiso   1.00
H969   H     0.21722   0.11252   0.64064   0.00000  Uiso   1.00
H970   H     0.25214   0.15487   0.41753   0.00000  Uiso   1.00
H971   H     0.24964   0.10580   0.45313   0.00000  Uiso   1.00
H972   H     0.29585   0.12354   0.42398   0.00000  Uiso   1.00
H973   H     0.26818   0.11485   0.35304   0.00000  Uiso   1.00
H974   H     0.21946   0.09854   0.37572   0.00000  Uiso   1.00
H975   H     0.25480   0.36484   0.63362   0.00000  Uiso   1.00
H976   H     0.26261   0.39212   0.57851   0.00000  Uiso   1.00
H977   H     0.30289   0.36117   0.60682   0.00000  Uiso   1.00
H978   H     0.31257   0.45006   0.61481   0.00000  Uiso   1.00
H979   H     0.43657   0.19742   0.38395   0.00000  Uiso   1.00
H980   H     0.30685   0.42013   0.66590   0.00000  Uiso   1.00
H981   H     0.36567   0.17369   0.39845   0.00000  Uiso   1.00
H982   H     0.32753   0.21217   0.46258   0.00000  Uiso   1.00
H983   H     0.34938   0.24788   0.41760   0.00000  Uiso   1.00
H984   H     0.37543   0.24281   0.47103   0.00000  Uiso   1.00
H985   H     0.10598   0.27625   0.57612   0.00000  Uiso   1.00
H986   H     0.08859   0.31659   0.64170   0.00000  Uiso   1.00
H987   H     0.11544   0.36861   0.62203   0.00000  Uiso   1.00
H988   H     0.14273   0.31887   0.64512   0.00000  Uiso   1.00
H989   H     0.11951   0.34757   0.38832   0.00000  Uiso   1.00
H990   H     0.44512   0.16522   0.33548   0.00000  Uiso   1.00
H991   H     0.16297   0.28615   0.42229   0.00000  Uiso   1.00
H992   H     0.12392   0.26562   0.38384   0.00000  Uiso   1.00
H993   H     0.11716   0.25929   0.44436   0.00000  Uiso   1.00
H994   H     0.43819   0.12155   0.59833   0.00000  Uiso   1.00
H995   H     0.45966   0.04597   0.59197   0.00000  Uiso   1.00
H996   H     0.49233   0.07189   0.54909   0.00000  Uiso   1.00
H997   H     0.44568   0.04532   0.53229   0.00000  Uiso   1.00
H998   H     0.12101   0.15791   0.60765   0.00000  Uiso   1.00
H999   H     0.18208   0.17807   0.56267   0.00000  Uiso   1.00
H1000  H     0.16076   0.22510   0.59400   0.00000  Uiso   1.00
H1001  H     0.03998   0.35786   0.59826   0.00000  Uiso   1.00
H1002  H     0.15095   0.22116   0.53337   0.00000  Uiso   1.00
H1003  H     0.40223   0.36079   0.39114   0.00000  Uiso   1.00
H1004  H     0.44640   0.42596   0.39034   0.00000  Uiso   1.00
H1005  H     0.44717   0.42563   0.45230   0.00000  Uiso   1.00
H1006  H     0.40287   0.44300   0.42052   0.00000  Uiso   1.00
H1007  H     0.37378   0.32959   0.60929   0.00000  Uiso   1.00
H1008  H     0.33363   0.27190   0.56213   0.00000  Uiso   1.00
H1009  H     0.36724   0.24872   0.60559   0.00000  Uiso   1.00
H1010  H     0.38272   0.24976   0.54734   0.00000  Uiso   1.00
H1011  H     0.07898   0.16054   0.40038   0.00000  Uiso   1.00
H1012  H     0.00263   0.36241   0.55249   0.00000  Uiso   1.00
H1013  H     0.04540   0.09416   0.36824   0.00000  Uiso   1.00
H1014  H     0.05210   0.06164   0.42105   0.00000  Uiso   1.00
H1015  H     0.09367   0.07434   0.38258   0.00000  Uiso   1.00
H1016  H     0.11549   0.42078   0.39808   0.00000  Uiso   1.00
H1017  H     0.07811   0.46398   0.45732   0.00000  Uiso   1.00
H1018  H     0.10539   0.49853   0.41512   0.00000  Uiso   1.00
H1019  H     0.12674   0.49047   0.47082   0.00000  Uiso   1.00
H1020  H     0.35642   0.02543   0.57469   0.00000  Uiso   1.00
H1021  H     0.34011   0.06458   0.64121   0.00000  Uiso   1.00
H1022  H     0.36681   0.11686   0.62197   0.00000  Uiso   1.00
H1023  H     0.00447   0.40411   0.59663   0.00000  Uiso   1.00
H1024  H     0.39428   0.06674   0.64387   0.00000  Uiso   1.00
H1025  H     0.36387   0.10149   0.38722   0.00000  Uiso   1.00
H1026  H     0.40970   0.03974   0.41469   0.00000  Uiso   1.00
H1027  H     0.36746   0.01924   0.38072   0.00000  Uiso   1.00
H1028  H     0.36632   0.01222   0.44165   0.00000  Uiso   1.00
H1029  H     0.18752   0.37220   0.59926   0.00000  Uiso   1.00
H1030  H     0.20959   0.29694   0.59350   0.00000  Uiso   1.00
H1031  H     0.24184   0.32237   0.54995   0.00000  Uiso   1.00
H1032  H     0.19514   0.29555   0.53397   0.00000  Uiso   1.00
H1033  H     0.37043   0.40549   0.60826   0.00000  Uiso   1.00
H1034  H     0.45001   0.32966   0.60235   0.00000  Uiso   1.00
H1035  H     0.43108   0.42606   0.56281   0.00000  Uiso   1.00
H1036  H     0.41004   0.47297   0.59460   0.00000  Uiso   1.00
H1037  H     0.39985   0.46932   0.53403   0.00000  Uiso   1.00
H1038  H     0.15861   0.07839   0.39879   0.00000  Uiso   1.00
H1039  H     0.18874   0.16336   0.37907   0.00000  Uiso   1.00
H1040  H     0.14734   0.18244   0.41042   0.00000  Uiso   1.00
H1041  H     0.13900   0.14832   0.35925   0.00000  Uiso   1.00
H1042  H     0.12678   0.08277   0.60989   0.00000  Uiso   1.00
H1043  H     0.08365   0.02557   0.56632   0.00000  Uiso   1.00
H1044  H     0.11909   0.00160   0.60741   0.00000  Uiso   1.00
N1045  N     0.00000   0.25000   0.61736   0.00000  Uiso   1.00
N1046  N     0.41429   0.37004   0.42225   0.00000  Uiso   1.00
N1047  N     0.38330   0.31534   0.57930   0.00000  Uiso   1.00
N1048  N     0.07350   0.13168   0.42101   0.00000  Uiso   1.00
N1049  N     0.12825   0.43170   0.42828   0.00000  Uiso   1.00
N1050  N     0.36957   0.05804   0.57851   0.00000  Uiso   1.00
N1051  N     0.35786   0.08147   0.41596   0.00000  Uiso   1.00
N1052  N     0.19102   0.36228   0.56596   0.00000  Uiso   1.00
N1053  N     0.36867   0.42008   0.57589   0.00000  Uiso   1.00
N1054  N     0.15877   0.10898   0.41698   0.00000  Uiso   1.00
N1055  N     0.13502   0.06771   0.57979   0.00000  Uiso   1.00
N1056  N    -0.00000   0.25000   0.38264   0.00000  Uiso   1.00
N1057  N     0.32866   0.38613   0.41852   0.00000  Uiso   1.00
N1058  N     0.25000  -0.00000   0.61736   0.00000  Uiso   1.00
N1059  N     0.25000  -0.00000   0.38264   0.00000  Uiso   1.00
N1060  N     0.37749   0.18370   0.42938   0.00000  Uiso   1.00
N1061  N     0.11882   0.30907   0.57961   0.00000  Uiso   1.00
N1062  N     0.11146   0.32833   0.41694   0.00000  Uiso   1.00
N1063  N     0.44141   0.11166   0.56498   0.00000  Uiso   1.00
N1064  N     0.11958   0.17213   0.57513   0.00000  Uiso   1.00
O1065  O     0.04508   0.20491   0.53958   0.00000  Uiso   1.00
O1066  O     0.20491   0.04509   0.46042   0.00000  Uiso   1.00
O1067  O     0.20491   0.04509   0.53958   0.00000  Uiso   1.00
O1068  O     0.29508   0.45491   0.46042   0.00000  Uiso   1.00
O1069  O     0.20491   0.45491   0.46042   0.00000  Uiso   1.00
O1070  O     0.29508   0.04509   0.53958   0.00000  Uiso   1.00
O1071  O     0.29508   0.04509   0.46042   0.00000  Uiso   1.00
O1072  O     0.20491   0.45491   0.53958   0.00000  Uiso   1.00
O1073  O     0.45491   0.29509   0.46042   0.00000  Uiso   1.00
O1074  O     0.45491   0.29509   0.53958   0.00000  Uiso   1.00
O1075  O     0.04508   0.20491   0.46042   0.00000  Uiso   1.00
O1076  O     0.45491   0.20491   0.46042   0.00000  Uiso   1.00
O1077  O     0.04508   0.29509   0.53958   0.00000  Uiso   1.00
O1078  O     0.04508   0.29509   0.46042   0.00000  Uiso   1.00
O1079  O     0.45491   0.20491   0.53958   0.00000  Uiso   1.00
O1080  O     0.29508   0.45491   0.53958   0.00000  Uiso   1.00
C1081  C     0.55853   0.18948   0.50036   0.00000  Uiso   1.00
C1082  C     0.99560   0.29151   0.64133   0.00000  Uiso   1.00
C1083  C     0.50232   0.29227   0.35738   0.00000  Uiso   1.00
C1084  C     0.50632   0.21060   0.64423   0.00000  Uiso   1.00
C1085  C     0.74497   0.45997   0.35741   0.00000  Uiso   1.00
C1086  C     0.74650   0.04171   0.64143   0.00000  Uiso   1.00
C1087  C     0.75301   0.04220   0.35763   0.00000  Uiso   1.00
C1088  C     0.75607   0.46058   0.64415   0.00000  Uiso   1.00
C1089  C     0.88380   0.14700   0.46234   0.00000  Uiso   1.00
C1090  C     0.62332   0.33922   0.54037   0.00000  Uiso   1.00
C1091  C     0.61426   0.35261   0.45925   0.00000  Uiso   1.00
C1092  C     0.93963   0.30802   0.49974   0.00000  Uiso   1.00
C1093  C     0.90710   0.11975   0.53682   0.00000  Uiso   1.00
C1094  C     0.61077   0.13900   0.54073   0.00000  Uiso   1.00
C1095  C     0.88858   0.35947   0.45938   0.00000  Uiso   1.00
C1096  C     0.88174   0.34593   0.54018   0.00000  Uiso   1.00
C1097  C     0.59904   0.12914   0.46021   0.00000  Uiso   1.00
C1098  C     0.63432   0.39594   0.46230   0.00000  Uiso   1.00
C1099  C     0.87361   0.08886   0.53968   0.00000  Uiso   1.00
C1100  C     0.86303   0.10414   0.45890   0.00000  Uiso   1.00
C1101  C     0.65684   0.37016   0.53752   0.00000  Uiso   1.00
C1102  C     0.85937   0.38737   0.54124   0.00000  Uiso   1.00
C1103  C     0.94119   0.18971   0.50017   0.00000  Uiso   1.00
C1104  C     0.63653   0.10698   0.45825   0.00000  Uiso   1.00
C1105  C     0.63304   0.09754   0.54013   0.00000  Uiso   1.00
C1106  C     0.85087   0.38082   0.45990   0.00000  Uiso   1.00
C1107  C     0.60026   0.33207   0.50020   0.00000  Uiso   1.00
C1108  C     0.90928   0.15314   0.50062   0.00000  Uiso   1.00
C1109  C     0.90304   0.33745   0.49960   0.00000  Uiso   1.00
C1110  C     0.58956   0.15241   0.50065   0.00000  Uiso   1.00
C1111  C     0.84992   0.08260   0.49985   0.00000  Uiso   1.00
C1112  C     0.65936   0.40297   0.50080   0.00000  Uiso   1.00
C1113  C     0.65267   0.08704   0.49899   0.00000  Uiso   1.00
C1114  C     0.56198   0.30517   0.50011   0.00000  Uiso   1.00
C1115  C     0.83930   0.40205   0.50071   0.00000  Uiso   1.00
C1116  C     0.96000   0.17707   0.36754   0.00000  Uiso   1.00
C1117  C     0.97124   0.13338   0.39533   0.00000  Uiso   1.00
C1118  C     0.97880   0.33636   0.61783   0.00000  Uiso   1.00
C1119  C     0.50843   0.36631   0.58950   0.00000  Uiso   1.00
C1120  C     0.99978   0.34233   0.37717   0.00000  Uiso   1.00
C1121  C     0.51622   0.36758   0.41883   0.00000  Uiso   1.00
C1122  C     0.54026   0.17897   0.63397   0.00000  Uiso   1.00
C1123  C     0.52652   0.13423   0.61096   0.00000  Uiso   1.00
C1124  C     0.71145   0.42552   0.36849   0.00000  Uiso   1.00
C1125  C     0.80843   0.43933   0.50036   0.00000  Uiso   1.00
C1126  C     0.72438   0.38323   0.39738   0.00000  Uiso   1.00
C1127  C     0.73096   0.08726   0.61788   0.00000  Uiso   1.00
C1128  C     0.76118   0.11655   0.58985   0.00000  Uiso   1.00
C1129  C     0.75139   0.09213   0.37786   0.00000  Uiso   1.00
C1130  C     0.76327   0.11839   0.42118   0.00000  Uiso   1.00
C1131  C     0.79032   0.42936   0.63426   0.00000  Uiso   1.00
C1132  C     0.77677   0.38419   0.61184   0.00000  Uiso   1.00
C1133  C     0.85634   0.22358   0.44638   0.00000  Uiso   1.00
C1134  C     0.61626   0.32966   0.62424   0.00000  Uiso   1.00
C1135  C     0.62984   0.28255   0.41710   0.00000  Uiso   1.00
C1136  C     0.68942   0.05774   0.49960   0.00000  Uiso   1.00
C1137  C     0.96050   0.06650   0.55936   0.00000  Uiso   1.00
C1138  C     0.65517   0.20056   0.56561   0.00000  Uiso   1.00
C1139  C     0.92845   0.41853   0.42148   0.00000  Uiso   1.00
C1140  C     0.86573   0.26914   0.57296   0.00000  Uiso   1.00
C1141  C     0.56592   0.08813   0.39743   0.00000  Uiso   1.00
C1142  C     0.60856   0.47318   0.44402   0.00000  Uiso   1.00
C1143  C     0.86760   0.07788   0.62354   0.00000  Uiso   1.00
C1144  C     0.87633   0.03590   0.41332   0.00000  Uiso   1.00
C1145  C     0.71012   0.31708   0.56066   0.00000  Uiso   1.00
C1146  C     0.90422   0.44856   0.56615   0.00000  Uiso   1.00
C1147  C     0.69123   0.43963   0.50020   0.00000  Uiso   1.00
C1148  C     0.65815   0.15270   0.39018   0.00000  Uiso   1.00
C1149  C     0.61619   0.02194   0.57486   0.00000  Uiso   1.00
C1150  C     0.81755   0.34186   0.39791   0.00000  Uiso   1.00
C1151  C     0.81187   0.05535   0.50005   0.00000  Uiso   1.00
C1152  C     0.99497   0.20992   0.35747   0.00000  Uiso   1.00
Cu1153 Cu    0.50000   0.25000   0.54689   0.00000  Uiso   1.00
Cu1154 Cu    0.50000   0.25000   0.45311   0.00000  Uiso   1.00
Cu1155 Cu    0.75000  -0.00000   0.54689   0.00000  Uiso   1.00
Cu1156 Cu    0.75000  -0.00000   0.45311   0.00000  Uiso   1.00
H1157  H     0.98123   0.10565   0.37244   0.00000  Uiso   1.00
H1158  H     0.96448   0.36120   0.64062   0.00000  Uiso   1.00
H1159  H     0.63120   0.00198   0.54801   0.00000  Uiso   1.00
H1160  H     0.84226   0.40937   0.39594   0.00000  Uiso   1.00
H1161  H     0.80112   0.34801   0.36556   0.00000  Uiso   1.00
H1162  H     0.79815   0.32063   0.42145   0.00000  Uiso   1.00
H1163  H     0.84447   0.32162   0.38914   0.00000  Uiso   1.00
H1164  H     0.50997   0.40558   0.41495   0.00000  Uiso   1.00
H1165  H     0.50175   0.35728   0.45127   0.00000  Uiso   1.00
H1166  H     0.54894   0.36749   0.41942   0.00000  Uiso   1.00
H1167  H     0.51520   0.36529   0.35145   0.00000  Uiso   1.00
H1168  H     0.96772   0.34926   0.37681   0.00000  Uiso   1.00
H1169  H     0.50495   0.11439   0.63284   0.00000  Uiso   1.00
H1170  H     0.51186   0.14267   0.57804   0.00000  Uiso   1.00
H1171  H     0.55269   0.11151   0.60501   0.00000  Uiso   1.00
H1172  H     0.56272   0.19967   0.61485   0.00000  Uiso   1.00
H1173  H     0.99463   0.14115   0.42141   0.00000  Uiso   1.00
H1174  H     0.55661   0.16875   0.66537   0.00000  Uiso   1.00
H1175  H     0.73578   0.35559   0.37524   0.00000  Uiso   1.00
H1176  H     0.74740   0.39291   0.42324   0.00000  Uiso   1.00
H1177  H     0.69796   0.36763   0.41510   0.00000  Uiso   1.00
H1178  H     0.68730   0.44517   0.38425   0.00000  Uiso   1.00
H1179  H     0.69701   0.41200   0.33685   0.00000  Uiso   1.00
H1180  H     0.79249   0.10686   0.59824   0.00000  Uiso   1.00
H1181  H     0.75483   0.11342   0.55285   0.00000  Uiso   1.00
H1182  H     0.75832   0.15439   0.59756   0.00000  Uiso   1.00
H1183  H     0.70231   0.08157   0.60172   0.00000  Uiso   1.00
H1184  H     0.94430   0.11880   0.41272   0.00000  Uiso   1.00
H1185  H     0.71722   0.11252   0.64064   0.00000  Uiso   1.00
H1186  H     0.75214   0.15487   0.41753   0.00000  Uiso   1.00
H1187  H     0.74964   0.10580   0.45313   0.00000  Uiso   1.00
H1188  H     0.79585   0.12354   0.42398   0.00000  Uiso   1.00
H1189  H     0.76818   0.11485   0.35304   0.00000  Uiso   1.00
H1190  H     0.71946   0.09854   0.37572   0.00000  Uiso   1.00
H1191  H     0.75480   0.36484   0.63362   0.00000  Uiso   1.00
H1192  H     0.76261   0.39212   0.57851   0.00000  Uiso   1.00
H1193  H     0.80289   0.36117   0.60682   0.00000  Uiso   1.00
H1194  H     0.81257   0.45006   0.61481   0.00000  Uiso   1.00
H1195  H     0.93657   0.19742   0.38395   0.00000  Uiso   1.00
H1196  H     0.80685   0.42013   0.66590   0.00000  Uiso   1.00
H1197  H     0.86567   0.17369   0.39845   0.00000  Uiso   1.00
H1198  H     0.82753   0.21217   0.46258   0.00000  Uiso   1.00
H1199  H     0.84938   0.24788   0.41760   0.00000  Uiso   1.00
H1200  H     0.87543   0.24281   0.47103   0.00000  Uiso   1.00
H1201  H     0.60598   0.27625   0.57612   0.00000  Uiso   1.00
H1202  H     0.58859   0.31659   0.64170   0.00000  Uiso   1.00
H1203  H     0.61544   0.36861   0.62203   0.00000  Uiso   1.00
H1204  H     0.64273   0.31887   0.64512   0.00000  Uiso   1.00
H1205  H     0.61951   0.34757   0.38832   0.00000  Uiso   1.00
H1206  H     0.94512   0.16522   0.33548   0.00000  Uiso   1.00
H1207  H     0.66297   0.28615   0.42229   0.00000  Uiso   1.00
H1208  H     0.62392   0.26562   0.38384   0.00000  Uiso   1.00
H1209  H     0.61716   0.25929   0.44436   0.00000  Uiso   1.00
H1210  H     0.93819   0.12155   0.59833   0.00000  Uiso   1.00
H1211  H     0.95966   0.04597   0.59197   0.00000  Uiso   1.00
H1212  H     0.99233   0.07189   0.54909   0.00000  Uiso   1.00
H1213  H     0.94568   0.04532   0.53229   0.00000  Uiso   1.00
H1214  H     0.62101   0.15791   0.60765   0.00000  Uiso   1.00
H1215  H     0.68208   0.17807   0.56267   0.00000  Uiso   1.00
H1216  H     0.66076   0.22510   0.59400   0.00000  Uiso   1.00
H1217  H     0.53998   0.35786   0.59826   0.00000  Uiso   1.00
H1218  H     0.65095   0.22116   0.53337   0.00000  Uiso   1.00
H1219  H     0.90223   0.36079   0.39114   0.00000  Uiso   1.00
H1220  H     0.94640   0.42596   0.39034   0.00000  Uiso   1.00
H1221  H     0.94717   0.42563   0.45230   0.00000  Uiso   1.00
H1222  H     0.90287   0.44300   0.42052   0.00000  Uiso   1.00
H1223  H     0.87378   0.32959   0.60929   0.00000  Uiso   1.00
H1224  H     0.83363   0.27190   0.56213   0.00000  Uiso   1.00
H1225  H     0.86724   0.24872   0.60559   0.00000  Uiso   1.00
H1226  H     0.88272   0.24976   0.54734   0.00000  Uiso   1.00
H1227  H     0.57898   0.16054   0.40038   0.00000  Uiso   1.00
H1228  H     0.50263   0.36241   0.55249   0.00000  Uiso   1.00
H1229  H     0.54540   0.09416   0.36824   0.00000  Uiso   1.00
H1230  H     0.55210   0.06164   0.42105   0.00000  Uiso   1.00
H1231  H     0.59367   0.07434   0.38258   0.00000  Uiso   1.00
H1232  H     0.61549   0.42078   0.39808   0.00000  Uiso   1.00
H1233  H     0.57811   0.46398   0.45732   0.00000  Uiso   1.00
H1234  H     0.60539   0.49853   0.41512   0.00000  Uiso   1.00
H1235  H     0.62674   0.49047   0.47082   0.00000  Uiso   1.00
H1236  H     0.85642   0.02543   0.57469   0.00000  Uiso   1.00
H1237  H     0.84011   0.06458   0.64121   0.00000  Uiso   1.00
H1238  H     0.86681   0.11686   0.62197   0.00000  Uiso   1.00
H1239  H     0.50447   0.40411   0.59663   0.00000  Uiso   1.00
H1240  H     0.89428   0.06674   0.64387   0.00000  Uiso   1.00
H1241  H     0.86387   0.10149   0.38722   0.00000  Uiso   1.00
H1242  H     0.90970   0.03974   0.41469   0.00000  Uiso   1.00
H1243  H     0.86746   0.01924   0.38072   0.00000  Uiso   1.00
H1244  H     0.86632   0.01222   0.44165   0.00000  Uiso   1.00
H1245  H     0.68752   0.37220   0.59926   0.00000  Uiso   1.00
H1246  H     0.70959   0.29694   0.59350   0.00000  Uiso   1.00
H1247  H     0.74184   0.32237   0.54995   0.00000  Uiso   1.00
H1248  H     0.69514   0.29555   0.53397   0.00000  Uiso   1.00
H1249  H     0.87043   0.40549   0.60826   0.00000  Uiso   1.00
H1250  H     0.95001   0.32966   0.60235   0.00000  Uiso   1.00
H1251  H     0.93108   0.42606   0.56281   0.00000  Uiso   1.00
H1252  H     0.91004   0.47297   0.59460   0.00000  Uiso   1.00
H1253  H     0.89985   0.46932   0.53403   0.00000  Uiso   1.00
H1254  H     0.65861   0.07839   0.39879   0.00000  Uiso   1.00
H1255  H     0.68874   0.16336   0.37907   0.00000  Uiso   1.00
H1256  H     0.64734   0.18244   0.41042   0.00000  Uiso   1.00
H1257  H     0.63900   0.14832   0.35925   0.00000  Uiso   1.00
H1258  H     0.62678   0.08277   0.60989   0.00000  Uiso   1.00
H1259  H     0.58365   0.02557   0.56632   0.00000  Uiso   1.00
H1260  H     0.61909   0.00160   0.60741   0.00000  Uiso   1.00
N1261  N     0.50000   0.25000   0.61736   0.00000  Uiso   1.00
N1262  N     0.91429   0.37004   0.42225   0.00000  Uiso   1.00
N1263  N     0.88330   0.31534   0.57930   0.00000  Uiso   1.00
N1264  N     0.57350   0.13168   0.42101   0.00000  Uiso   1.00
N1265  N     0.62825   0.43170   0.42828   0.00000  Uiso   1.00
N1266  N     0.86957   0.05804   0.57851   0.00000  Uiso   1.00
N1267  N     0.85786   0.08147   0.41596   0.00000  Uiso   1.00
N1268  N     0.69102   0.36228   0.56596   0.00000  Uiso   1.00
N1269  N     0.86867   0.42008   0.57589   0.00000  Uiso   1.00
N1270  N     0.65877   0.10898   0.41698   0.00000  Uiso   1.00
N1271  N     0.63502   0.06771   0.57979   0.00000  Uiso   1.00
N1272  N     0.50000   0.25000   0.38264   0.00000  Uiso   1.00
N1273  N     0.82866   0.38613   0.41852   0.00000  Uiso   1.00
N1274  N     0.75000  -0.00000   0.61736   0.00000  Uiso   1.00
N1275  N     0.75000  -0.00000   0.38264   0.00000  Uiso   1.00
N1276  N     0.87749   0.18370   0.42938   0.00000  Uiso   1.00
N1277  N     0.61882   0.30907   0.57961   0.00000  Uiso   1.00
N1278  N     0.61146   0.32833   0.41694   0.00000  Uiso   1.00
N1279  N     0.94141   0.11166   0.56498   0.00000  Uiso   1.00
N1280  N     0.61958   0.17213   0.57513   0.00000  Uiso   1.00
O1281  O     0.54508   0.20491   0.53958   0.00000  Uiso   1.00
O1282  O     0.70491   0.04509   0.46042   0.00000  Uiso   1.00
O1283  O     0.70491   0.04509   0.53958   0.00000  Uiso   1.00
O1284  O     0.79508   0.45491   0.46042   0.00000  Uiso   1.00
O1285  O     0.70491   0.45491   0.46042   0.00000  Uiso   1.00
O1286  O     0.79508   0.04509   0.53958   0.00000  Uiso   1.00
O1287  O     0.79508   0.04509   0.46042   0.00000  Uiso   1.00
O1288  O     0.70491   0.45491   0.53958   0.00000  Uiso   1.00
O1289  O     0.95491   0.29509   0.46042   0.00000  Uiso   1.00
O1290  O     0.95491   0.29509   0.53958   0.00000  Uiso   1.00
O1291  O     0.54508   0.20491   0.46042   0.00000  Uiso   1.00
O1292  O     0.95491   0.20491   0.46042   0.00000  Uiso   1.00
O1293  O     0.54508   0.29509   0.53958   0.00000  Uiso   1.00
O1294  O     0.54508   0.29509   0.46042   0.00000  Uiso   1.00
O1295  O     0.95491   0.20491   0.53958   0.00000  Uiso   1.00
O1296  O     0.79508   0.45491   0.53958   0.00000  Uiso   1.00
C1297  C     0.05853   0.68948   0.50036   0.00000  Uiso   1.00
C1298  C     0.49560   0.79151   0.64133   0.00000  Uiso   1.00
C1299  C     0.00232   0.79227   0.35738   0.00000  Uiso   1.00
C1300  C     0.00632   0.71060   0.64423   0.00000  Uiso   1.00
C1301  C     0.24497   0.95997   0.35741   0.00000  Uiso   1.00
C1302  C     0.24650   0.54171   0.64143   0.00000  Uiso   1.00
C1303  C     0.25301   0.54220   0.35763   0.00000  Uiso   1.00
C1304  C     0.25607   0.96058   0.64415   0.00000  Uiso   1.00
C1305  C     0.38380   0.64700   0.46234   0.00000  Uiso   1.00
C1306  C     0.12332   0.83922   0.54037   0.00000  Uiso   1.00
C1307  C     0.11426   0.85261   0.45925   0.00000  Uiso   1.00
C1308  C     0.43963   0.80802   0.49974   0.00000  Uiso   1.00
C1309  C     0.40710   0.61975   0.53682   0.00000  Uiso   1.00
C1310  C     0.11077   0.63900   0.54073   0.00000  Uiso   1.00
C1311  C     0.38858   0.85947   0.45938   0.00000  Uiso   1.00
C1312  C     0.38174   0.84593   0.54018   0.00000  Uiso   1.00
C1313  C     0.09904   0.62914   0.46021   0.00000  Uiso   1.00
C1314  C     0.13432   0.89594   0.46230   0.00000  Uiso   1.00
C1315  C     0.37361   0.58886   0.53968   0.00000  Uiso   1.00
C1316  C     0.36303   0.60414   0.45890   0.00000  Uiso   1.00
C1317  C     0.15684   0.87016   0.53752   0.00000  Uiso   1.00
C1318  C     0.35937   0.88737   0.54124   0.00000  Uiso   1.00
C1319  C     0.44119   0.68971   0.50017   0.00000  Uiso   1.00
C1320  C     0.13653   0.60698   0.45825   0.00000  Uiso   1.00
C1321  C     0.13304   0.59754   0.54013   0.00000  Uiso   1.00
C1322  C     0.35087   0.88082   0.45990   0.00000  Uiso   1.00
C1323  C     0.10026   0.83207   0.50020   0.00000  Uiso   1.00
C1324  C     0.40928   0.65314   0.50062   0.00000  Uiso   1.00
C1325  C     0.40304   0.83745   0.49960   0.00000  Uiso   1.00
C1326  C     0.08956   0.65241   0.50065   0.00000  Uiso   1.00
C1327  C     0.34992   0.58260   0.49985   0.00000  Uiso   1.00
C1328  C     0.15936   0.90297   0.50080   0.00000  Uiso   1.00
C1329  C     0.15267   0.58704   0.49899   0.00000  Uiso   1.00
C1330  C     0.06198   0.80517   0.50011   0.00000  Uiso   1.00
C1331  C     0.33930   0.90205   0.50071   0.00000  Uiso   1.00
C1332  C     0.46000   0.67707   0.36754   0.00000  Uiso   1.00
C1333  C     0.47124   0.63338   0.39533   0.00000  Uiso   1.00
C1334  C     0.47880   0.83636   0.61783   0.00000  Uiso   1.00
C1335  C     0.00843   0.86631   0.58950   0.00000  Uiso   1.00
C1336  C     0.49978   0.84233   0.37717   0.00000  Uiso   1.00
C1337  C     0.01622   0.86758   0.41883   0.00000  Uiso   1.00
C1338  C     0.04026   0.67897   0.63397   0.00000  Uiso   1.00
C1339  C     0.02652   0.63423   0.61096   0.00000  Uiso   1.00
C1340  C     0.21145   0.92552   0.36849   0.00000  Uiso   1.00
C1341  C     0.30843   0.93933   0.50036   0.00000  Uiso   1.00
C1342  C     0.22438   0.88323   0.39738   0.00000  Uiso   1.00
C1343  C     0.23096   0.58726   0.61788   0.00000  Uiso   1.00
C1344  C     0.26118   0.61655   0.58985   0.00000  Uiso   1.00
C1345  C     0.25139   0.59213   0.37786   0.00000  Uiso   1.00
C1346  C     0.26327   0.61839   0.42118   0.00000  Uiso   1.00
C1347  C     0.29032   0.92936   0.63426   0.00000  Uiso   1.00
C1348  C     0.27677   0.88419   0.61184   0.00000  Uiso   1.00
C1349  C     0.35634   0.72358   0.44638   0.00000  Uiso   1.00
C1350  C     0.11626   0.82966   0.62424   0.00000  Uiso   1.00
C1351  C     0.12984   0.78255   0.41710   0.00000  Uiso   1.00
C1352  C     0.18942   0.55774   0.49960   0.00000  Uiso   1.00
C1353  C     0.46050   0.56650   0.55936   0.00000  Uiso   1.00
C1354  C     0.15517   0.70056   0.56561   0.00000  Uiso   1.00
C1355  C     0.42845   0.91853   0.42148   0.00000  Uiso   1.00
C1356  C     0.36573   0.76914   0.57296   0.00000  Uiso   1.00
C1357  C     0.06592   0.58813   0.39743   0.00000  Uiso   1.00
C1358  C     0.10856   0.97318   0.44402   0.00000  Uiso   1.00
C1359  C     0.36760   0.57788   0.62354   0.00000  Uiso   1.00
C1360  C     0.37633   0.53590   0.41332   0.00000  Uiso   1.00
C1361  C     0.21012   0.81708   0.56066   0.00000  Uiso   1.00
C1362  C     0.40422   0.94856   0.56615   0.00000  Uiso   1.00
C1363  C     0.19123   0.93963   0.50020   0.00000  Uiso   1.00
C1364  C     0.15815   0.65270   0.39018   0.00000  Uiso   1.00
C1365  C     0.11619   0.52194   0.57486   0.00000  Uiso   1.00
C1366  C     0.31755   0.84186   0.39791   0.00000  Uiso   1.00
C1367  C     0.31187   0.55535   0.50005   0.00000  Uiso   1.00
C1368  C     0.49497   0.70992   0.35747   0.00000  Uiso   1.00
Cu1369 Cu    0.00000   0.75000   0.54689   0.00000  Uiso   1.00
Cu1370 Cu   -0.00000   0.75000   0.45311   0.00000  Uiso   1.00
Cu1371 Cu    0.25000   0.50000   0.54689   0.00000  Uiso   1.00
Cu1372 Cu    0.25000   0.50000   0.45311   0.00000  Uiso   1.00
H1373  H     0.48123   0.60565   0.37244   0.00000  Uiso   1.00
H1374  H     0.46448   0.86120   0.64062   0.00000  Uiso   1.00
H1375  H     0.13120   0.50198   0.54801   0.00000  Uiso   1.00
H1376  H     0.34226   0.90937   0.39594   0.00000  Uiso   1.00
H1377  H     0.30112   0.84801   0.36556   0.00000  Uiso   1.00
H1378  H     0.29815   0.82063   0.42145   0.00000  Uiso   1.00
H1379  H     0.34447   0.82162   0.38914   0.00000  Uiso   1.00
H1380  H     0.00997   0.90558   0.41495   0.00000  Uiso   1.00
H1381  H     0.00175   0.85728   0.45127   0.00000  Uiso   1.00
H1382  H     0.04894   0.86749   0.41942   0.00000  Uiso   1.00
H1383  H     0.01520   0.86529   0.35145   0.00000  Uiso   1.00
H1384  H     0.46772   0.84926   0.37681   0.00000  Uiso   1.00
H1385  H     0.00495   0.61439   0.63284   0.00000  Uiso   1.00
H1386  H     0.01186   0.64267   0.57804   0.00000  Uiso   1.00
H1387  H     0.05269   0.61151   0.60501   0.00000  Uiso   1.00
H1388  H     0.06272   0.69967   0.61485   0.00000  Uiso   1.00
H1389  H     0.49463   0.64115   0.42141   0.00000  Uiso   1.00
H1390  H     0.05661   0.66875   0.66537   0.00000  Uiso   1.00
H1391  H     0.23578   0.85559   0.37524   0.00000  Uiso   1.00
H1392  H     0.24740   0.89291   0.42324   0.00000  Uiso   1.00
H1393  H     0.19796   0.86763   0.41510   0.00000  Uiso   1.00
H1394  H     0.18730   0.94517   0.38425   0.00000  Uiso   1.00
H1395  H     0.19701   0.91200   0.33685   0.00000  Uiso   1.00
H1396  H     0.29249   0.60686   0.59824   0.00000  Uiso   1.00
H1397  H     0.25483   0.61342   0.55285   0.00000  Uiso   1.00
H1398  H     0.25832   0.65439   0.59756   0.00000  Uiso   1.00
H1399  H     0.20231   0.58157   0.60172   0.00000  Uiso   1.00
H1400  H     0.44430   0.61880   0.41272   0.00000  Uiso   1.00
H1401  H     0.21722   0.61252   0.64064   0.00000  Uiso   1.00
H1402  H     0.25214   0.65487   0.41753   0.00000  Uiso   1.00
H1403  H     0.24964   0.60580   0.45313   0.00000  Uiso   1.00
H1404  H     0.29585   0.62354   0.42398   0.00000  Uiso   1.00
H1405  H     0.26818   0.61485   0.35304   0.00000  Uiso   1.00
H1406  H     0.21946   0.59854   0.37572   0.00000  Uiso   1.00
H1407  H     0.25480   0.86484   0.63362   0.00000  Uiso   1.00
H1408  H     0.26261   0.89212   0.57851   0.00000  Uiso   1.00
H1409  H     0.30289   0.86117   0.60682   0.00000  Uiso   1.00
H1410  H     0.31257   0.95006   0.61481   0.00000  Uiso   1.00
H1411  H     0.43657   0.69742   0.38395   0.00000  Uiso   1.00
H1412  H     0.30685   0.92013   0.66590   0.00000  Uiso   1.00
H1413  H     0.36567   0.67369   0.39845   0.00000  Uiso   1.00
H1414  H     0.32753   0.71217   0.46258   0.00000  Uiso   1.00
H1415  H     0.34938   0.74788   0.41760   0.00000  Uiso   1.00
H1416  H     0.37543   0.74281   0.47103   0.00000  Uiso   1.00
H1417  H     0.10598   0.77625   0.57612   0.00000  Uiso   1.00
H1418  H     0.08859   0.81659   0.64170   0.00000  Uiso   1.00
H1419  H     0.11544   0.86861   0.62203   0.00000  Uiso   1.00
H1420  H     0.14273   0.81887   0.64512   0.00000  Uiso   1.00
H1421  H     0.11951   0.84757   0.38832   0.00000  Uiso   1.00
H1422  H     0.44512   0.66522   0.33548   0.00000  Uiso   1.00
H1423  H     0.16297   0.78615   0.42229   0.00000  Uiso   1.00
H1424  H     0.12392   0.76562   0.38384   0.00000  Uiso   1.00
H1425  H     0.11716   0.75929   0.44436   0.00000  Uiso   1.00
H1426  H     0.43819   0.62155   0.59833   0.00000  Uiso   1.00
H1427  H     0.45966   0.54597   0.59197   0.00000  Uiso   1.00
H1428  H     0.49233   0.57189   0.54909   0.00000  Uiso   1.00
H1429  H     0.44568   0.54532   0.53229   0.00000  Uiso   1.00
H1430  H     0.12101   0.65791   0.60765   0.00000  Uiso   1.00
H1431  H     0.18208   0.67807   0.56267   0.00000  Uiso   1.00
H1432  H     0.16076   0.72510   0.59400   0.00000  Uiso   1.00
H1433  H     0.03998   0.85786   0.59826   0.00000  Uiso   1.00
H1434  H     0.15095   0.72116   0.53337   0.00000  Uiso   1.00
H1435  H     0.40223   0.86079   0.39114   0.00000  Uiso   1.00
H1436  H     0.44640   0.92596   0.39034   0.00000  Uiso   1.00
H1437  H     0.44717   0.92563   0.45230   0.00000  Uiso   1.00
H1438  H     0.40287   0.94300   0.42052   0.00000  Uiso   1.00
H1439  H     0.37378   0.82959   0.60929   0.00000  Uiso   1.00
H1440  H     0.33363   0.77190   0.56213   0.00000  Uiso   1.00
H1441  H     0.36724   0.74872   0.60559   0.00000  Uiso   1.00
H1442  H     0.38272   0.74976   0.54734   0.00000  Uiso   1.00
H1443  H     0.07898   0.66054   0.40038   0.00000  Uiso   1.00
H1444  H     0.00263   0.86241   0.55249   0.00000  Uiso   1.00
H1445  H     0.04540   0.59416   0.36824   0.00000  Uiso   1.00
H1446  H     0.05210   0.56164   0.42105   0.00000  Uiso   1.00
H1447  H     0.09367   0.57434   0.38258   0.00000  Uiso   1.00
H1448  H     0.11549   0.92078   0.39808   0.00000  Uiso   1.00
H1449  H     0.07811   0.96398   0.45732   0.00000  Uiso   1.00
H1450  H     0.10539   0.99853   0.41512   0.00000  Uiso   1.00
H1451  H     0.12674   0.99047   0.47082   0.00000  Uiso   1.00
H1452  H     0.35642   0.52543   0.57469   0.00000  Uiso   1.00
H1453  H     0.34011   0.56458   0.64121   0.00000  Uiso   1.00
H1454  H     0.36681   0.61686   0.62197   0.00000  Uiso   1.00
H1455  H     0.00447   0.90411   0.59663   0.00000  Uiso   1.00
H1456  H     0.39428   0.56674   0.64387   0.00000  Uiso   1.00
H1457  H     0.36387   0.60149   0.38722   0.00000  Uiso   1.00
H1458  H     0.40970   0.53974   0.41469   0.00000  Uiso   1.00
H1459  H     0.36746   0.51924   0.38072   0.00000  Uiso   1.00
H1460  H     0.36632   0.51222   0.44165   0.00000  Uiso   1.00
H1461  H     0.18752   0.87220   0.59926   0.00000  Uiso   1.00
H1462  H     0.20959   0.79694   0.59350   0.00000  Uiso   1.00
H1463  H     0.24184   0.82237   0.54995   0.00000  Uiso   1.00
H1464  H     0.19514   0.79555   0.53397   0.00000  Uiso   1.00
H1465  H     0.37043   0.90549   0.60826   0.00000  Uiso   1.00
H1466  H     0.45001   0.82966   0.60235   0.00000  Uiso   1.00
H1467  H     0.43108   0.92606   0.56281   0.00000  Uiso   1.00
H1468  H     0.41004   0.97297   0.59460   0.00000  Uiso   1.00
H1469  H     0.39985   0.96932   0.53403   0.00000  Uiso   1.00
H1470  H     0.15861   0.57839   0.39879   0.00000  Uiso   1.00
H1471  H     0.18874   0.66336   0.37907   0.00000  Uiso   1.00
H1472  H     0.14734   0.68244   0.41042   0.00000  Uiso   1.00
H1473  H     0.13900   0.64832   0.35925   0.00000  Uiso   1.00
H1474  H     0.12678   0.58277   0.60989   0.00000  Uiso   1.00
H1475  H     0.08365   0.52557   0.56632   0.00000  Uiso   1.00
H1476  H     0.11909   0.50160   0.60741   0.00000  Uiso   1.00
N1477  N     0.00000   0.75000   0.61736   0.00000  Uiso   1.00
N1478  N     0.41429   0.87004   0.42225   0.00000  Uiso   1.00
N1479  N     0.38330   0.81534   0.57930   0.00000  Uiso   1.00
N1480  N     0.07350   0.63168   0.42101   0.00000  Uiso   1.00
N1481  N     0.12825   0.93170   0.42828   0.00000  Uiso   1.00
N1482  N     0.36957   0.55804   0.57851   0.00000  Uiso   1.00
N1483  N     0.35786   0.58147   0.41596   0.00000  Uiso   1.00
N1484  N     0.19102   0.86228   0.56596   0.00000  Uiso   1.00
N1485  N     0.36867   0.92008   0.57589   0.00000  Uiso   1.00
N1486  N     0.15877   0.60898   0.41698   0.00000  Uiso   1.00
N1487  N     0.13502   0.56771   0.57979   0.00000  Uiso   1.00
N1488  N    -0.00000   0.75000   0.38264   0.00000  Uiso   1.00
N1489  N     0.32866   0.88613   0.41852   0.00000  Uiso   1.00
N1490  N     0.25000   0.50000   0.61736   0.00000  Uiso   1.00
N1491  N     0.25000   0.50000   0.38264   0.00000  Uiso   1.00
N1492  N     0.37749   0.68370   0.42938   0.00000  Uiso   1.00
N1493  N     0.11882   0.80907   0.57961   0.00000  Uiso   1.00
N1494  N     0.11146   0.82833   0.41694   0.00000  Uiso   1.00
N1495  N     0.44141   0.61166   0.56498   0.00000  Uiso   1.00
N1496  N     0.11958   0.67213   0.57513   0.00000  Uiso   1.00
O1497  O     0.04508   0.70491   0.53958   0.00000  Uiso   1.00
O1498  O     0.20491   0.54509   0.46042   0.00000  Uiso   1.00
O1499  O     0.20491   0.54509   0.53958   0.00000  Uiso   1.00
O1500  O     0.29508   0.95491   0.46042   0.00000  Uiso   1.00
O1501  O     0.20491   0.95491   0.46042   0.00000  Uiso   1.00
O1502  O     0.29508   0.54509   0.53958   0.00000  Uiso   1.00
O1503  O     0.29508   0.54509   0.46042   0.00000  Uiso   1.00
O1504  O     0.20491   0.95491   0.53958   0.00000  Uiso   1.00
O1505  O     0.45491   0.79509   0.46042   0.00000  Uiso   1.00
O1506  O     0.45491   0.79509   0.53958   0.00000  Uiso   1.00
O1507  O     0.04508   0.70491   0.46042   0.00000  Uiso   1.00
O1508  O     0.45491   0.70491   0.46042   0.00000  Uiso   1.00
O1509  O     0.04508   0.79509   0.53958   0.00000  Uiso   1.00
O1510  O     0.04508   0.79509   0.46042   0.00000  Uiso   1.00
O1511  O     0.45491   0.70491   0.53958   0.00000  Uiso   1.00
O1512  O     0.29508   0.95491   0.53958   0.00000  Uiso   1.00
C1513  C     0.55853   0.68948   0.50036   0.00000  Uiso   1.00
C1514  C     0.99560   0.79151   0.64133   0.00000  Uiso   1.00
C1515  C     0.50232   0.79227   0.35738   0.00000  Uiso   1.00
C1516  C     0.50632   0.71060   0.64423   0.00000  Uiso   1.00
C1517  C     0.74497   0.95997   0.35741   0.00000  Uiso   1.00
C1518  C     0.74650   0.54171   0.64143   0.00000  Uiso   1.00
C1519  C     0.75301   0.54220   0.35763   0.00000  Uiso   1.00
C1520  C     0.75607   0.96058   0.64415   0.00000  Uiso   1.00
C1521  C     0.88380   0.64700   0.46234   0.00000  Uiso   1.00
C1522  C     0.62332   0.83922   0.54037   0.00000  Uiso   1.00
C1523  C     0.61426   0.85261   0.45925   0.00000  Uiso   1.00
C1524  C     0.93963   0.80802   0.49974   0.00000  Uiso   1.00
C1525  C     0.90710   0.61975   0.53682   0.00000  Uiso   1.00
C1526  C     0.61077   0.63900   0.54073   0.00000  Uiso   1.00
C1527  C     0.88858   0.85947   0.45938   0.00000  Uiso   1.00
C1528  C     0.88174   0.84593   0.54018   0.00000  Uiso   1.00
C1529  C     0.59904   0.62914   0.46021   0.00000  Uiso   1.00
C1530  C     0.63432   0.89594   0.46230   0.00000  Uiso   1.00
C1531  C     0.87361   0.58886   0.53968   0.00000  Uiso   1.00
C1532  C     0.86303   0.60414   0.45890   0.00000  Uiso   1.00
C1533  C     0.65684   0.87016   0.53752   0.00000  Uiso   1.00
C1534  C     0.85937   0.88737   0.54124   0.00000  Uiso   1.00
C1535  C     0.94119   0.68971   0.50017   0.00000  Uiso   1.00
C1536  C     0.63653   0.60698   0.45825   0.00000  Uiso   1.00
C1537  C     0.63304   0.59754   0.54013   0.00000  Uiso   1.00
C1538  C     0.85087   0.88082   0.45990   0.00000  Uiso   1.00
C1539  C     0.60026   0.83207   0.50020   0.00000  Uiso   1.00
C1540  C     0.90928   0.65314   0.50062   0.00000  Uiso   1.00
C1541  C     0.90304   0.83745   0.49960   0.00000  Uiso   1.00
C1542  C     0.58956   0.65241   0.50065   0.00000  Uiso   1.00
C1543  C     0.84992   0.58260   0.49985   0.00000  Uiso   1.00
C1544  C     0.65936   0.90297   0.50080   0.00000  Uiso   1.00
C1545  C     0.65267   0.58704   0.49899   0.00000  Uiso   1.00
C1546  C     0.56198   0.80517   0.50011   0.00000  Uiso   1.00
C1547  C     0.83930   0.90205   0.50071   0.00000  Uiso   1.00
C1548  C     0.96000   0.67707   0.36754   0.00000  Uiso   1.00
C1549  C     0.97124   0.63338   0.39533   0.00000  Uiso   1.00
C1550  C     0.97880   0.83636   0.61783   0.00000  Uiso   1.00
C1551  C     0.50843   0.86631   0.58950   0.00000  Uiso   1.00
C1552  C     0.99978   0.84233   0.37717   0.00000  Uiso   1.00
C1553  C     0.51622   0.86758   0.41883   0.00000  Uiso   1.00
C1554  C     0.54026   0.67897   0.63397   0.00000  Uiso   1.00
C1555  C     0.52652   0.63423   0.61096   0.00000  Uiso   1.00
C1556  C     0.71145   0.92552   0.36849   0.00000  Uiso   1.00
C1557  C     0.80843   0.93933   0.50036   0.00000  Uiso   1.00
C1558  C     0.72438   0.88323   0.39738   0.00000  Uiso   1.00
C1559  C     0.73096   0.58726   0.61788   0.00000  Uiso   1.00
C1560  C     0.76118   0.61655   0.58985   0.00000  Uiso   1.00
C1561  C     0.75139   0.59213   0.37786   0.00000  Uiso   1.00
C1562  C     0.76327   0.61839   0.42118   0.00000  Uiso   1.00
C1563  C     0.79032   0.92936   0.63426   0.00000  Uiso   1.00
C1564  C     0.77677   0.88419   0.61184   0.00000  Uiso   1.00
C1565  C     0.85634   0.72358   0.44638   0.00000  Uiso   1.00
C1566  C     0.61626   0.82966   0.62424   0.00000  Uiso   1.00
C1567  C     0.62984   0.78255   0.41710   0.00000  Uiso   1.00
C1568  C     0.68942   0.55774   0.49960   0.00000  Uiso   1.00
C1569  C     0.96050   0.56650   0.55936   0.00000  Uiso   1.00
C1570  C     0.65517   0.70056   0.56561   0.00000  Uiso   1.00
C1571  C     0.92845   0.91853   0.42148   0.00000  Uiso   1.00
C1572  C     0.86573   0.76914   0.57296   0.00000  Uiso   1.00
C1573  C     0.56592   0.58813   0.39743   0.00000  Uiso   1.00
C1574  C     0.60856   0.97318   0.44402   0.00000  Uiso   1.00
C1575  C     0.86760   0.57788   0.62354   0.00000  Uiso   1.00
C1576  C     0.87633   0.53590   0.41332   0.00000  Uiso   1.00
C1577  C     0.71012   0.81708   0.56066   0.00000  Uiso   1.00
C1578  C     0.90422   0.94856   0.56615   0.00000  Uiso   1.00
C1579  C     0.69123   0.93963   0.50020   0.00000  Uiso   1.00
C1580  C     0.65815   0.65270   0.39018   0.00000  Uiso   1.00
C1581  C     0.61619   0.52194   0.57486   0.00000  Uiso   1.00
C1582  C     0.81755   0.84186   0.39791   0.00000  Uiso   1.00
C1583  C     0.81187   0.55535   0.50005   0.00000  Uiso   1.00
C1584  C     0.99497   0.70992   0.35747   0.00000  Uiso   1.00
Cu1585 Cu    0.50000   0.75000   0.54689   0.00000  Uiso   1.00
Cu1586 Cu    0.50000   0.75000   0.45311   0.00000  Uiso   1.00
Cu1587 Cu    0.75000   0.50000   0.54689   0.00000  Uiso   1.00
Cu1588 Cu    0.75000   0.50000   0.45311   0.00000  Uiso   1.00
H1589  H     0.98123   0.60565   0.37244   0.00000  Uiso   1.00
H1590  H     0.96448   0.86120   0.64062   0.00000  Uiso   1.00
H1591  H     0.63120   0.50198   0.54801   0.00000  Uiso   1.00
H1592  H     0.84226   0.90937   0.39594   0.00000  Uiso   1.00
H1593  H     0.80112   0.84801   0.36556   0.00000  Uiso   1.00
H1594  H     0.79815   0.82063   0.42145   0.00000  Uiso   1.00
H1595  H     0.84447   0.82162   0.38914   0.00000  Uiso   1.00
H1596  H     0.50997   0.90558   0.41495   0.00000  Uiso   1.00
H1597  H     0.50175   0.85728   0.45127   0.00000  Uiso   1.00
H1598  H     0.54894   0.86749   0.41942   0.00000  Uiso   1.00
H1599  H     0.51520   0.86529   0.35145   0.00000  Uiso   1.00
H1600  H     0.96772   0.84926   0.37681   0.00000  Uiso   1.00
H1601  H     0.50495   0.61439   0.63284   0.00000  Uiso   1.00
H1602  H     0.51186   0.64267   0.57804   0.00000  Uiso   1.00
H1603  H     0.55269   0.61151   0.60501   0.00000  Uiso   1.00
H1604  H     0.56272   0.69967   0.61485   0.00000  Uiso   1.00
H1605  H     0.99463   0.64115   0.42141   0.00000  Uiso   1.00
H1606  H     0.55661   0.66875   0.66537   0.00000  Uiso   1.00
H1607  H     0.73578   0.85559   0.37524   0.00000  Uiso   1.00
H1608  H     0.74740   0.89291   0.42324   0.00000  Uiso   1.00
H1609  H     0.69796   0.86763   0.41510   0.00000  Uiso   1.00
H1610  H     0.68730   0.94517   0.38425   0.00000  Uiso   1.00
H1611  H     0.69701   0.91200   0.33685   0.00000  Uiso   1.00
H1612  H     0.79249   0.60686   0.59824   0.00000  Uiso   1.00
H1613  H     0.75483   0.61342   0.55285   0.00000  Uiso   1.00
H1614  H     0.75832   0.65439   0.59756   0.00000  Uiso   1.00
H1615  H     0.70231   0.58157   0.60172   0.00000  Uiso   1.00
H1616  H     0.94430   0.61880   0.41272   0.00000  Uiso   1.00
H1617  H     0.71722   0.61252   0.64064   0.00000  Uiso   1.00
H1618  H     0.75214   0.65487   0.41753   0.00000  Uiso   1.00
H1619  H     0.74964   0.60580   0.45313   0.00000  Uiso   1.00
H1620  H     0.79585   0.62354   0.42398   0.00000  Uiso   1.00
H1621  H     0.76818   0.61485   0.35304   0.00000  Uiso   1.00
H1622  H     0.71946   0.59854   0.37572   0.00000  Uiso   1.00
H1623  H     0.75480   0.86484   0.63362   0.00000  Uiso   1.00
H1624  H     0.76261   0.89212   0.57851   0.00000  Uiso   1.00
H1625  H     0.80289   0.86117   0.60682   0.00000  Uiso   1.00
H1626  H     0.81257   0.95006   0.61481   0.00000  Uiso   1.00
H1627  H     0.93657   0.69742   0.38395   0.00000  Uiso   1.00
H1628  H     0.80685   0.92013   0.66590   0.00000  Uiso   1.00
H1629  H     0.86567   0.67369   0.39845   0.00000  Uiso   1.00
H1630  H     0.82753   0.71217   0.46258   0.00000  Uiso   1.00
H1631  H     0.84938   0.74788   0.41760   0.00000  Uiso   1.00
H1632  H     0.87543   0.74281   0.47103   0.00000  Uiso   1.00
H1633  H     0.60598   0.77625   0.57612   0.00000  Uiso   1.00
H1634  H     0.58859   0.81659   0.64170   0.00000  Uiso   1.00
H1635  H     0.61544   0.86861   0.62203   0.00000  Uiso   1.00
H1636  H     0.64273   0.81887   0.64512   0.00000  Uiso   1.00
H1637  H     0.61951   0.84757   0.38832   0.00000  Uiso   1.00
H1638  H     0.94512   0.66522   0.33548   0.00000  Uiso   1.00
H1639  H     0.66297   0.78615   0.42229   0.00000  Uiso   1.00
H1640  H     0.62392   0.76562   0.38384   0.00000  Uiso   1.00
H1641  H     0.61716   0.75929   0.44436   0.00000  Uiso   1.00
H1642  H     0.93819   0.62155   0.59833   0.00000  Uiso   1.00
H1643  H     0.95966   0.54597   0.59197   0.00000  Uiso   1.00
H1644  H     0.99233   0.57189   0.54909   0.00000  Uiso   1.00
H1645  H     0.94568   0.54532   0.53229   0.00000  Uiso   1.00
H1646  H     0.62101   0.65791   0.60765   0.00000  Uiso   1.00
H1647  H     0.68208   0.67807   0.56267   0.00000  Uiso   1.00
H1648  H     0.66076   0.72510   0.59400   0.00000  Uiso   1.00
H1649  H     0.53998   0.85786   0.59826   0.00000  Uiso   1.00
H1650  H     0.65095   0.72116   0.53337   0.00000  Uiso   1.00
H1651  H     0.90223   0.86079   0.39114   0.00000  Uiso   1.00
H1652  H     0.94640   0.92596   0.39034   0.00000  Uiso   1.00
H1653  H     0.94717   0.92563   0.45230   0.00000  Uiso   1.00
H1654  H     0.90287   0.94300   0.42052   0.00000  Uiso   1.00
H1655  H     0.87378   0.82959   0.60929   0.00000  Uiso   1.00
H1656  H     0.83363   0.77190   0.56213   0.00000  Uiso   1.00
H1657  H     0.86724   0.74872   0.60559   0.00000  Uiso   1.00
H1658  H     0.88272   0.74976   0.54734   0.00000  Uiso   1.00
H1659  H     0.57898   0.66054   0.40038   0.00000  Uiso   1.00
H1660  H     0.50263   0.86241   0.55249   0.00000  Uiso   1.00
H1661  H     0.54540   0.59416   0.36824   0.00000  Uiso   1.00
H1662  H     0.55210   0.56164   0.42105   0.00000  Uiso   1.00
H1663  H     0.59367   0.57434   0.38258   0.00000  Uiso   1.00
H1664  H     0.61549   0.92078   0.39808   0.00000  Uiso   1.00
H1665  H     0.57811   0.96398   0.45732   0.00000  Uiso   1.00
H1666  H     0.60539   0.99853   0.41512   0.00000  Uiso   1.00
H1667  H     0.62674   0.99047   0.47082   0.00000  Uiso   1.00
H1668  H     0.85642   0.52543   0.57469   0.00000  Uiso   1.00
H1669  H     0.84011   0.56458   0.64121   0.00000  Uiso   1.00
H1670  H     0.86681   0.61686   0.62197   0.00000  Uiso   1.00
H1671  H     0.50447   0.90411   0.59663   0.00000  Uiso   1.00
H1672  H     0.89428   0.56674   0.64387   0.00000  Uiso   1.00
H1673  H     0.86387   0.60149   0.38722   0.00000  Uiso   1.00
H1674  H     0.90970   0.53974   0.41469   0.00000  Uiso   1.00
H1675  H     0.86746   0.51924   0.38072   0.00000  Uiso   1.00
H1676  H     0.86632   0.51222   0.44165   0.00000  Uiso   1.00
H1677  H     0.68752   0.87220   0.59926   0.00000  Uiso   1.00
H1678  H     0.70959   0.79694   0.59350   0.00000  Uiso   1.00
H1679  H     0.74184   0.82237   0.54995   0.00000  Uiso   1.00
H1680  H     0.69514   0.79555   0.53397   0.00000  Uiso   1.00
H1681  H     0.87043   0.90549   0.60826   0.00000  Uiso   1.00
H1682  H     0.95001   0.82966   0.60235   0.00000  Uiso   1.00
H1683  H     0.93108   0.92606   0.56281   0.00000  Uiso   1.00
H1684  H     0.91004   0.97297   0.59460   0.00000  Uiso   1.00
H1685  H     0.89985   0.96932   0.53403   0.00000  Uiso   1.00
H1686  H     0.65861   0.57839   0.39879   0.00000  Uiso   1.00
H1687  H     0.68874   0.66336   0.37907   0.00000  Uiso   1.00
H1688  H     0.64734   0.68244   0.41042   0.00000  Uiso   1.00
H1689  H     0.63900   0.64832   0.35925   0.00000  Uiso   1.00
H1690  H     0.62678   0.58277   0.60989   0.00000  Uiso   1.00
H1691  H     0.58365   0.52557   0.56632   0.00000  Uiso   1.00
H1692  H     0.61909   0.50160   0.60741   0.00000  Uiso   1.00
N1693  N     0.50000   0.75000   0.61736   0.00000  Uiso   1.00
N1694  N     0.91429   0.87004   0.42225   0.00000  Uiso   1.00
N1695  N     0.88330   0.81534   0.57930   0.00000  Uiso   1.00
N1696  N     0.57350   0.63168   0.42101   0.00000  Uiso   1.00
N1697  N     0.62825   0.93170   0.42828   0.00000  Uiso   1.00
N1698  N     0.86957   0.55804   0.57851   0.00000  Uiso   1.00
N1699  N     0.85786   0.58147   0.41596   0.00000  Uiso   1.00
N1700  N     0.69102   0.86228   0.56596   0.00000  Uiso   1.00
N1701  N     0.86867   0.92008   0.57589   0.00000  Uiso   1.00
N1702  N     0.65877   0.60898   0.41698   0.00000  Uiso   1.00
N1703  N     0.63502   0.56771   0.57979   0.00000  Uiso   1.00
N1704  N     0.50000   0.75000   0.38264   0.00000  Uiso   1.00
N1705  N     0.82866   0.88613   0.41852   0.00000  Uiso   1.00
N1706  N     0.75000   0.50000   0.61736   0.00000  Uiso   1.00
N1707  N     0.75000   0.50000   0.38264   0.00000  Uiso   1.00
N1708  N     0.87749   0.68370   0.42938   0.00000  Uiso   1.00
N1709  N     0.61882   0.80907   0.57961   0.00000  Uiso   1.00
N1710  N     0.61146   0.82833   0.41694   0.00000  Uiso   1.00
N1711  N     0.94141   0.61166   0.56498   0.00000  Uiso   1.00
N1712  N     0.61958   0.67213   0.57513   0.00000  Uiso   1.00
O1713  O     0.54508   0.70491   0.53958   0.00000  Uiso   1.00
O1714  O     0.70491   0.54509   0.46042   0.00000  Uiso   1.00
O1715  O     0.70491   0.54509   0.53958   0.00000  Uiso   1.00
O1716  O     0.79508   0.95491   0.46042   0.00000  Uiso   1.00
O1717  O     0.70491   0.95491   0.46042   0.00000  Uiso   1.00
O1718  O     0.79508   0.54509   0.53958   0.00000  Uiso   1.00
O1719  O     0.79508   0.54509   0.46042   0.00000  Uiso   1.00
O1720  O     0.70491   0.95491   0.53958   0.00000  Uiso   1.00
O1721  O     0.95491   0.79509   0.46042   0.00000  Uiso   1.00
O1722  O     0.95491   0.79509   0.53958   0.00000  Uiso   1.00
O1723  O     0.54508   0.70491   0.46042   0.00000  Uiso   1.00
O1724  O     0.95491   0.70491   0.46042   0.00000  Uiso   1.00
O1725  O     0.54508   0.79509   0.53958   0.00000  Uiso   1.00
O1726  O     0.54508   0.79509   0.46042   0.00000  Uiso   1.00
O1727  O     0.95491   0.70491   0.53958   0.00000  Uiso   1.00
O1728  O     0.79508   0.95491   0.53958   0.00000  Uiso   1.00
C1729  C     0.05853   0.18948   0.83370   0.00000  Uiso   1.00
C1730  C     0.49560   0.29151   0.97467   0.00000  Uiso   1.00
C1731  C     0.00232   0.29227   0.69072   0.00000  Uiso   1.00
C1732  C     0.00632   0.21060   0.97756   0.00000  Uiso   1.00
C1733  C     0.24497   0.45997   0.69075   0.00000  Uiso   1.00
C1734  C     0.24650   0.04171   0.97476   0.00000  Uiso   1.00
C1735  C     0.25301   0.04220   0.69096   0.00000  Uiso   1.00
C1736  C     0.25607   0.46058   0.97748   0.00000  Uiso   1.00
C1737  C     0.38380   0.14700   0.79567   0.00000  Uiso   1.00
C1738  C     0.12332   0.33922   0.87370   0.00000  Uiso   1.00
C1739  C     0.11426   0.35261   0.79258   0.00000  Uiso   1.00
C1740  C     0.43963   0.30802   0.83307   0.00000  Uiso   1.00
C1741  C     0.40710   0.11975   0.87015   0.00000  Uiso   1.00
C1742  C     0.11077   0.13900   0.87406   0.00000  Uiso   1.00
C1743  C     0.38858   0.35947   0.79271   0.00000  Uiso   1.00
C1744  C     0.38174   0.34593   0.87351   0.00000  Uiso   1.00
C1745  C     0.09904   0.12914   0.79354   0.00000  Uiso   1.00
C1746  C     0.13432   0.39594   0.79563   0.00000  Uiso   1.00
C1747  C     0.37361   0.08886   0.87301   0.00000  Uiso   1.00
C1748  C     0.36303   0.10414   0.79223   0.00000  Uiso   1.00
C1749  C     0.15684   0.37016   0.87085   0.00000  Uiso   1.00
C1750  C     0.35937   0.38737   0.87458   0.00000  Uiso   1.00
C1751  C     0.44119   0.18971   0.83350   0.00000  Uiso   1.00
C1752  C     0.13653   0.10698   0.79158   0.00000  Uiso   1.00
C1753  C     0.13304   0.09754   0.87347   0.00000  Uiso   1.00
C1754  C     0.35087   0.38082   0.79324   0.00000  Uiso   1.00
C1755  C     0.10026   0.33207   0.83354   0.00000  Uiso   1.00
C1756  C     0.40928   0.15314   0.83395   0.00000  Uiso   1.00
C1757  C     0.40304   0.33745   0.83294   0.00000  Uiso   1.00
C1758  C     0.08956   0.15241   0.83398   0.00000  Uiso   1.00
C1759  C     0.34992   0.08260   0.83319   0.00000  Uiso   1.00
C1760  C     0.15936   0.40297   0.83413   0.00000  Uiso   1.00
C1761  C     0.15267   0.08704   0.83233   0.00000  Uiso   1.00
C1762  C     0.06198   0.30517   0.83345   0.00000  Uiso   1.00
C1763  C     0.33930   0.40205   0.83405   0.00000  Uiso   1.00
C1764  C     0.46000   0.17707   0.70087   0.00000  Uiso   1.00
C1765  C     0.47124   0.13338   0.72867   0.00000  Uiso   1.00
C1766  C     0.47880   0.33636   0.95117   0.00000  Uiso   1.00
C1767  C     0.00843   0.36631   0.92283   0.00000  Uiso   1.00
C1768  C     0.49978   0.34233   0.71050   0.00000  Uiso   1.00
C1769  C     0.01622   0.36758   0.75217   0.00000  Uiso   1.00
C1770  C     0.04026   0.17897   0.96730   0.00000  Uiso   1.00
C1771  C     0.02652   0.13423   0.94429   0.00000  Uiso   1.00
C1772  C     0.21145   0.42552   0.70182   0.00000  Uiso   1.00
C1773  C     0.30843   0.43933   0.83369   0.00000  Uiso   1.00
C1774  C     0.22438   0.38323   0.73072   0.00000  Uiso   1.00
C1775  C     0.23096   0.08726   0.95122   0.00000  Uiso   1.00
C1776  C     0.26118   0.11655   0.92319   0.00000  Uiso   1.00
C1777  C     0.25139   0.09213   0.71119   0.00000  Uiso   1.00
C1778  C     0.26327   0.11839   0.75451   0.00000  Uiso   1.00
C1779  C     0.29032   0.42936   0.96759   0.00000  Uiso   1.00
C1780  C     0.27677   0.38419   0.94517   0.00000  Uiso   1.00
C1781  C     0.35634   0.22358   0.77971   0.00000  Uiso   1.00
C1782  C     0.11626   0.32966   0.95758   0.00000  Uiso   1.00
C1783  C     0.12984   0.28255   0.75044   0.00000  Uiso   1.00
C1784  C     0.18942   0.05774   0.83293   0.00000  Uiso   1.00
C1785  C     0.46050   0.06650   0.89269   0.00000  Uiso   1.00
C1786  C     0.15517   0.20056   0.89894   0.00000  Uiso   1.00
C1787  C     0.42845   0.41853   0.75482   0.00000  Uiso   1.00
C1788  C     0.36573   0.26914   0.90629   0.00000  Uiso   1.00
C1789  C     0.06592   0.08813   0.73076   0.00000  Uiso   1.00
C1790  C     0.10856   0.47318   0.77735   0.00000  Uiso   1.00
C1791  C     0.36760   0.07788   0.95687   0.00000  Uiso   1.00
C1792  C     0.37633   0.03590   0.74665   0.00000  Uiso   1.00
C1793  C     0.21012   0.31708   0.89399   0.00000  Uiso   1.00
C1794  C     0.40422   0.44856   0.89948   0.00000  Uiso   1.00
C1795  C     0.19123   0.43963   0.83353   0.00000  Uiso   1.00
C1796  C     0.15815   0.15270   0.72351   0.00000  Uiso   1.00
C1797  C     0.11619   0.02194   0.90819   0.00000  Uiso   1.00
C1798  C     0.31755   0.34186   0.73125   0.00000  Uiso   1.00
C1799  C     0.31187   0.05535   0.83339   0.00000  Uiso   1.00
C1800  C     0.49497   0.20992   0.69081   0.00000  Uiso   1.00
Cu1801 Cu    0.00000   0.25000   0.88022   0.00000  Uiso   1.00
Cu1802 Cu   -0.00000   0.25000   0.78645   0.00000  Uiso   1.00
Cu1803 Cu    0.25000  -0.00000   0.88022   0.00000  Uiso   1.00
Cu1804 Cu    0.25000  -0.00000   0.78645   0.00000  Uiso   1.00
H1805  H     0.48123   0.10565   0.70577   0.00000  Uiso   1.00
H1806  H     0.46448   0.36120   0.97395   0.00000  Uiso   1.00
H1807  H     0.13120   0.00198   0.88134   0.00000  Uiso   1.00
H1808  H     0.34226   0.40937   0.72927   0.00000  Uiso   1.00
H1809  H     0.30112   0.34801   0.69890   0.00000  Uiso   1.00
H1810  H     0.29815   0.32063   0.75478   0.00000  Uiso   1.00
H1811  H     0.34447   0.32162   0.72247   0.00000  Uiso   1.00
H1812  H     0.00997   0.40558   0.74829   0.00000  Uiso   1.00
H1813  H     0.00175   0.35728   0.78460   0.00000  Uiso   1.00
H1814  H     0.04894   0.36749   0.75275   0.00000  Uiso   1.00
H1815  H     0.01520   0.36529   0.68478   0.00000  Uiso   1.00
H1816  H     0.46772   0.34926   0.71015   0.00000  Uiso   1.00
H1817  H     0.00495   0.11439   0.96617   0.00000  Uiso   1.00
H1818  H     0.01186   0.14267   0.91137   0.00000  Uiso   1.00
H1819  H     0.05269   0.11151   0.93835   0.00000  Uiso   1.00
H1820  H     0.06272   0.19967   0.94818   0.00000  Uiso   1.00
H1821  H     0.49463   0.14115   0.75475   0.00000  Uiso   1.00
H1822  H     0.05661   0.16875   0.99871   0.00000  Uiso   1.00
H1823  H     0.23578   0.35559   0.70857   0.00000  Uiso   1.00
H1824  H     0.24740   0.39291   0.75658   0.00000  Uiso   1.00
H1825  H     0.19796   0.36763   0.74843   0.00000  Uiso   1.00
H1826  H     0.18730   0.44517   0.71759   0.00000  Uiso   1.00
H1827  H     0.19701   0.41200   0.67018   0.00000  Uiso   1.00
H1828  H     0.29249   0.10686   0.93157   0.00000  Uiso   1.00
H1829  H     0.25483   0.11342   0.88619   0.00000  Uiso   1.00
H1830  H     0.25832   0.15439   0.93090   0.00000  Uiso   1.00
H1831  H     0.20231   0.08157   0.93505   0.00000  Uiso   1.00
H1832  H     0.44430   0.11880   0.74605   0.00000  Uiso   1.00
H1833  H     0.21722   0.11252   0.97397   0.00000  Uiso   1.00
H1834  H     0.25214   0.15487   0.75086   0.00000  Uiso   1.00
H1835  H     0.24964   0.10580   0.78646   0.00000  Uiso   1.00
H1836  H     0.29585   0.12354   0.75731   0.00000  Uiso   1.00
H1837  H     0.26818   0.11485   0.68638   0.00000  Uiso   1.00
H1838  H     0.21946   0.09854   0.70906   0.00000  Uiso   1.00
H1839  H     0.25480   0.36484   0.96695   0.00000  Uiso   1.00
H1840  H     0.26261   0.39212   0.91184   0.00000  Uiso   1.00
H1841  H     0.30289   0.36117   0.94015   0.00000  Uiso   1.00
H1842  H     0.31257   0.45006   0.94814   0.00000  Uiso   1.00
H1843  H     0.43657   0.19742   0.71728   0.00000  Uiso   1.00
H1844  H     0.30685   0.42013   0.99923   0.00000  Uiso   1.00
H1845  H     0.36567   0.17369   0.73178   0.00000  Uiso   1.00
H1846  H     0.32753   0.21217   0.79591   0.00000  Uiso   1.00
H1847  H     0.34938   0.24788   0.75093   0.00000  Uiso   1.00
H1848  H     0.37543   0.24281   0.80437   0.00000  Uiso   1.00
H1849  H     0.10598   0.27625   0.90945   0.00000  Uiso   1.00
H1850  H     0.08859   0.31659   0.97504   0.00000  Uiso   1.00
H1851  H     0.11544   0.36861   0.95537   0.00000  Uiso   1.00
H1852  H     0.14273   0.31887   0.97845   0.00000  Uiso   1.00
H1853  H     0.11951   0.34757   0.72165   0.00000  Uiso   1.00
H1854  H     0.44512   0.16522   0.66882   0.00000  Uiso   1.00
H1855  H     0.16297   0.28615   0.75563   0.00000  Uiso   1.00
H1856  H     0.12392   0.26562   0.71718   0.00000  Uiso   1.00
H1857  H     0.11716   0.25929   0.77769   0.00000  Uiso   1.00
H1858  H     0.43819   0.12155   0.93167   0.00000  Uiso   1.00
H1859  H     0.45966   0.04597   0.92530   0.00000  Uiso   1.00
H1860  H     0.49233   0.07189   0.88242   0.00000  Uiso   1.00
H1861  H     0.44568   0.04532   0.86562   0.00000  Uiso   1.00
H1862  H     0.12101   0.15791   0.94098   0.00000  Uiso   1.00
H1863  H     0.18208   0.17807   0.89600   0.00000  Uiso   1.00
H1864  H     0.16076   0.22510   0.92733   0.00000  Uiso   1.00
H1865  H     0.03998   0.35786   0.93159   0.00000  Uiso   1.00
H1866  H     0.15095   0.22116   0.86670   0.00000  Uiso   1.00
H1867  H     0.40223   0.36079   0.72447   0.00000  Uiso   1.00
H1868  H     0.44640   0.42596   0.72367   0.00000  Uiso   1.00
H1869  H     0.44717   0.42563   0.78563   0.00000  Uiso   1.00
H1870  H     0.40287   0.44300   0.75385   0.00000  Uiso   1.00
H1871  H     0.37378   0.32959   0.94262   0.00000  Uiso   1.00
H1872  H     0.33363   0.27190   0.89546   0.00000  Uiso   1.00
H1873  H     0.36724   0.24872   0.93893   0.00000  Uiso   1.00
H1874  H     0.38272   0.24976   0.88067   0.00000  Uiso   1.00
H1875  H     0.07898   0.16054   0.73371   0.00000  Uiso   1.00
H1876  H     0.00263   0.36241   0.88583   0.00000  Uiso   1.00
H1877  H     0.04540   0.09416   0.70158   0.00000  Uiso   1.00
H1878  H     0.05210   0.06164   0.75438   0.00000  Uiso   1.00
H1879  H     0.09367   0.07434   0.71591   0.00000  Uiso   1.00
H1880  H     0.11549   0.42078   0.73141   0.00000  Uiso   1.00
H1881  H     0.07811   0.46398   0.79066   0.00000  Uiso   1.00
H1882  H     0.10539   0.49853   0.74845   0.00000  Uiso   1.00
H1883  H     0.12674   0.49047   0.80416   0.00000  Uiso   1.00
H1884  H     0.35642   0.02543   0.90802   0.00000  Uiso   1.00
H1885  H     0.34011   0.06458   0.97454   0.00000  Uiso   1.00
H1886  H     0.36681   0.11686   0.95531   0.00000  Uiso   1.00
H1887  H     0.00447   0.40411   0.92997   0.00000  Uiso   1.00
H1888  H     0.39428   0.06674   0.97720   0.00000  Uiso   1.00
H1889  H     0.36387   0.10149   0.72055   0.00000  Uiso   1.00
H1890  H     0.40970   0.03974   0.74803   0.00000  Uiso   1.00
H1891  H     0.36746   0.01924   0.71406   0.00000  Uiso   1.00
H1892  H     0.36632   0.01222   0.77498   0.00000  Uiso   1.00
H1893  H     0.18752   0.37220   0.93259   0.00000  Uiso   1.00
H1894  H     0.20959   0.29694   0.92683   0.00000  Uiso   1.00
H1895  H     0.24184   0.32237   0.88328   0.00000  Uiso   1.00
H1896  H     0.19514   0.29555   0.86730   0.00000  Uiso   1.00
H1897  H     0.37043   0.40549   0.94159   0.00000  Uiso   1.00
H1898  H     0.45001   0.32966   0.93568   0.00000  Uiso   1.00
H1899  H     0.43108   0.42606   0.89615   0.00000  Uiso   1.00
H1900  H     0.41004   0.47297   0.92793   0.00000  Uiso   1.00
H1901  H     0.39985   0.46932   0.86736   0.00000  Uiso   1.00
H1902  H     0.15861   0.07839   0.73213   0.00000  Uiso   1.00
H1903  H     0.18874   0.16336   0.71240   0.00000  Uiso   1.00
H1904  H     0.14734   0.18244   0.74375   0.00000  Uiso   1.00
H1905  H     0.13900   0.14832   0.69258   0.00000  Uiso   1.00
H1906  H     0.12678   0.08277   0.94322   0.00000  Uiso   1.00
H1907  H     0.08365   0.02557   0.89966   0.00000  Uiso   1.00
H1908  H     0.11909   0.00160   0.94075   0.00000  Uiso   1.00
N1909  N     0.00000   0.25000   0.95069   0.00000  Uiso   1.00
N1910  N     0.41429   0.37004   0.75558   0.00000  Uiso   1.00
N1911  N     0.38330   0.31534   0.91264   0.00000  Uiso   1.00
N1912  N     0.07350   0.13168   0.75435   0.00000  Uiso   1.00
N1913  N     0.12825   0.43170   0.76161   0.00000  Uiso   1.00
N1914  N     0.36957   0.05804   0.91184   0.00000  Uiso   1.00
N1915  N     0.35786   0.08147   0.74929   0.00000  Uiso   1.00
N1916  N     0.19102   0.36228   0.89929   0.00000  Uiso   1.00
N1917  N     0.36867   0.42008   0.90922   0.00000  Uiso   1.00
N1918  N     0.15877   0.10898   0.75031   0.00000  Uiso   1.00
N1919  N     0.13502   0.06771   0.91312   0.00000  Uiso   1.00
N1920  N    -0.00000   0.25000   0.71598   0.00000  Uiso   1.00
N1921  N     0.32866   0.38613   0.75185   0.00000  Uiso   1.00
N1922  N     0.25000  -0.00000   0.95069   0.00000  Uiso   1.00
N1923  N     0.25000  -0.00000   0.71598   0.00000  Uiso   1.00
N1924  N     0.37749   0.18370   0.76271   0.00000  Uiso   1.00
N1925  N     0.11882   0.30907   0.91294   0.00000  Uiso   1.00
N1926  N     0.11146   0.32833   0.75027   0.00000  Uiso   1.00
N1927  N     0.44141   0.11166   0.89832   0.00000  Uiso   1.00
N1928  N     0.11958   0.17213   0.90847   0.00000  Uiso   1.00
O1929  O     0.04508   0.20491   0.87291   0.00000  Uiso   1.00
O1930  O     0.20491   0.04509   0.79375   0.00000  Uiso   1.00
O1931  O     0.20491   0.04509   0.87291   0.00000  Uiso   1.00
O1932  O     0.29508   0.45491   0.79375   0.00000  Uiso   1.00
O1933  O     0.20491   0.45491   0.79375   0.00000  Uiso   1.00
O1934  O     0.29508   0.04509   0.87291   0.00000  Uiso   1.00
O1935  O     0.29508   0.04509   0.79375   0.00000  Uiso   1.00
O1936  O     0.20491   0.45491   0.87291   0.00000  Uiso   1.00
O1937  O     0.45491   0.29509   0.79375   0.00000  Uiso   1.00
O1938  O     0.45491   0.29509   0.87291   0.00000  Uiso   1.00
O1939  O     0.04508   0.20491   0.79375   0.00000  Uiso   1.00
O1940  O     0.45491   0.20491   0.79375   0.00000  Uiso   1.00
O1941  O     0.04508   0.29509   0.87291   0.00000  Uiso   1.00
O1942  O     0.04508   0.29509   0.79375   0.00000  Uiso   1.00
O1943  O     0.45491   0.20491   0.87291   0.00000  Uiso   1.00
O1944  O     0.29508   0.45491   0.87291   0.00000  Uiso   1.00
C1945  C     0.55853   0.18948   0.83370   0.00000  Uiso   1.00
C1946  C     0.99560   0.29151   0.97467   0.00000  Uiso   1.00
C1947  C     0.50232   0.29227   0.69072   0.00000  Uiso   1.00
C1948  C     0.50632   0.21060   0.97756   0.00000  Uiso   1.00
C1949  C     0.74497   0.45997   0.69075   0.00000  Uiso   1.00
C1950  C     0.74650   0.04171   0.97476   0.00000  Uiso   1.00
C1951  C     0.75301   0.04220   0.69096   0.00000  Uiso   1.00
C1952  C     0.75607   0.46058   0.97748   0.00000  Uiso   1.00
C1953  C     0.88380   0.14700   0.79567   0.00000  Uiso   1.00
C1954  C     0.62332   0.33922   0.87370   0.00000  Uiso   1.00
C1955  C     0.61426   0.35261   0.79258   0.00000  Uiso   1.00
C1956  C     0.93963   0.30802   0.83307   0.00000  Uiso   1.00
C1957  C     0.90710   0.11975   0.87015   0.00000  Uiso   1.00
C1958  C     0.61077   0.13900   0.87406   0.00000  Uiso   1.00
C1959  C     0.88858   0.35947   0.79271   0.00000  Uiso   1.00
C1960  C     0.88174   0.34593   0.87351   0.00000  Uiso   1.00
C1961  C     0.59904   0.12914   0.79354   0.00000  Uiso   1.00
C1962  C     0.63432   0.39594   0.79563   0.00000  Uiso   1.00
C1963  C     0.87361   0.08886   0.87301   0.00000  Uiso   1.00
C1964  C     0.86303   0.10414   0.79223   0.00000  Uiso   1.00
C1965  C     0.65684   0.37016   0.87085   0.00000  Uiso   1.00
C1966  C     0.85937   0.38737   0.87458   0.00000  Uiso   1.00
C1967  C     0.94119   0.18971   0.83350   0.00000  Uiso   1.00
C1968  C     0.63653   0.10698   0.79158   0.00000  Uiso   1.00
C1969  C     0.63304   0.09754   0.87347   0.00000  Uiso   1.00
C1970  C     0.85087   0.38082   0.79324   0.00000  Uiso   1.00
C1971  C     0.60026   0.33207   0.83354   0.00000  Uiso   1.00
C1972  C     0.90928   0.15314   0.83395   0.00000  Uiso   1.00
C1973  C     0.90304   0.33745   0.83294   0.00000  Uiso   1.00
C1974  C     0.58956   0.15241   0.83398   0.00000  Uiso   1.00
C1975  C     0.84992   0.08260   0.83319   0.00000  Uiso   1.00
C1976  C     0.65936   0.40297   0.83413   0.00000  Uiso   1.00
C1977  C     0.65267   0.08704   0.83233   0.00000  Uiso   1.00
C1978  C     0.56198   0.30517   0.83345   0.00000  Uiso   1.00
C1979  C     0.83930   0.40205   0.83405   0.00000  Uiso   1.00
C1980  C     0.96000   0.17707   0.70087   0.00000  Uiso   1.00
C1981  C     0.97124   0.13338   0.72867   0.00000  Uiso   1.00
C1982  C     0.97880   0.33636   0.95117   0.00000  Uiso   1.00
C1983  C     0.50843   0.36631   0.92283   0.00000  Uiso   1.00
C1984  C     0.99978   0.34233   0.71050   0.00000  Uiso   1.00
C1985  C     0.51622   0.36758   0.75217   0.00000  Uiso   1.00
C1986  C     0.54026   0.17897   0.96730   0.00000  Uiso   1.00
C1987  C     0.52652   0.13423   0.94429   0.00000  Uiso   1.00
C1988  C     0.71145   0.42552   0.70182   0.00000  Uiso   1.00
C1989  C     0.80843   0.43933   0.83369   0.00000  Uiso   1.00
C1990  C     0.72438   0.38323   0.73072   0.00000  Uiso   1.00
C1991  C     0.73096   0.08726   0.95122   0.00000  Uiso   1.00
C1992  C     0.76118   0.11655   0.92319   0.00000  Uiso   1.00
C1993  C     0.75139   0.09213   0.71119   0.00000  Uiso   1.00
C1994  C     0.76327   0.11839   0.75451   0.00000  Uiso   1.00
C1995  C     0.79032   0.42936   0.96759   0.00000  Uiso   1.00
C1996  C     0.77677   0.38419   0.94517   0.00000  Uiso   1.00
C1997  C     0.85634   0.22358   0.77971   0.00000  Uiso   1.00
C1998  C     0.61626   0.32966   0.95758   0.00000  Uiso   1.00
C1999  C     0.62984   0.28255   0.75044   0.00000  Uiso   1.00
C2000  C     0.68942   0.05774   0.83293   0.00000  Uiso   1.00
C2001  C     0.96050   0.06650   0.89269   0.00000  Uiso   1.00
C2002  C     0.65517   0.20056   0.89894   0.00000  Uiso   1.00
C2003  C     0.92845   0.41853   0.75482   0.00000  Uiso   1.00
C2004  C     0.86573   0.26914   0.90629   0.00000  Uiso   1.00
C2005  C     0.56592   0.08813   0.73076   0.00000  Uiso   1.00
C2006  C     0.60856   0.47318   0.77735   0.00000  Uiso   1.00
C2007  C     0.86760   0.07788   0.95687   0.00000  Uiso   1.00
C2008  C     0.87633   0.03590   0.74665   0.00000  Uiso   1.00
C2009  C     0.71012   0.31708   0.89399   0.00000  Uiso   1.00
C2010  C     0.90422   0.44856   0.89948   0.00000  Uiso   1.00
C2011  C     0.69123   0.43963   0.83353   0.00000  Uiso   1.00
C2012  C     0.65815   0.15270   0.72351   0.00000  Uiso   1.00
C2013  C     0.61619   0.02194   0.90819   0.00000  Uiso   1.00
C2014  C     0.81755   0.34186   0.73125   0.00000  Uiso   1.00
C2015  C     0.81187   0.05535   0.83339   0.00000  Uiso   1.00
C2016  C     0.99497   0.20992   0.69081   0.00000  Uiso   1.00
Cu2017 Cu    0.50000   0.25000   0.88022   0.00000  Uiso   1.00
Cu2018 Cu    0.50000   0.25000   0.78645   0.00000  Uiso   1.00
Cu2019 Cu    0.75000  -0.00000   0.88022   0.00000  Uiso   1.00
Cu2020 Cu    0.75000  -0.00000   0.78645   0.00000  Uiso   1.00
H2021  H     0.98123   0.10565   0.70577   0.00000  Uiso   1.00
H2022  H     0.96448   0.36120   0.97395   0.00000  Uiso   1.00
H2023  H     0.63120   0.00198   0.88134   0.00000  Uiso   1.00
H2024  H     0.84226   0.40937   0.72927   0.00000  Uiso   1.00
H2025  H     0.80112   0.34801   0.69890   0.00000  Uiso   1.00
H2026  H     0.79815   0.32063   0.75478   0.00000  Uiso   1.00
H2027  H     0.84447   0.32162   0.72247   0.00000  Uiso   1.00
H2028  H     0.50997   0.40558   0.74829   0.00000  Uiso   1.00
H2029  H     0.50175   0.35728   0.78460   0.00000  Uiso   1.00
H2030  H     0.54894   0.36749   0.75275   0.00000  Uiso   1.00
H2031  H     0.51520   0.36529   0.68478   0.00000  Uiso   1.00
H2032  H     0.96772   0.34926   0.71015   0.00000  Uiso   1.00
H2033  H     0.50495   0.11439   0.96617   0.00000  Uiso   1.00
H2034  H     0.51186   0.14267   0.91137   0.00000  Uiso   1.00
H2035  H     0.55269   0.11151   0.93835   0.00000  Uiso   1.00
H2036  H     0.56272   0.19967   0.94818   0.00000  Uiso   1.00
H2037  H     0.99463   0.14115   0.75475   0.00000  Uiso   1.00
H2038  H     0.55661   0.16875   0.99871   0.00000  Uiso   1.00
H2039  H     0.73578   0.35559   0.70857   0.00000  Uiso   1.00
H2040  H     0.74740   0.39291   0.75658   0.00000  Uiso   1.00
H2041  H     0.69796   0.36763   0.74843   0.00000  Uiso   1.00
H2042  H     0.68730   0.44517   0.71759   0.00000  Uiso   1.00
H2043  H     0.69701   0.41200   0.67018   0.00000  Uiso   1.00
H2044  H     0.79249   0.10686   0.93157   0.00000  Uiso   1.00
H2045  H     0.75483   0.11342   0.88619   0.00000  Uiso   1.00
H2046  H     0.75832   0.15439   0.93090   0.00000  Uiso   1.00
H2047  H     0.70231   0.08157   0.93505   0.00000  Uiso   1.00
H2048  H     0.94430   0.11880   0.74605   0.00000  Uiso   1.00
H2049  H     0.71722   0.11252   0.97397   0.00000  Uiso   1.00
H2050  H     0.75214   0.15487   0.75086   0.00000  Uiso   1.00
H2051  H     0.74964   0.10580   0.78646   0.00000  Uiso   1.00
H2052  H     0.79585   0.12354   0.75731   0.00000  Uiso   1.00
H2053  H     0.76818   0.11485   0.68638   0.00000  Uiso   1.00
H2054  H     0.71946   0.09854   0.70906   0.00000  Uiso   1.00
H2055  H     0.75480   0.36484   0.96695   0.00000  Uiso   1.00
H2056  H     0.76261   0.39212   0.91184   0.00000  Uiso   1.00
H2057  H     0.80289   0.36117   0.94015   0.00000  Uiso   1.00
H2058  H     0.81257   0.45006   0.94814   0.00000  Uiso   1.00
H2059  H     0.93657   0.19742   0.71728   0.00000  Uiso   1.00
H2060  H     0.80685   0.42013   0.99923   0.00000  Uiso   1.00
H2061  H     0.86567   0.17369   0.73178   0.00000  Uiso   1.00
H2062  H     0.82753   0.21217   0.79591   0.00000  Uiso   1.00
H2063  H     0.84938   0.24788   0.75093   0.00000  Uiso   1.00
H2064  H     0.87543   0.24281   0.80437   0.00000  Uiso   1.00
H2065  H     0.60598   0.27625   0.90945   0.00000  Uiso   1.00
H2066  H     0.58859   0.31659   0.97504   0.00000  Uiso   1.00
H2067  H     0.61544   0.36861   0.95537   0.00000  Uiso   1.00
H2068  H     0.64273   0.31887   0.97845   0.00000  Uiso   1.00
H2069  H     0.61951   0.34757   0.72165   0.00000  Uiso   1.00
H2070  H     0.94512   0.16522   0.66882   0.00000  Uiso   1.00
H2071  H     0.66297   0.28615   0.75563   0.00000  Uiso   1.00
H2072  H     0.62392   0.26562   0.71718   0.00000  Uiso   1.00
H2073  H     0.61716   0.25929   0.77769   0.00000  Uiso   1.00
H2074  H     0.93819   0.12155   0.93167   0.00000  Uiso   1.00
H2075  H     0.95966   0.04597   0.92530   0.00000  Uiso   1.00
H2076  H     0.99233   0.07189   0.88242   0.00000  Uiso   1.00
H2077  H     0.94568   0.04532   0.86562   0.00000  Uiso   1.00
H2078  H     0.62101   0.15791   0.94098   0.00000  Uiso   1.00
H2079  H     0.68208   0.17807   0.89600   0.00000  Uiso   1.00
H2080  H     0.66076   0.22510   0.92733   0.00000  Uiso   1.00
H2081  H     0.53998   0.35786   0.93159   0.00000  Uiso   1.00
H2082  H     0.65095   0.22116   0.86670   0.00000  Uiso   1.00
H2083  H     0.90223   0.36079   0.72447   0.00000  Uiso   1.00
H2084  H     0.94640   0.42596   0.72367   0.00000  Uiso   1.00
H2085  H     0.94717   0.42563   0.78563   0.00000  Uiso   1.00
H2086  H     0.90287   0.44300   0.75385   0.00000  Uiso   1.00
H2087  H     0.87378   0.32959   0.94262   0.00000  Uiso   1.00
H2088  H     0.83363   0.27190   0.89546   0.00000  Uiso   1.00
H2089  H     0.86724   0.24872   0.93893   0.00000  Uiso   1.00
H2090  H     0.88272   0.24976   0.88067   0.00000  Uiso   1.00
H2091  H     0.57898   0.16054   0.73371   0.00000  Uiso   1.00
H2092  H     0.50263   0.36241   0.88583   0.00000  Uiso   1.00
H2093  H     0.54540   0.09416   0.70158   0.00000  Uiso   1.00
H2094  H     0.55210   0.06164   0.75438   0.00000  Uiso   1.00
H2095  H     0.59367   0.07434   0.71591   0.00000  Uiso   1.00
H2096  H     0.61549   0.42078   0.73141   0.00000  Uiso   1.00
H2097  H     0.57811   0.46398   0.79066   0.00000  Uiso   1.00
H2098  H     0.60539   0.49853   0.74845   0.00000  Uiso   1.00
H2099  H     0.62674   0.49047   0.80416   0.00000  Uiso   1.00
H2100  H     0.85642   0.02543   0.90802   0.00000  Uiso   1.00
H2101  H     0.84011   0.06458   0.97454   0.00000  Uiso   1.00
H2102  H     0.86681   0.11686   0.95531   0.00000  Uiso   1.00
H2103  H     0.50447   0.40411   0.92997   0.00000  Uiso   1.00
H2104  H     0.89428   0.06674   0.97720   0.00000  Uiso   1.00
H2105  H     0.86387   0.10149   0.72055   0.00000  Uiso   1.00
H2106  H     0.90970   0.03974   0.74803   0.00000  Uiso   1.00
H2107  H     0.86746   0.01924   0.71406   0.00000  Uiso   1.00
H2108  H     0.86632   0.01222   0.77498   0.00000  Uiso   1.00
H2109  H     0.68752   0.37220   0.93259   0.00000  Uiso   1.00
H2110  H     0.70959   0.29694   0.92683   0.00000  Uiso   1.00
H2111  H     0.74184   0.32237   0.88328   0.00000  Uiso   1.00
H2112  H     0.69514   0.29555   0.86730   0.00000  Uiso   1.00
H2113  H     0.87043   0.40549   0.94159   0.00000  Uiso   1.00
H2114  H     0.95001   0.32966   0.93568   0.00000  Uiso   1.00
H2115  H     0.93108   0.42606   0.89615   0.00000  Uiso   1.00
H2116  H     0.91004   0.47297   0.92793   0.00000  Uiso   1.00
H2117  H     0.89985   0.46932   0.86736   0.00000  Uiso   1.00
H2118  H     0.65861   0.07839   0.73213   0.00000  Uiso   1.00
H2119  H     0.68874   0.16336   0.71240   0.00000  Uiso   1.00
H2120  H     0.64734   0.18244   0.74375   0.00000  Uiso   1.00
H2121  H     0.63900   0.14832   0.69258   0.00000  Uiso   1.00
H2122  H     0.62678   0.08277   0.94322   0.00000  Uiso   1.00
H2123  H     0.58365   0.02557   0.89966   0.00000  Uiso   1.00
H2124  H     0.61909   0.00160   0.94075   0.00000  Uiso   1.00
N2125  N     0.50000   0.25000   0.95069   0.00000  Uiso   1.00
N2126  N     0.91429   0.37004   0.75558   0.00000  Uiso   1.00
N2127  N     0.88330   0.31534   0.91264   0.00000  Uiso   1.00
N2128  N     0.57350   0.13168   0.75435   0.00000  Uiso   1.00
N2129  N     0.62825   0.43170   0.76161   0.00000  Uiso   1.00
N2130  N     0.86957   0.05804   0.91184   0.00000  Uiso   1.00
N2131  N     0.85786   0.08147   0.74929   0.00000  Uiso   1.00
N2132  N     0.69102   0.36228   0.89929   0.00000  Uiso   1.00
N2133  N     0.86867   0.42008   0.90922   0.00000  Uiso   1.00
N2134  N     0.65877   0.10898   0.75031   0.00000  Uiso   1.00
N2135  N     0.63502   0.06771   0.91312   0.00000  Uiso   1.00
N2136  N     0.50000   0.25000   0.71598   0.00000  Uiso   1.00
N2137  N     0.82866   0.38613   0.75185   0.00000  Uiso   1.00
N2138  N     0.75000  -0.00000   0.95069   0.00000  Uiso   1.00
N2139  N     0.75000  -0.00000   0.71598   0.00000  Uiso   1.00
N2140  N     0.87749   0.18370   0.76271   0.00000  Uiso   1.00
N2141  N     0.61882   0.30907   0.91294   0.00000  Uiso   1.00
N2142  N     0.61146   0.32833   0.75027   0.00000  Uiso   1.00
N2143  N     0.94141   0.11166   0.89832   0.00000  Uiso   1.00
N2144  N     0.61958   0.17213   0.90847   0.00000  Uiso   1.00
O2145  O     0.54508   0.20491   0.87291   0.00000  Uiso   1.00
O2146  O     0.70491   0.04509   0.79375   0.00000  Uiso   1.00
O2147  O     0.70491   0.04509   0.87291   0.00000  Uiso   1.00
O2148  O     0.79508   0.45491   0.79375   0.00000  Uiso   1.00
O2149  O     0.70491   0.45491   0.79375   0.00000  Uiso   1.00
O2150  O     0.79508   0.04509   0.87291   0.00000  Uiso   1.00
O2151  O     0.79508   0.04509   0.79375   0.00000  Uiso   1.00
O2152  O     0.70491   0.45491   0.87291   0.00000  Uiso   1.00
O2153  O     0.95491   0.29509   0.79375   0.00000  Uiso   1.00
O2154  O     0.95491   0.29509   0.87291   0.00000  Uiso   1.00
O2155  O     0.54508   0.20491   0.79375   0.00000  Uiso   1.00
O2156  O     0.95491   0.20491   0.79375   0.00000  Uiso   1.00
O2157  O     0.54508   0.29509   0.87291   0.00000  Uiso   1.00
O2158  O     0.54508   0.29509   0.79375   0.00000  Uiso   1.00
O2159  O     0.95491   0.20491   0.87291   0.00000  Uiso   1.00
O2160  O     0.79508   0.45491   0.87291   0.00000  Uiso   1.00
C2161  C     0.05853   0.68948   0.83370   0.00000  Uiso   1.00
C2162  C     0.49560   0.79151   0.97467   0.00000  Uiso   1.00
C2163  C     0.00232   0.79227   0.69072   0.00000  Uiso   1.00
C2164  C     0.00632   0.71060   0.97756   0.00000  Uiso   1.00
C2165  C     0.24497   0.95997   0.69075   0.00000  Uiso   1.00
C2166  C     0.24650   0.54171   0.97476   0.00000  Uiso   1.00
C2167  C     0.25301   0.54220   0.69096   0.00000  Uiso   1.00
C2168  C     0.25607   0.96058   0.97748   0.00000  Uiso   1.00
C2169  C     0.38380   0.64700   0.79567   0.00000  Uiso   1.00
C2170  C     0.12332   0.83922   0.87370   0.00000  Uiso   1.00
C2171  C     0.11426   0.85261   0.79258   0.00000  Uiso   1.00
C2172  C     0.43963   0.80802   0.83307   0.00000  Uiso   1.00
C2173  C     0.40710   0.61975   0.87015   0.00000  Uiso   1.00
C2174  C     0.11077   0.63900   0.87406   0.00000  Uiso   1.00
C2175  C     0.38858   0.85947   0.79271   0.00000  Uiso   1.00
C2176  C     0.38174   0.84593   0.87351   0.00000  Uiso   1.00
C2177  C     0.09904   0.62914   0.79354   0.00000  Uiso   1.00
C2178  C     0.13432   0.89594   0.79563   0.00000  Uiso   1.00
C2179  C     0.37361   0.58886   0.87301   0.00000  Uiso   1.00
C2180  C     0.36303   0.60414   0.79223   0.00000  Uiso   1.00
C2181  C     0.15684   0.87016   0.87085   0.00000  Uiso   1.00
C2182  C     0.35937   0.88737   0.87458   0.00000  Uiso   1.00
C2183  C     0.44119   0.68971   0.83350   0.00000  Uiso   1.00
C2184  C     0.13653   0.60698   0.79158   0.00000  Uiso   1.00
C2185  C     0.13304   0.59754   0.87347   0.00000  Uiso   1.00
C2186  C     0.35087   0.88082   0.79324   0.00000  Uiso   1.00
C2187  C     0.10026   0.83207   0.83354   0.00000  Uiso   1.00
C2188  C     0.40928   0.65314   0.83395   0.00000  Uiso   1.00
C2189  C     0.40304   0.83745   0.83294   0.00000  Uiso   1.00
C2190  C     0.08956   0.65241   0.83398   0.00000  Uiso   1.00
C2191  C     0.34992   0.58260   0.83319   0.00000  Uiso   1.00
C2192  C     0.15936   0.90297   0.83413   0.00000  Uiso   1.00
C2193  C     0.15267   0.58704   0.83233   0.00000  Uiso   1.00
C2194  C     0.06198   0.80517   0.83345   0.00000  Uiso   1.00
C2195  C     0.33930   0.90205   0.83405   0.00000  Uiso   1.00
C2196  C     0.46000   0.67707   0.70087   0.00000  Uiso   1.00
C2197  C     0.47124   0.63338   0.72867   0.00000  Uiso   1.00
C2198  C     0.47880   0.83636   0.95117   0.00000  Uiso   1.00
C2199  C     0.00843   0.86631   0.92283   0.00000  Uiso   1.00
C2200  C     0.49978   0.84233   0.71050   0.00000  Uiso   1.00
C2201  C     0.01622   0.86758   0.75217   0.00000  Uiso   1.00
C2202  C     0.04026   0.67897   0.96730   0.00000  Uiso   1.00
C2203  C     0.02652   0.63423   0.94429   0.00000  Uiso   1.00
C2204  C     0.21145   0.92552   0.70182   0.00000  Uiso   1.00
C2205  C     0.30843   0.93933   0.83369   0.00000  Uiso   1.00
C2206  C     0.22438   0.88323   0.73072   0.00000  Uiso   1.00
C2207  C     0.23096   0.58726   0.95122   0.00000  Uiso   1.00
C2208  C     0.26118   0.61655   0.92319   0.00000  Uiso   1.00
C2209  C     0.25139   0.59213   0.71119   0.00000  Uiso   1.00
C2210  C     0.26327   0.61839   0.75451   0.00000  Uiso   1.00
C2211  C     0.29032   0.92936   0.96759   0.00000  Uiso   1.00
C2212  C     0.27677   0.88419   0.94517   0.00000  Uiso   1.00
C2213  C     0.35634   0.72358   0.77971   0.00000  Uiso   1.00
C2214  C     0.11626   0.82966   0.95758   0.00000  Uiso   1.00
C2215  C     0.12984   0.78255   0.75044   0.00000  Uiso   1.00
C2216  C     0.18942   0.55774   0.83293   0.00000  Uiso   1.00
C2217  C     0.46050   0.56650   0.89269   0.00000  Uiso   1.00
C2218  C     0.15517   0.70056   0.89894   0.00000  Uiso   1.00
C2219  C     0.42845   0.91853   0.75482   0.00000  Uiso   1.00
C2220  C     0.36573   0.76914   0.90629   0.00000  Uiso   1.00
C2221  C     0.06592   0.58813   0.73076   0.00000  Uiso   1.00
C2222  C     0.10856   0.97318   0.77735   0.00000  Uiso   1.00
C2223  C     0.36760   0.57788   0.95687   0.00000  Uiso   1.00
C2224  C     0.37633   0.53590   0.74665   0.00000  Uiso   1.00
C2225  C     0.21012   0.81708   0.89399   0.00000  Uiso   1.00
C2226  C     0.40422   0.94856   0.89948   0.00000  Uiso   1.00
C2227  C     0.19123   0.93963   0.83353   0.00000  Uiso   1.00
C2228  C     0.15815   0.65270   0.72351   0.00000  Uiso   1.00
C2229  C     0.11619   0.52194   0.90819   0.00000  Uiso   1.00
C2230  C     0.31755   0.84186   0.73125   0.00000  Uiso   1.00
C2231  C     0.31187   0.55535   0.83339   0.00000  Uiso   1.00
C2232  C     0.49497   0.70992   0.69081   0.00000  Uiso   1.00
Cu2233 Cu    0.00000   0.75000   0.88022   0.00000  Uiso   1.00
Cu2234 Cu   -0.00000   0.75000   0.78645   0.00000  Uiso   1.00
Cu2235 Cu    0.25000   0.50000   0.88022   0.00000  Uiso   1.00
Cu2236 Cu    0.25000   0.50000   0.78645   0.00000  Uiso   1.00
H2237  H     0.48123   0.60565   0.70577   0.00000  Uiso   1.00
H2238  H     0.46448   0.86120   0.97395   0.00000  Uiso   1.00
H2239  H     0.13120   0.50198   0.88134   0.00000  Uiso   1.00
H2240  H     0.34226   0.90937   0.72927   0.00000  Uiso   1.00
H2241  H     0.30112   0.84801   0.69890   0.00000  Uiso   1.00
H2242  H     0.29815   0.82063   0.75478   0.00000  Uiso   1.00
H2243  H     0.34447   0.82162   0.72247   0.00000  Uiso   1.00
H2244  H     0.00997   0.90558   0.74829   0.00000  Uiso   1.00
H2245  H     0.00175   0.85728   0.78460   0.00000  Uiso   1.00
H2246  H     0.04894   0.86749   0.75275   0.00000  Uiso   1.00
H2247  H     0.01520   0.86529   0.68478   0.00000  Uiso   1.00
H2248  H     0.46772   0.84926   0.71015   0.00000  Uiso   1.00
H2249  H     0.00495   0.61439   0.96617   0.00000  Uiso   1.00
H2250  H     0.01186   0.64267   0.91137   0.00000  Uiso   1.00
H2251  H     0.05269   0.61151   0.93835   0.00000  Uiso   1.00
H2252  H     0.06272   0.69967   0.94818   0.00000  Uiso   1.00
H2253  H     0.49463   0.64115   0.75475   0.00000  Uiso   1.00
H2254  H     0.05661   0.66875   0.99871   0.00000  Uiso   1.00
H2255  H     0.23578   0.85559   0.70857   0.00000  Uiso   1.00
H2256  H     0.24740   0.89291   0.75658   0.00000  Uiso   1.00
H2257  H     0.19796   0.86763   0.74843   0.00000  Uiso   1.00
H2258  H     0.18730   0.94517   0.71759   0.00000  Uiso   1.00
H2259  H     0.19701   0.91200   0.67018   0.00000  Uiso   1.00
H2260  H     0.29249   0.60686   0.93157   0.00000  Uiso   1.00
H2261  H     0.25483   0.61342   0.88619   0.00000  Uiso   1.00
H2262  H     0.25832   0.65439   0.93090   0.00000  Uiso   1.00
H2263  H     0.20231   0.58157   0.93505   0.00000  Uiso   1.00
H2264  H     0.44430   0.61880   0.74605   0.00000  Uiso   1.00
H2265  H     0.21722   0.61252   0.97397   0.00000  Uiso   1.00
H2266  H     0.25214   0.65487   0.75086   0.00000  Uiso   1.00
H2267  H     0.24964   0.60580   0.78646   0.00000  Uiso   1.00
H2268  H     0.29585   0.62354   0.75731   0.00000  Uiso   1.00
H2269  H     0.26818   0.61485   0.68638   0.00000  Uiso   1.00
H2270  H     0.21946   0.59854   0.70906   0.00000  Uiso   1.00
H2271  H     0.25480   0.86484   0.96695   0.00000  Uiso   1.00
H2272  H     0.26261   0.89212   0.91184   0.00000  Uiso   1.00
H2273  H     0.30289   0.86117   0.94015   0.00000  Uiso   1.00
H2274  H     0.31257   0.95006   0.94814   0.00000  Uiso   1.00
H2275  H     0.43657   0.69742   0.71728   0.00000  Uiso   1.00
H2276  H     0.30685   0.92013   0.99923   0.00000  Uiso   1.00
H2277  H     0.36567   0.67369   0.73178   0.00000  Uiso   1.00
H2278  H     0.32753   0.71217   0.79591   0.00000  Uiso   1.00
H2279  H     0.34938   0.74788   0.75093   0.00000  Uiso   1.00
H2280  H     0.37543   0.74281   0.80437   0.00000  Uiso   1.00
H2281  H     0.10598   0.77625   0.90945   0.00000  Uiso   1.00
H2282  H     0.08859   0.81659   0.97504   0.00000  Uiso   1.00
H2283  H     0.11544   0.86861   0.95537   0.00000  Uiso   1.00
H2284  H     0.14273   0.81887   0.97845   0.00000  Uiso   1.00
H2285  H     0.11951   0.84757   0.72165   0.00000  Uiso   1.00
H2286  H     0.44512   0.66522   0.66882   0.00000  Uiso   1.00
H2287  H     0.16297   0.78615   0.75563   0.00000  Uiso   1.00
H2288  H     0.12392   0.76562   0.71718   0.00000  Uiso   1.00
H2289  H     0.11716   0.75929   0.77769   0.00000  Uiso   1.00
H2290  H     0.43819   0.62155   0.93167   0.00000  Uiso   1.00
H2291  H     0.45966   0.54597   0.92530   0.00000  Uiso   1.00
H2292  H     0.49233   0.57189   0.88242   0.00000  Uiso   1.00
H2293  H     0.44568   0.54532   0.86562   0.00000  Uiso   1.00
H2294  H     0.12101   0.65791   0.94098   0.00000  Uiso   1.00
H2295  H     0.18208   0.67807   0.89600   0.00000  Uiso   1.00
H2296  H     0.16076   0.72510   0.92733   0.00000  Uiso   1.00
H2297  H     0.03998   0.85786   0.93159   0.00000  Uiso   1.00
H2298  H     0.15095   0.72116   0.86670   0.00000  Uiso   1.00
H2299  H     0.40223   0.86079   0.72447   0.00000  Uiso   1.00
H2300  H     0.44640   0.92596   0.72367   0.00000  Uiso   1.00
H2301  H     0.44717   0.92563   0.78563   0.00000  Uiso   1.00
H2302  H     0.40287   0.94300   0.75385   0.00000  Uiso   1.00
H2303  H     0.37378   0.82959   0.94262   0.00000  Uiso   1.00
H2304  H     0.33363   0.77190   0.89546   0.00000  Uiso   1.00
H2305  H     0.36724   0.74872   0.93893   0.00000  Uiso   1.00
H2306  H     0.38272   0.74976   0.88067   0.00000  Uiso   1.00
H2307  H     0.07898   0.66054   0.73371   0.00000  Uiso   1.00
H2308  H     0.00263   0.86241   0.88583   0.00000  Uiso   1.00
H2309  H     0.04540   0.59416   0.70158   0.00000  Uiso   1.00
H2310  H     0.05210   0.56164   0.75438   0.00000  Uiso   1.00
H2311  H     0.09367   0.57434   0.71591   0.00000  Uiso   1.00
H2312  H     0.11549   0.92078   0.73141   0.00000  Uiso   1.00
H2313  H     0.07811   0.96398   0.79066   0.00000  Uiso   1.00
H2314  H     0.10539   0.99853   0.74845   0.00000  Uiso   1.00
H2315  H     0.12674   0.99047   0.80416   0.00000  Uiso   1.00
H2316  H     0.35642   0.52543   0.90802   0.00000  Uiso   1.00
H2317  H     0.34011   0.56458   0.97454   0.00000  Uiso   1.00
H2318  H     0.36681   0.61686   0.95531   0.00000  Uiso   1.00
H2319  H     0.00447   0.90411   0.92997   0.00000  Uiso   1.00
H2320  H     0.39428   0.56674   0.97720   0.00000  Uiso   1.00
H2321  H     0.36387   0.60149   0.72055   0.00000  Uiso   1.00
H2322  H     0.40970   0.53974   0.74803   0.00000  Uiso   1.00
H2323  H     0.36746   0.51924   0.71406   0.00000  Uiso   1.00
H2324  H     0.36632   0.51222   0.77498   0.00000  Uiso   1.00
H2325  H     0.18752   0.87220   0.93259   0.00000  Uiso   1.00
H2326  H     0.20959   0.79694   0.92683   0.00000  Uiso   1.00
H2327  H     0.24184   0.82237   0.88328   0.00000  Uiso   1.00
H2328  H     0.19514   0.79555   0.86730   0.00000  Uiso   1.00
H2329  H     0.37043   0.90549   0.94159   0.00000  Uiso   1.00
H2330  H     0.45001   0.82966   0.93568   0.00000  Uiso   1.00
H2331  H     0.43108   0.92606   0.89615   0.00000  Uiso   1.00
H2332  H     0.41004   0.97297   0.92793   0.00000  Uiso   1.00
H2333  H     0.39985   0.96932   0.86736   0.00000  Uiso   1.00
H2334  H     0.15861   0.57839   0.73213   0.00000  Uiso   1.00
H2335  H     0.18874   0.66336   0.71240   0.00000  Uiso   1.00
H2336  H     0.14734   0.68244   0.74375   0.00000  Uiso   1.00
H2337  H     0.13900   0.64832   0.69258   0.00000  Uiso   1.00
H2338  H     0.12678   0.58277   0.94322   0.00000  Uiso   1.00
H2339  H     0.08365   0.52557   0.89966   0.00000  Uiso   1.00
H2340  H     0.11909   0.50160   0.94075   0.00000  Uiso   1.00
N2341  N     0.00000   0.75000   0.95069   0.00000  Uiso   1.00
N2342  N     0.41429   0.87004   0.75558   0.00000  Uiso   1.00
N2343  N     0.38330   0.81534   0.91264   0.00000  Uiso   1.00
N2344  N     0.07350   0.63168   0.75435   0.00000  Uiso   1.00
N2345  N     0.12825   0.93170   0.76161   0.00000  Uiso   1.00
N2346  N     0.36957   0.55804   0.91184   0.00000  Uiso   1.00
N2347  N     0.35786   0.58147   0.74929   0.00000  Uiso   1.00
N2348  N     0.19102   0.86228   0.89929   0.00000  Uiso   1.00
N2349  N     0.36867   0.92008   0.90922   0.00000  Uiso   1.00
N2350  N     0.15877   0.60898   0.75031   0.00000  Uiso   1.00
N2351  N     0.13502   0.56771   0.91312   0.00000  Uiso   1.00
N2352  N    -0.00000   0.75000   0.71598   0.00000  Uiso   1.00
N2353  N     0.32866   0.88613   0.75185   0.00000  Uiso   1.00
N2354  N     0.25000   0.50000   0.95069   0.00000  Uiso   1.00
N2355  N     0.25000   0.50000   0.71598   0.00000  Uiso   1.00
N2356  N     0.37749   0.68370   0.76271   0.00000  Uiso   1.00
N2357  N     0.11882   0.80907   0.91294   0.00000  Uiso   1.00
N2358  N     0.11146   0.82833   0.75027   0.00000  Uiso   1.00
N2359  N     0.44141   0.61166   0.89832   0.00000  Uiso   1.00
N2360  N     0.11958   0.67213   0.90847   0.00000  Uiso   1.00
O2361  O     0.04508   0.70491   0.87291   0.00000  Uiso   1.00
O2362  O     0.20491   0.54509   0.79375   0.00000  Uiso   1.00
O2363  O     0.20491   0.54509   0.87291   0.00000  Uiso   1.00
O2364  O     0.29508   0.95491   0.79375   0.00000  Uiso   1.00
O2365  O     0.20491   0.95491   0.79375   0.00000  Uiso   1.00
O2366  O     0.29508   0.54509   0.87291   0.00000  Uiso   1.00
O2367  O     0.29508   0.54509   0.79375   0.00000  Uiso   1.00
O2368  O     0.20491   0.95491   0.87291   0.00000  Uiso   1.00
O2369  O     0.45491   0.79509   0.79375   0.00000  Uiso   1.00
O2370  O     0.45491   0.79509   0.87291   0.00000  Uiso   1.00
O2371  O     0.04508   0.70491   0.79375   0.00000  Uiso   1.00
O2372  O     0.45491   0.70491   0.79375   0.00000  Uiso   1.00
O2373  O     0.04508   0.79509   0.87291   0.00000  Uiso   1.00
O2374  O     0.04508   0.79509   0.79375   0.00000  Uiso   1.00
O2375  O     0.45491   0.70491   0.87291   0.00000  Uiso   1.00
O2376  O     0.29508   0.95491   0.87291   0.00000  Uiso   1.00
C2377  C     0.55853   0.68948   0.83370   0.00000  Uiso   1.00
C2378  C     0.99560   0.79151   0.97467   0.00000  Uiso   1.00
C2379  C     0.50232   0.79227   0.69072   0.00000  Uiso   1.00
C2380  C     0.50632   0.71060   0.97756   0.00000  Uiso   1.00
C2381  C     0.74497   0.95997   0.69075   0.00000  Uiso   1.00
C2382  C     0.74650   0.54171   0.97476   0.00000  Uiso   1.00
C2383  C     0.75301   0.54220   0.69096   0.00000  Uiso   1.00
C2384  C     0.75607   0.96058   0.97748   0.00000  Uiso   1.00
C2385  C     0.88380   0.64700   0.79567   0.00000  Uiso   1.00
C2386  C     0.62332   0.83922   0.87370   0.00000  Uiso   1.00
C2387  C     0.61426   0.85261   0.79258   0.00000  Uiso   1.00
C2388  C     0.93963   0.80802   0.83307   0.00000  Uiso   1.00
C2389  C     0.90710   0.61975   0.87015   0.00000  Uiso   1.00
C2390  C     0.61077   0.63900   0.87406   0.00000  Uiso   1.00
C2391  C     0.88858   0.85947   0.79271   0.00000  Uiso   1.00
C2392  C     0.88174   0.84593   0.87351   0.00000  Uiso   1.00
C2393  C     0.59904   0.62914   0.79354   0.00000  Uiso   1.00
C2394  C     0.63432   0.89594   0.79563   0.00000  Uiso   1.00
C2395  C     0.87361   0.58886   0.87301   0.00000  Uiso   1.00
C2396  C     0.86303   0.60414   0.79223   0.00000  Uiso   1.00
C2397  C     0.65684   0.87016   0.87085   0.00000  Uiso   1.00
C2398  C     0.85937   0.88737   0.87458   0.00000  Uiso   1.00
C2399  C     0.94119   0.68971   0.83350   0.00000  Uiso   1.00
C2400  C     0.63653   0.60698   0.79158   0.00000  Uiso   1.00
C2401  C     0.63304   0.59754   0.87347   0.00000  Uiso   1.00
C2402  C     0.85087   0.88082   0.79324   0.00000  Uiso   1.00
C2403  C     0.60026   0.83207   0.83354   0.00000  Uiso   1.00
C2404  C     0.90928   0.65314   0.83395   0.00000  Uiso   1.00
C2405  C     0.90304   0.83745   0.83294   0.00000  Uiso   1.00
C2406  C     0.58956   0.65241   0.83398   0.00000  Uiso   1.00
C2407  C     0.84992   0.58260   0.83319   0.00000  Uiso   1.00
C2408  C     0.65936   0.90297   0.83413   0.00000  Uiso   1.00
C2409  C     0.65267   0.58704   0.83233   0.00000  Uiso   1.00
C2410  C     0.56198   0.80517   0.83345   0.00000  Uiso   1.00
C2411  C     0.83930   0.90205   0.83405   0.00000  Uiso   1.00
C2412  C     0.96000   0.67707   0.70087   0.00000  Uiso   1.00
C2413  C     0.97124   0.63338   0.72867   0.00000  Uiso   1.00
C2414  C     0.97880   0.83636   0.95117   0.00000  Uiso   1.00
C2415  C     0.50843   0.86631   0.92283   0.00000  Uiso   1.00
C2416  C     0.99978   0.84233   0.71050   0.00000  Uiso   1.00
C2417  C     0.51622   0.86758   0.75217   0.00000  Uiso   1.00
C2418  C     0.54026   0.67897   0.96730   0.00000  Uiso   1.00
C2419  C     0.52652   0.63423   0.94429   0.00000  Uiso   1.00
C2420  C     0.71145   0.92552   0.70182   0.00000  Uiso   1.00
C2421  C     0.80843   0.93933   0.83369   0.00000  Uiso   1.00
C2422  C     0.72438   0.88323   0.73072   0.00000  Uiso   1.00
C2423  C     0.73096   0.58726   0.95122   0.00000  Uiso   1.00
C2424  C     0.76118   0.61655   0.92319   0.00000  Uiso   1.00
C2425  C     0.75139   0.59213   0.71119   0.00000  Uiso   1.00
C2426  C     0.76327   0.61839   0.75451   0.00000  Uiso   1.00
C2427  C     0.79032   0.92936   0.96759   0.00000  Uiso   1.00
C2428  C     0.77677   0.88419   0.94517   0.00000  Uiso   1.00
C2429  C     0.85634   0.72358   0.77971   0.00000  Uiso   1.00
C2430  C     0.61626   0.82966   0.95758   0.00000  Uiso   1.00
C2431  C     0.62984   0.78255   0.75044   0.00000  Uiso   1.00
C2432  C     0.68942   0.55774   0.83293   0.00000  Uiso   1.00
C2433  C     0.96050   0.56650   0.89269   0.00000  Uiso   1.00
C2434  C     0.65517   0.70056   0.89894   0.00000  Uiso   1.00
C2435  C     0.92845   0.91853   0.75482   0.00000  Uiso   1.00
C2436  C     0.86573   0.76914   0.90629   0.00000  Uiso   1.00
C2437  C     0.56592   0.58813   0.73076   0.00000  Uiso   1.00
C2438  C     0.60856   0.97318   0.77735   0.00000  Uiso   1.00
C2439  C     0.86760   0.57788   0.95687   0.00000  Uiso   1.00
C2440  C     0.87633   0.53590   0.74665   0.00000  Uiso   1.00
C2441  C     0.71012   0.81708   0.89399   0.00000  Uiso   1.00
C2442  C     0.90422   0.94856   0.89948   0.00000  Uiso   1.00
C2443  C     0.69123   0.93963   0.83353   0.00000  Uiso   1.00
C2444  C     0.65815   0.65270   0.72351   0.00000  Uiso   1.00
C2445  C     0.61619   0.52194   0.90819   0.00000  Uiso   1.00
C2446  C     0.81755   0.84186   0.73125   0.00000  Uiso   1.00
C2447  C     0.81187   0.55535   0.83339   0.00000  Uiso   1.00
C2448  C     0.99497   0.70992   0.69081   0.00000  Uiso   1.00
Cu2449 Cu    0.50000   0.75000   0.88022   0.00000  Uiso   1.00
Cu2450 Cu    0.50000   0.75000   0.78645   0.00000  Uiso   1.00
Cu2451 Cu    0.75000   0.50000   0.88022   0.00000  Uiso   1.00
Cu2452 Cu    0.75000   0.50000   0.78645   0.00000  Uiso   1.00
H2453  H     0.98123   0.60565   0.70577   0.00000  Uiso   1.00
H2454  H     0.96448   0.86120   0.97395   0.00000  Uiso   1.00
H2455  H     0.63120   0.50198   0.88134   0.00000  Uiso   1.00
H2456  H     0.84226   0.90937   0.72927   0.00000  Uiso   1.00
H2457  H     0.80112   0.84801   0.69890   0.00000  Uiso   1.00
H2458  H     0.79815   0.82063   0.75478   0.00000  Uiso   1.00
H2459  H     0.84447   0.82162   0.72247   0.00000  Uiso   1.00
H2460  H     0.50997   0.90558   0.74829   0.00000  Uiso   1.00
H2461  H     0.50175   0.85728   0.78460   0.00000  Uiso   1.00
H2462  H     0.54894   0.86749   0.75275   0.00000  Uiso   1.00
H2463  H     0.51520   0.86529   0.68478   0.00000  Uiso   1.00
H2464  H     0.96772   0.84926   0.71015   0.00000  Uiso   1.00
H2465  H     0.50495   0.61439   0.96617   0.00000  Uiso   1.00
H2466  H     0.51186   0.64267   0.91137   0.00000  Uiso   1.00
H2467  H     0.55269   0.61151   0.93835   0.00000  Uiso   1.00
H2468  H     0.56272   0.69967   0.94818   0.00000  Uiso   1.00
H2469  H     0.99463   0.64115   0.75475   0.00000  Uiso   1.00
H2470  H     0.55661   0.66875   0.99871   0.00000  Uiso   1.00
H2471  H     0.73578   0.85559   0.70857   0.00000  Uiso   1.00
H2472  H     0.74740   0.89291   0.75658   0.00000  Uiso   1.00
H2473  H     0.69796   0.86763   0.74843   0.00000  Uiso   1.00
H2474  H     0.68730   0.94517   0.71759   0.00000  Uiso   1.00
H2475  H     0.69701   0.91200   0.67018   0.00000  Uiso   1.00
H2476  H     0.79249   0.60686   0.93157   0.00000  Uiso   1.00
H2477  H     0.75483   0.61342   0.88619   0.00000  Uiso   1.00
H2478  H     0.75832   0.65439   0.93090   0.00000  Uiso   1.00
H2479  H     0.70231   0.58157   0.93505   0.00000  Uiso   1.00
H2480  H     0.94430   0.61880   0.74605   0.00000  Uiso   1.00
H2481  H     0.71722   0.61252   0.97397   0.00000  Uiso   1.00
H2482  H     0.75214   0.65487   0.75086   0.00000  Uiso   1.00
H2483  H     0.74964   0.60580   0.78646   0.00000  Uiso   1.00
H2484  H     0.79585   0.62354   0.75731   0.00000  Uiso   1.00
H2485  H     0.76818   0.61485   0.68638   0.00000  Uiso   1.00
H2486  H     0.71946   0.59854   0.70906   0.00000  Uiso   1.00
H2487  H     0.75480   0.86484   0.96695   0.00000  Uiso   1.00
H2488  H     0.76261   0.89212   0.91184   0.00000  Uiso   1.00
H2489  H     0.80289   0.86117   0.94015   0.00000  Uiso   1.00
H2490  H     0.81257   0.95006   0.94814   0.00000  Uiso   1.00
H2491  H     0.93657   0.69742   0.71728   0.00000  Uiso   1.00
H2492  H     0.80685   0.92013   0.99923   0.00000  Uiso   1.00
H2493  H     0.86567   0.67369   0.73178   0.00000  Uiso   1.00
H2494  H     0.82753   0.71217   0.79591   0.00000  Uiso   1.00
H2495  H     0.84938   0.74788   0.75093   0.00000  Uiso   1.00
H2496  H     0.87543   0.74281   0.80437   0.00000  Uiso   1.00
H2497  H     0.60598   0.77625   0.90945   0.00000  Uiso   1.00
H2498  H     0.58859   0.81659   0.97504   0.00000  Uiso   1.00
H2499  H     0.61544   0.86861   0.95537   0.00000  Uiso   1.00
H2500  H     0.64273   0.81887   0.97845   0.00000  Uiso   1.00
H2501  H     0.61951   0.84757   0.72165   0.00000  Uiso   1.00
H2502  H     0.94512   0.66522   0.66882   0.00000  Uiso   1.00
H2503  H     0.66297   0.78615   0.75563   0.00000  Uiso   1.00
H2504  H     0.62392   0.76562   0.71718   0.00000  Uiso   1.00
H2505  H     0.61716   0.75929   0.77769   0.00000  Uiso   1.00
H2506  H     0.93819   0.62155   0.93167   0.00000  Uiso   1.00
H2507  H     0.95966   0.54597   0.92530   0.00000  Uiso   1.00
H2508  H     0.99233   0.57189   0.88242   0.00000  Uiso   1.00
H2509  H     0.94568   0.54532   0.86562   0.00000  Uiso   1.00
H2510  H     0.62101   0.65791   0.94098   0.00000  Uiso   1.00
H2511  H     0.68208   0.67807   0.89600   0.00000  Uiso   1.00
H2512  H     0.66076   0.72510   0.92733   0.00000  Uiso   1.00
H2513  H     0.53998   0.85786   0.93159   0.00000  Uiso   1.00
H2514  H     0.65095   0.72116   0.86670   0.00000  Uiso   1.00
H2515  H     0.90223   0.86079   0.72447   0.00000  Uiso   1.00
H2516  H     0.94640   0.92596   0.72367   0.00000  Uiso   1.00
H2517  H     0.94717   0.92563   0.78563   0.00000  Uiso   1.00
H2518  H     0.90287   0.94300   0.75385   0.00000  Uiso   1.00
H2519  H     0.87378   0.82959   0.94262   0.00000  Uiso   1.00
H2520  H     0.83363   0.77190   0.89546   0.00000  Uiso   1.00
H2521  H     0.86724   0.74872   0.93893   0.00000  Uiso   1.00
H2522  H     0.88272   0.74976   0.88067   0.00000  Uiso   1.00
H2523  H     0.57898   0.66054   0.73371   0.00000  Uiso   1.00
H2524  H     0.50263   0.86241   0.88583   0.00000  Uiso   1.00
H2525  H     0.54540   0.59416   0.70158   0.00000  Uiso   1.00
H2526  H     0.55210   0.56164   0.75438   0.00000  Uiso   1.00
H2527  H     0.59367   0.57434   0.71591   0.00000  Uiso   1.00
H2528  H     0.61549   0.92078   0.73141   0.00000  Uiso   1.00
H2529  H     0.57811   0.96398   0.79066   0.00000  Uiso   1.00
H2530  H     0.60539   0.99853   0.74845   0.00000  Uiso   1.00
H2531  H     0.62674   0.99047   0.80416   0.00000  Uiso   1.00
H2532  H     0.85642   0.52543   0.90802   0.00000  Uiso   1.00
H2533  H     0.84011   0.56458   0.97454   0.00000  Uiso   1.00
H2534  H     0.86681   0.61686   0.95531   0.00000  Uiso   1.00
H2535  H     0.50447   0.90411   0.92997   0.00000  Uiso   1.00
H2536  H     0.89428   0.56674   0.97720   0.00000  Uiso   1.00
H2537  H     0.86387   0.60149   0.72055   0.00000  Uiso   1.00
H2538  H     0.90970   0.53974   0.74803   0.00000  Uiso   1.00
H2539  H     0.86746   0.51924   0.71406   0.00000  Uiso   1.00
H2540  H     0.86632   0.51222   0.77498   0.00000  Uiso   1.00
H2541  H     0.68752   0.87220   0.93259   0.00000  Uiso   1.00
H2542  H     0.70959   0.79694   0.92683   0.00000  Uiso   1.00
H2543  H     0.74184   0.82237   0.88328   0.00000  Uiso   1.00
H2544  H     0.69514   0.79555   0.86730   0.00000  Uiso   1.00
H2545  H     0.87043   0.90549   0.94159   0.00000  Uiso   1.00
H2546  H     0.95001   0.82966   0.93568   0.00000  Uiso   1.00
H2547  H     0.93108   0.92606   0.89615   0.00000  Uiso   1.00
H2548  H     0.91004   0.97297   0.92793   0.00000  Uiso   1.00
H2549  H     0.89985   0.96932   0.86736   0.00000  Uiso   1.00
H2550  H     0.65861   0.57839   0.73213   0.00000  Uiso   1.00
H2551  H     0.68874   0.66336   0.71240   0.00000  Uiso   1.00
H2552  H     0.64734   0.68244   0.74375   0.00000  Uiso   1.00
H2553  H     0.63900   0.64832   0.69258   0.00000  Uiso   1.00
H2554  H     0.62678   0.58277   0.94322   0.00000  Uiso   1.00
H2555  H     0.58365   0.52557   0.89966   0.00000  Uiso   1.00
H2556  H     0.61909   0.50160   0.94075   0.00000  Uiso   1.00
N2557  N     0.50000   0.75000   0.95069   0.00000  Uiso   1.00
N2558  N     0.91429   0.87004   0.75558   0.00000  Uiso   1.00
N2559  N     0.88330   0.81534   0.91264   0.00000  Uiso   1.00
N2560  N     0.57350   0.63168   0.75435   0.00000  Uiso   1.00
N2561  N     0.62825   0.93170   0.76161   0.00000  Uiso   1.00
N2562  N     0.86957   0.55804   0.91184   0.00000  Uiso   1.00
N2563  N     0.85786   0.58147   0.74929   0.00000  Uiso   1.00
N2564  N     0.69102   0.86228   0.89929   0.00000  Uiso   1.00
N2565  N     0.86867   0.92008   0.90922   0.00000  Uiso   1.00
N2566  N     0.65877   0.60898   0.75031   0.00000  Uiso   1.00
N2567  N     0.63502   0.56771   0.91312   0.00000  Uiso   1.00
N2568  N     0.50000   0.75000   0.71598   0.00000  Uiso   1.00
N2569  N     0.82866   0.88613   0.75185   0.00000  Uiso   1.00
N2570  N     0.75000   0.50000   0.95069   0.00000  Uiso   1.00
N2571  N     0.75000   0.50000   0.71598   0.00000  Uiso   1.00
N2572  N     0.87749   0.68370   0.76271   0.00000  Uiso   1.00
N2573  N     0.61882   0.80907   0.91294   0.00000  Uiso   1.00
N2574  N     0.61146   0.82833   0.75027   0.00000  Uiso   1.00
N2575  N     0.94141   0.61166   0.89832   0.00000  Uiso   1.00
N2576  N     0.61958   0.67213   0.90847   0.00000  Uiso   1.00
O2577  O     0.54508   0.70491   0.87291   0.00000  Uiso   1.00
O2578  O     0.70491   0.54509   0.79375   0.00000  Uiso   1.00
O2579  O     0.70491   0.54509   0.87291   0.00000  Uiso   1.00
O2580  O     0.79508   0.95491   0.79375   0.00000  Uiso   1.00
O2581  O     0.70491   0.95491   0.79375   0.00000  Uiso   1.00
O2582  O     0.79508   0.54509   0.87291   0.00000  Uiso   1.00
O2583  O     0.79508   0.54509   0.79375   0.00000  Uiso   1.00
O2584  O     0.70491   0.95491   0.87291   0.00000  Uiso   1.00
O2585  O     0.95491   0.79509   0.79375   0.00000  Uiso   1.00
O2586  O     0.95491   0.79509   0.87291   0.00000  Uiso   1.00
O2587  O     0.54508   0.70491   0.79375   0.00000  Uiso   1.00
O2588  O     0.95491   0.70491   0.79375   0.00000  Uiso   1.00
O2589  O     0.54508   0.79509   0.87291   0.00000  Uiso   1.00
O2590  O     0.54508   0.79509   0.79375   0.00000  Uiso   1.00
O2591  O     0.95491   0.70491   0.87291   0.00000  Uiso   1.00
O2592  O     0.79508   0.95491   0.87291   0.00000  Uiso   1.00
loop_
_geom_bond_atom_site_label_1
_geom_bond_atom_site_label_2
_geom_bond_distance
_geom_bond_site_symmetry_2
_ccdc_geom_bond_type
C1     O211    1.319   .     A
C1     O201    1.322   .     A
C1     C30     1.487   .     S
C2     C38     1.550   .     S
C2     C1083   1.463   .     S
C2     N397    1.398   .     S
C3     C1946   1.463   1_454 S
C3     C256    1.555   1_455 S
C3     N192    1.403   .     S
C4     N181    1.377   .     A
C4     C42     1.490   .     S
C4     C1152   1.419   1_455 S
C5     C44     1.505   .     S
C5     C1736   1.417   1_554 S
C5     N627    1.379   .     S
C6     C47     1.552   .     S
C6     C871    1.466   .     S
C6     N194    1.401   .     S
C7     C49     1.554   .     S
C7     N195    1.399   .     A
C7     C1734   1.466   1_554 S
C8     N626    1.375   .     A
C8     C51     1.488   .     S
C8     C869    1.417   .     S
C9     N196    1.427   .     S
C9     C20     1.398   .     A
C9     C28     1.410   .     A
C10    C27     1.414   .     A
C10    C21     1.410   .     A
C10    N197    1.430   .     S
C11    C18     1.397   .     A
C11    C27     1.405   .     A
C11    N198    1.433   .     S
C12    C29     1.486   .     S
C12    O209    1.324   .     A
C12    O210    1.317   .     A
C13    C28     1.413   .     A
C13    C19     1.409   .     A
C13    N199    1.419   .     S
C14    C30     1.413   .     A
C14    N200    1.420   .     S
C14    C25     1.404   .     A
C15    C29     1.408   .     A
C15    C26     1.400   .     A
C15    N182    1.413   .     S
C16    N183    1.428   .     S
C16    C29     1.415   .     A
C16    C22     1.406   .     A
C17    C30     1.409   .     A
C17    C24     1.406   .     A
C17    N184    1.422   .     S
C18    C32     1.410   .     A
C18    N185    1.427   .     S
C19    C31     1.414   .     A
C19    N186    1.430   .     S
C20    N187    1.433   .     S
C20    C31     1.406   .     A
C21    C32     1.414   .     A
C21    N188    1.419   .     S
C22    C35     1.415   .     A
C22    N189    1.421   .     S
C23    O215    1.316   .     A
C23    O212    1.317   .     A
C23    C28     1.474   .     S
C24    C33     1.417   .     A
C24    N190    1.422   .     S
C25    N191    1.428   .     S
C25    C33     1.415   .     A
C26    N193    1.420   .     S
C26    C35     1.410   .     A
C27    C34     1.473   .     S
C31    C71     1.471   .     S
C32    C67     1.475   .     S
C33    C56     1.488   .     S
C34    O214    1.321   .     A
C34    O213    1.314   .     A
C35    C45     1.487   .     S
C36    C37     1.524   .     S
C36    H126    1.113   .     S
C36    H115    1.097   .     S
C36    C72     1.507   .     S
C37    H104    1.104   .     S
C37    H93     1.107   .     S
C37    H77     1.104   .     S
C38    H170    1.069   .     S
C38    H78     1.099   .     S
C38    C255    1.531   .     S
C39    H137    1.104   .     S
C39    H148    1.107   .     S
C39    H159    1.112   .     S
C39    C254    1.531   1_455 S
C40    H88     1.085   .     S
C40    C219    1.555   .     S
C40    C257    1.522   .     S
C40    H303    1.111   .     S
C41    H84     1.110   .     S
C41    H85     1.101   .     S
C41    H86     1.085   .     S
C41    C256    1.522   1_455 S
C42    C43     1.516   .     S
C42    H94     1.101   .     S
C42    H92     1.094   .     S
C43    H89     1.106   .     S
C43    H90     1.100   .     S
C43    H91     1.108   .     S
C44    H99     1.112   .     S
C44    H98     1.095   .     S
C44    C46     1.525   .     S
C45    O204    1.319   .     A
C45    O216    1.323   .     A
C46    H95     1.104   .     S
C46    H96     1.106   .     S
C46    H97     1.106   .     S
C47    H105    1.098   .     S
C47    H103    1.069   .     S
C47    C48     1.529   .     S
C48    H100    1.103   .     S
C48    H102    1.112   .     S
C48    H101    1.108   .     S
C49    H109    1.112   .     S
C49    C50     1.531   .     S
C49    H110    1.079   .     S
C50    H108    1.091   .     S
C50    H107    1.095   .     S
C50    H106    1.112   .     S
C51    H114    1.095   .     S
C51    C52     1.517   .     S
C51    H116    1.102   .     S
C52    H113    1.108   .     S
C52    H112    1.101   .     S
C52    H111    1.106   .     S
C53    H120    1.104   .     S
C53    H118    1.112   .     S
C53    H119    1.106   .     S
C53    N196    1.444   .     S
C54    H123    1.112   .     S
C54    N197    1.448   .     S
C54    H122    1.110   .     S
C54    H124    1.109   .     S
C55    N198    1.449   .     S
C55    H129    1.109   .     S
C55    H127    1.111   .     S
C55    H128    1.111   .     S
C56    O203    1.321   .     A
C56    O202    1.321   .     A
C57    H132    1.108   .     S
C57    H133    1.113   .     S
C57    H131    1.111   .     S
C57    N199    1.456   .     S
C58    N200    1.447   .     S
C58    H138    1.112   .     S
C58    H135    1.112   .     S
C58    H136    1.110   .     S
C59    H142    1.107   .     S
C59    N182    1.452   .     S
C59    H140    1.109   .     S
C59    H141    1.111   .     S
C60    H146    1.105   .     S
C60    H144    1.112   .     S
C60    N183    1.446   .     S
C60    H145    1.111   .     S
C61    H150    1.111   .     S
C61    H151    1.103   .     S
C61    N184    1.450   .     S
C61    H149    1.101   .     S
C62    H155    1.105   .     S
C62    H154    1.108   .     S
C62    N185    1.445   .     S
C62    H153    1.112   .     S
C63    H160    1.109   .     S
C63    N186    1.448   .     S
C63    H157    1.110   .     S
C63    H158    1.112   .     S
C64    H164    1.109   .     S
C64    H163    1.110   .     S
C64    H162    1.111   .     S
C64    N187    1.449   .     S
C65    H168    1.112   .     S
C65    N188    1.457   .     S
C65    H166    1.111   .     S
C65    H167    1.108   .     S
C66    H172    1.110   .     S
C66    N189    1.448   .     S
C66    H171    1.112   .     S
C66    H173    1.112   .     S
C67    O205    1.318   .     A
C67    O208    1.316   .     A
C68    H177    1.110   .     S
C68    H176    1.110   .     S
C68    H175    1.104   .     S
C68    N190    1.460   .     S
C69    N191    1.447   .     S
C69    H180    1.111   .     S
C69    H79     1.106   .     S
C69    H179    1.112   .     S
C70    H81     1.102   .     S
C70    H83     1.106   .     S
C70    N193    1.451   .     S
C70    H82     1.111   .     S
C71    O206    1.315   .     A
C71    O207    1.319   .     A
C72    N408    1.379   .     A
C72    C1948   1.419   1_554 S
Cu73   N181    2.065   .     S
Cu73   O201    2.003   .     S
Cu73   O213    1.967   .     S
Cu73   Cu74    2.748   .     S
Cu73   O426    1.995   1_455 S
Cu73   O431    1.969   1_455 S
Cu74   O425    2.003   1_455 S
Cu74   O428    1.967   1_455 S
Cu74   N192    2.065   .     S
Cu74   O211    1.995   .     S
Cu74   O214    1.969   .     S
Cu75   O203    1.995   .     S
Cu75   Cu76    2.748   .     S
Cu75   O206    1.967   .     S
Cu75   N194    2.065   .     S
Cu75   O640    1.969   1_545 S
Cu75   O648    2.003   1_545 S
Cu76   O202    2.003   .     S
Cu76   O207    1.969   .     S
Cu76   N195    2.065   .     S
Cu76   O636    1.995   1_545 S
Cu76   O637    1.967   1_545 S
H80    N193    1.029   .     S
H87    C256    1.111   1_455 S
H117   N196    1.028   .     S
H121   N197    1.028   .     S
H125   N198    1.028   .     S
H130   N199    1.029   .     S
H134   N200    1.029   .     S
H139   N182    1.030   .     S
H143   N183    1.030   .     S
H147   N184    1.026   .     S
H152   N185    1.029   .     S
H156   N186    1.028   .     S
H161   N187    1.027   .     S
H165   N188    1.029   .     S
H169   N189    1.030   .     S
H174   N190    1.031   .     S
H178   N191    1.029   .     S
N181   C218    1.398   1_455 S
N192   C288    1.379   1_455 A
N194   C440    1.375   1_545 A
N195   C437    1.379   1_545 S
O204   Cu508   1.995   .     S
O205   Cu508   1.967   .     S
O208   Cu507   1.969   .     S
O209   Cu290   2.003   .     S
O210   Cu289   1.995   .     S
O212   Cu290   1.967   .     S
O215   Cu289   1.969   .     S
O216   Cu507   2.003   .     S
C217   O427    1.319   .     A
C217   O417    1.322   .     A
C217   C246    1.487   .     S
C218   C254    1.550   .     S
C218   C867    1.463   1_655 S
C218   N181    1.398   1_655 S
C219   C1730   1.463   1_554 S
C219   N408    1.403   .     S
C220   N397    1.377   .     A
C220   C258    1.490   .     S
C220   C936    1.419   .     S
C221   C260    1.505   .     S
C221   C1952   1.417   1_554 S
C221   N843    1.379   .     S
C222   C263    1.552   .     S
C222   C1087   1.466   .     S
C222   N410    1.401   .     S
C223   C265    1.554   .     S
C223   N411    1.399   .     A
C223   C1950   1.466   1_554 S
C224   N842    1.375   .     A
C224   C267    1.488   .     S
C224   C1085   1.417   .     S
C225   N412    1.427   .     S
C225   C236    1.398   .     A
C225   C244    1.410   .     A
C226   C243    1.414   .     A
C226   C237    1.410   .     A
C226   N413    1.430   .     S
C227   C234    1.397   .     A
C227   C243    1.405   .     A
C227   N414    1.433   .     S
C228   C245    1.486   .     S
C228   O425    1.324   .     A
C228   O426    1.317   .     A
C229   C244    1.413   .     A
C229   C235    1.409   .     A
C229   N415    1.419   .     S
C230   C246    1.413   .     A
C230   N416    1.420   .     S
C230   C241    1.404   .     A
C231   C245    1.408   .     A
C231   C242    1.400   .     A
C231   N398    1.413   .     S
C232   N399    1.428   .     S
C232   C245    1.415   .     A
C232   C238    1.406   .     A
C233   C246    1.409   .     A
C233   C240    1.406   .     A
C233   N400    1.422   .     S
C234   C248    1.410   .     A
C234   N401    1.427   .     S
C235   C247    1.414   .     A
C235   N402    1.430   .     S
C236   N403    1.433   .     S
C236   C247    1.406   .     A
C237   C248    1.414   .     A
C237   N404    1.419   .     S
C238   C251    1.415   .     A
C238   N405    1.421   .     S
C239   O431    1.316   .     A
C239   O428    1.317   .     A
C239   C244    1.474   .     S
C240   C249    1.417   .     A
C240   N406    1.422   .     S
C241   N407    1.428   .     S
C241   C249    1.415   .     A
C242   N409    1.420   .     S
C242   C251    1.410   .     A
C243   C250    1.473   .     S
C247   C287    1.471   .     S
C248   C283    1.475   .     S
C249   C272    1.488   .     S
C250   O430    1.321   .     A
C250   O429    1.314   .     A
C251   C261    1.487   .     S
C252   C253    1.524   .     S
C252   H342    1.113   .     S
C252   H331    1.097   .     S
C252   C288    1.507   .     S
C253   H320    1.104   .     S
C253   H309    1.107   .     S
C253   H293    1.104   .     S
C254   H386    1.069   .     S
C254   H294    1.099   .     S
C254   C39     1.531   1_655 S
C255   H353    1.104   .     S
C255   H364    1.107   .     S
C255   H375    1.112   .     S
C256   H304    1.085   .     S
C256   C3      1.555   1_655 S
C256   C41     1.522   1_655 S
C256   H87     1.111   1_655 S
C257   H300    1.110   .     S
C257   H301    1.101   .     S
C257   H302    1.085   .     S
C258   C259    1.516   .     S
C258   H310    1.101   .     S
C258   H308    1.094   .     S
C259   H305    1.106   .     S
C259   H306    1.100   .     S
C259   H307    1.108   .     S
C260   H315    1.112   .     S
C260   H314    1.095   .     S
C260   C262    1.525   .     S
C261   O420    1.319   .     A
C261   O432    1.323   .     A
C262   H311    1.104   .     S
C262   H312    1.106   .     S
C262   H313    1.106   .     S
C263   H321    1.098   .     S
C263   H319    1.069   .     S
C263   C264    1.529   .     S
C264   H316    1.103   .     S
C264   H318    1.112   .     S
C264   H317    1.108   .     S
C265   H325    1.112   .     S
C265   C266    1.531   .     S
C265   H326    1.079   .     S
C266   H324    1.091   .     S
C266   H323    1.095   .     S
C266   H322    1.112   .     S
C267   H330    1.095   .     S
C267   C268    1.517   .     S
C267   H332    1.102   .     S
C268   H329    1.108   .     S
C268   H328    1.101   .     S
C268   H327    1.106   .     S
C269   H336    1.104   .     S
C269   H334    1.112   .     S
C269   H335    1.106   .     S
C269   N412    1.444   .     S
C270   H339    1.112   .     S
C270   N413    1.448   .     S
C270   H338    1.110   .     S
C270   H340    1.109   .     S
C271   N414    1.449   .     S
C271   H345    1.109   .     S
C271   H343    1.111   .     S
C271   H344    1.111   .     S
C272   O419    1.321   .     A
C272   O418    1.321   .     A
C273   H348    1.108   .     S
C273   H349    1.113   .     S
C273   H347    1.111   .     S
C273   N415    1.456   .     S
C274   N416    1.447   .     S
C274   H354    1.112   .     S
C274   H351    1.112   .     S
C274   H352    1.110   .     S
C275   H358    1.107   .     S
C275   N398    1.452   .     S
C275   H356    1.109   .     S
C275   H357    1.111   .     S
C276   H362    1.105   .     S
C276   H360    1.112   .     S
C276   N399    1.446   .     S
C276   H361    1.111   .     S
C277   H366    1.111   .     S
C277   H367    1.103   .     S
C277   N400    1.450   .     S
C277   H365    1.101   .     S
C278   H371    1.105   .     S
C278   H370    1.108   .     S
C278   N401    1.445   .     S
C278   H369    1.112   .     S
C279   H376    1.109   .     S
C279   N402    1.448   .     S
C279   H373    1.110   .     S
C279   H374    1.112   .     S
C280   H380    1.109   .     S
C280   H379    1.110   .     S
C280   H378    1.111   .     S
C280   N403    1.449   .     S
C281   H384    1.112   .     S
C281   N404    1.457   .     S
C281   H382    1.111   .     S
C281   H383    1.108   .     S
C282   H388    1.110   .     S
C282   N405    1.448   .     S
C282   H387    1.112   .     S
C282   H389    1.112   .     S
C283   O421    1.318   .     A
C283   O424    1.316   .     A
C284   H393    1.110   .     S
C284   H392    1.110   .     S
C284   H391    1.104   .     S
C284   N406    1.460   .     S
C285   N407    1.447   .     S
C285   H396    1.111   .     S
C285   H295    1.106   .     S
C285   H395    1.112   .     S
C286   H297    1.102   .     S
C286   H299    1.106   .     S
C286   N409    1.451   .     S
C286   H298    1.111   .     S
C287   O422    1.315   .     A
C287   O423    1.319   .     A
C288   N192    1.379   1_655 A
C288   C1732   1.419   1_654 S
Cu289  N397    2.065   .     S
Cu289  O417    2.003   .     S
Cu289  O429    1.967   .     S
Cu289  Cu290   2.748   .     S
Cu290  N408    2.065   .     S
Cu290  O427    1.995   .     S
Cu290  O430    1.969   .     S
Cu291  O419    1.995   .     S
Cu291  Cu292   2.748   .     S
Cu291  O422    1.967   .     S
Cu291  N410    2.065   .     S
Cu291  O856    1.969   1_545 S
Cu291  O864    2.003   1_545 S
Cu292  O418    2.003   .     S
Cu292  O423    1.969   .     S
Cu292  N411    2.065   .     S
Cu292  O852    1.995   1_545 S
Cu292  O853    1.967   1_545 S
H296   N409    1.029   .     S
H333   N412    1.028   .     S
H337   N413    1.028   .     S
H341   N414    1.028   .     S
H346   N415    1.029   .     S
H350   N416    1.029   .     S
H355   N398    1.030   .     S
H359   N399    1.030   .     S
H363   N400    1.026   .     S
H368   N401    1.029   .     S
H372   N402    1.028   .     S
H377   N403    1.027   .     S
H381   N404    1.029   .     S
H385   N405    1.030   .     S
H390   N406    1.031   .     S
H394   N407    1.029   .     S
N410   C656    1.375   1_545 A
N411   C653    1.379   1_545 S
O420   Cu724   1.995   .     S
O421   Cu724   1.967   .     S
O424   Cu723   1.969   .     S
O425   Cu74    2.003   1_655 S
O426   Cu73    1.995   1_655 S
O428   Cu74    1.967   1_655 S
O431   Cu73    1.969   1_655 S
O432   Cu723   2.003   .     S
C433   O643    1.319   .     A
C433   O633    1.322   .     A
C433   C462    1.487   .     S
C434   C470    1.550   .     S
C434   C1515   1.463   .     S
C434   N829    1.398   .     S
C435   C2378   1.463   1_454 S
C435   C688    1.555   1_455 S
C435   N624    1.403   .     S
C436   N613    1.377   .     A
C436   C474    1.490   .     S
C436   C1584   1.419   1_455 S
C437   C476    1.505   .     S
C437   C2168   1.417   1_554 S
C437   N195    1.379   1_565 S
C438   C479    1.552   .     S
C438   C1303   1.466   .     S
C438   N626    1.401   .     S
C439   C481    1.554   .     S
C439   N627    1.399   .     A
C439   C2166   1.466   1_554 S
C440   N194    1.375   1_565 A
C440   C483    1.488   .     S
C440   C1301   1.417   .     S
C441   N628    1.427   .     S
C441   C452    1.398   .     A
C441   C460    1.410   .     A
C442   C459    1.414   .     A
C442   C453    1.410   .     A
C442   N629    1.430   .     S
C443   C450    1.397   .     A
C443   C459    1.405   .     A
C443   N630    1.433   .     S
C444   C461    1.486   .     S
C444   O641    1.324   .     A
C444   O642    1.317   .     A
C445   C460    1.413   .     A
C445   C451    1.409   .     A
C445   N631    1.419   .     S
C446   C462    1.413   .     A
C446   N632    1.420   .     S
C446   C457    1.404   .     A
C447   C461    1.408   .     A
C447   C458    1.400   .     A
C447   N614    1.413   .     S
C448   N615    1.428   .     S
C448   C461    1.415   .     A
C448   C454    1.406   .     A
C449   C462    1.409   .     A
C449   C456    1.406   .     A
C449   N616    1.422   .     S
C450   C464    1.410   .     A
C450   N617    1.427   .     S
C451   C463    1.414   .     A
C451   N618    1.430   .     S
C452   N619    1.433   .     S
C452   C463    1.406   .     A
C453   C464    1.414   .     A
C453   N620    1.419   .     S
C454   C467    1.415   .     A
C454   N621    1.421   .     S
C455   O647    1.316   .     A
C455   O644    1.317   .     A
C455   C460    1.474   .     S
C456   C465    1.417   .     A
C456   N622    1.422   .     S
C457   N623    1.428   .     S
C457   C465    1.415   .     A
C458   N625    1.420   .     S
C458   C467    1.410   .     A
C459   C466    1.473   .     S
C463   C503    1.471   .     S
C464   C499    1.475   .     S
C465   C488    1.488   .     S
C466   O646    1.321   .     A
C466   O645    1.314   .     A
C467   C477    1.487   .     S
C468   C469    1.524   .     S
C468   H558    1.113   .     S
C468   H547    1.097   .     S
C468   C504    1.507   .     S
C469   H536    1.104   .     S
C469   H525    1.107   .     S
C469   H509    1.104   .     S
C470   H602    1.069   .     S
C470   H510    1.099   .     S
C470   C687    1.531   .     S
C471   H569    1.104   .     S
C471   H580    1.107   .     S
C471   H591    1.112   .     S
C471   C686    1.531   1_455 S
C472   H520    1.085   .     S
C472   C651    1.555   .     S
C472   C689    1.522   .     S
C472   H735    1.111   .     S
C473   H516    1.110   .     S
C473   H517    1.101   .     S
C473   H518    1.085   .     S
C473   C688    1.522   1_455 S
C474   C475    1.516   .     S
C474   H526    1.101   .     S
C474   H524    1.094   .     S
C475   H521    1.106   .     S
C475   H522    1.100   .     S
C475   H523    1.108   .     S
C476   H531    1.112   .     S
C476   H530    1.095   .     S
C476   C478    1.525   .     S
C477   O636    1.319   .     A
C477   O648    1.323   .     A
C478   H527    1.104   .     S
C478   H528    1.106   .     S
C478   H529    1.106   .     S
C479   H537    1.098   .     S
C479   H535    1.069   .     S
C479   C480    1.529   .     S
C480   H532    1.103   .     S
C480   H534    1.112   .     S
C480   H533    1.108   .     S
C481   H541    1.112   .     S
C481   C482    1.531   .     S
C481   H542    1.079   .     S
C482   H540    1.091   .     S
C482   H539    1.095   .     S
C482   H538    1.112   .     S
C483   H546    1.095   .     S
C483   C484    1.517   .     S
C483   H548    1.102   .     S
C484   H545    1.108   .     S
C484   H544    1.101   .     S
C484   H543    1.106   .     S
C485   H552    1.104   .     S
C485   H550    1.112   .     S
C485   H551    1.106   .     S
C485   N628    1.444   .     S
C486   H555    1.112   .     S
C486   N629    1.448   .     S
C486   H554    1.110   .     S
C486   H556    1.109   .     S
C487   N630    1.449   .     S
C487   H561    1.109   .     S
C487   H559    1.111   .     S
C487   H560    1.111   .     S
C488   O635    1.321   .     A
C488   O634    1.321   .     A
C489   H564    1.108   .     S
C489   H565    1.113   .     S
C489   H563    1.111   .     S
C489   N631    1.456   .     S
C490   N632    1.447   .     S
C490   H570    1.112   .     S
C490   H567    1.112   .     S
C490   H568    1.110   .     S
C491   H574    1.107   .     S
C491   N614    1.452   .     S
C491   H572    1.109   .     S
C491   H573    1.111   .     S
C492   H578    1.105   .     S
C492   H576    1.112   .     S
C492   N615    1.446   .     S
C492   H577    1.111   .     S
C493   H582    1.111   .     S
C493   H583    1.103   .     S
C493   N616    1.450   .     S
C493   H581    1.101   .     S
C494   H587    1.105   .     S
C494   H586    1.108   .     S
C494   N617    1.445   .     S
C494   H585    1.112   .     S
C495   H592    1.109   .     S
C495   N618    1.448   .     S
C495   H589    1.110   .     S
C495   H590    1.112   .     S
C496   H596    1.109   .     S
C496   H595    1.110   .     S
C496   H594    1.111   .     S
C496   N619    1.449   .     S
C497   H600    1.112   .     S
C497   N620    1.457   .     S
C497   H598    1.111   .     S
C497   H599    1.108   .     S
C498   H604    1.110   .     S
C498   N621    1.448   .     S
C498   H603    1.112   .     S
C498   H605    1.112   .     S
C499   O637    1.318   .     A
C499   O640    1.316   .     A
C500   H609    1.110   .     S
C500   H608    1.110   .     S
C500   H607    1.104   .     S
C500   N622    1.460   .     S
C501   N623    1.447   .     S
C501   H612    1.111   .     S
C501   H511    1.106   .     S
C501   H611    1.112   .     S
C502   H513    1.102   .     S
C502   H515    1.106   .     S
C502   N625    1.451   .     S
C502   H514    1.111   .     S
C503   O638    1.315   .     A
C503   O639    1.319   .     A
C504   N840    1.379   .     A
C504   C2380   1.419   1_554 S
Cu505  N613    2.065   .     S
Cu505  O633    2.003   .     S
Cu505  O645    1.967   .     S
Cu505  Cu506   2.748   .     S
Cu505  O858    1.995   1_455 S
Cu505  O863    1.969   1_455 S
Cu506  O857    2.003   1_455 S
Cu506  O860    1.967   1_455 S
Cu506  N624    2.065   .     S
Cu506  O643    1.995   .     S
Cu506  O646    1.969   .     S
Cu507  O635    1.995   .     S
Cu507  Cu508   2.748   .     S
Cu507  O638    1.967   .     S
Cu507  N626    2.065   .     S
Cu508  O634    2.003   .     S
Cu508  O639    1.969   .     S
Cu508  N627    2.065   .     S
H512   N625    1.029   .     S
H519   C688    1.111   1_455 S
H549   N628    1.028   .     S
H553   N629    1.028   .     S
H557   N630    1.028   .     S
H562   N631    1.029   .     S
H566   N632    1.029   .     S
H571   N614    1.030   .     S
H575   N615    1.030   .     S
H579   N616    1.026   .     S
H584   N617    1.029   .     S
H588   N618    1.028   .     S
H593   N619    1.027   .     S
H597   N620    1.029   .     S
H601   N621    1.030   .     S
H606   N622    1.031   .     S
H610   N623    1.029   .     S
N613   C650    1.398   1_455 S
N624   C720    1.379   1_455 A
O636   Cu76    1.995   1_565 S
O637   Cu76    1.967   1_565 S
O640   Cu75    1.969   1_565 S
O641   Cu722   2.003   .     S
O642   Cu721   1.995   .     S
O644   Cu722   1.967   .     S
O647   Cu721   1.969   .     S
O648   Cu75    2.003   1_565 S
C649   O859    1.319   .     A
C649   O849    1.322   .     A
C649   C678    1.487   .     S
C650   C686    1.550   .     S
C650   C1299   1.463   1_655 S
C650   N613    1.398   1_655 S
C651   C2162   1.463   1_554 S
C651   N840    1.403   .     S
C652   N829    1.377   .     A
C652   C690    1.490   .     S
C652   C1368   1.419   .     S
C653   C692    1.505   .     S
C653   C2384   1.417   1_554 S
C653   N411    1.379   1_565 S
C654   C695    1.552   .     S
C654   C1519   1.466   .     S
C654   N842    1.401   .     S
C655   C697    1.554   .     S
C655   N843    1.399   .     A
C655   C2382   1.466   1_554 S
C656   N410    1.375   1_565 A
C656   C699    1.488   .     S
C656   C1517   1.417   .     S
C657   N844    1.427   .     S
C657   C668    1.398   .     A
C657   C676    1.410   .     A
C658   C675    1.414   .     A
C658   C669    1.410   .     A
C658   N845    1.430   .     S
C659   C666    1.397   .     A
C659   C675    1.405   .     A
C659   N846    1.433   .     S
C660   C677    1.486   .     S
C660   O857    1.324   .     A
C660   O858    1.317   .     A
C661   C676    1.413   .     A
C661   C667    1.409   .     A
C661   N847    1.419   .     S
C662   C678    1.413   .     A
C662   N848    1.420   .     S
C662   C673    1.404   .     A
C663   C677    1.408   .     A
C663   C674    1.400   .     A
C663   N830    1.413   .     S
C664   N831    1.428   .     S
C664   C677    1.415   .     A
C664   C670    1.406   .     A
C665   C678    1.409   .     A
C665   C672    1.406   .     A
C665   N832    1.422   .     S
C666   C680    1.410   .     A
C666   N833    1.427   .     S
C667   C679    1.414   .     A
C667   N834    1.430   .     S
C668   N835    1.433   .     S
C668   C679    1.406   .     A
C669   C680    1.414   .     A
C669   N836    1.419   .     S
C670   C683    1.415   .     A
C670   N837    1.421   .     S
C671   O863    1.316   .     A
C671   O860    1.317   .     A
C671   C676    1.474   .     S
C672   C681    1.417   .     A
C672   N838    1.422   .     S
C673   N839    1.428   .     S
C673   C681    1.415   .     A
C674   N841    1.420   .     S
C674   C683    1.410   .     A
C675   C682    1.473   .     S
C679   C719    1.471   .     S
C680   C715    1.475   .     S
C681   C704    1.488   .     S
C682   O862    1.321   .     A
C682   O861    1.314   .     A
C683   C693    1.487   .     S
C684   C685    1.524   .     S
C684   H774    1.113   .     S
C684   H763    1.097   .     S
C684   C720    1.507   .     S
C685   H752    1.104   .     S
C685   H741    1.107   .     S
C685   H725    1.104   .     S
C686   H818    1.069   .     S
C686   H726    1.099   .     S
C686   C471    1.531   1_655 S
C687   H785    1.104   .     S
C687   H796    1.107   .     S
C687   H807    1.112   .     S
C688   H736    1.085   .     S
C688   C435    1.555   1_655 S
C688   C473    1.522   1_655 S
C688   H519    1.111   1_655 S
C689   H732    1.110   .     S
C689   H733    1.101   .     S
C689   H734    1.085   .     S
C690   C691    1.516   .     S
C690   H742    1.101   .     S
C690   H740    1.094   .     S
C691   H737    1.106   .     S
C691   H738    1.100   .     S
C691   H739    1.108   .     S
C692   H747    1.112   .     S
C692   H746    1.095   .     S
C692   C694    1.525   .     S
C693   O852    1.319   .     A
C693   O864    1.323   .     A
C694   H743    1.104   .     S
C694   H744    1.106   .     S
C694   H745    1.106   .     S
C695   H753    1.098   .     S
C695   H751    1.069   .     S
C695   C696    1.529   .     S
C696   H748    1.103   .     S
C696   H750    1.112   .     S
C696   H749    1.108   .     S
C697   H757    1.112   .     S
C697   C698    1.531   .     S
C697   H758    1.079   .     S
C698   H756    1.091   .     S
C698   H755    1.095   .     S
C698   H754    1.112   .     S
C699   H762    1.095   .     S
C699   C700    1.517   .     S
C699   H764    1.102   .     S
C700   H761    1.108   .     S
C700   H760    1.101   .     S
C700   H759    1.106   .     S
C701   H768    1.104   .     S
C701   H766    1.112   .     S
C701   H767    1.106   .     S
C701   N844    1.444   .     S
C702   H771    1.112   .     S
C702   N845    1.448   .     S
C702   H770    1.110   .     S
C702   H772    1.109   .     S
C703   N846    1.449   .     S
C703   H777    1.109   .     S
C703   H775    1.111   .     S
C703   H776    1.111   .     S
C704   O851    1.321   .     A
C704   O850    1.321   .     A
C705   H780    1.108   .     S
C705   H781    1.113   .     S
C705   H779    1.111   .     S
C705   N847    1.456   .     S
C706   N848    1.447   .     S
C706   H786    1.112   .     S
C706   H783    1.112   .     S
C706   H784    1.110   .     S
C707   H790    1.107   .     S
C707   N830    1.452   .     S
C707   H788    1.109   .     S
C707   H789    1.111   .     S
C708   H794    1.105   .     S
C708   H792    1.112   .     S
C708   N831    1.446   .     S
C708   H793    1.111   .     S
C709   H798    1.111   .     S
C709   H799    1.103   .     S
C709   N832    1.450   .     S
C709   H797    1.101   .     S
C710   H803    1.105   .     S
C710   H802    1.108   .     S
C710   N833    1.445   .     S
C710   H801    1.112   .     S
C711   H808    1.109   .     S
C711   N834    1.448   .     S
C711   H805    1.110   .     S
C711   H806    1.112   .     S
C712   H812    1.109   .     S
C712   H811    1.110   .     S
C712   H810    1.111   .     S
C712   N835    1.449   .     S
C713   H816    1.112   .     S
C713   N836    1.457   .     S
C713   H814    1.111   .     S
C713   H815    1.108   .     S
C714   H820    1.110   .     S
C714   N837    1.448   .     S
C714   H819    1.112   .     S
C714   H821    1.112   .     S
C715   O853    1.318   .     A
C715   O856    1.316   .     A
C716   H825    1.110   .     S
C716   H824    1.110   .     S
C716   H823    1.104   .     S
C716   N838    1.460   .     S
C717   N839    1.447   .     S
C717   H828    1.111   .     S
C717   H727    1.106   .     S
C717   H827    1.112   .     S
C718   H729    1.102   .     S
C718   H731    1.106   .     S
C718   N841    1.451   .     S
C718   H730    1.111   .     S
C719   O854    1.315   .     A
C719   O855    1.319   .     A
C720   N624    1.379   1_655 A
C720   C2164   1.419   1_654 S
Cu721  N829    2.065   .     S
Cu721  O849    2.003   .     S
Cu721  O861    1.967   .     S
Cu721  Cu722   2.748   .     S
Cu722  N840    2.065   .     S
Cu722  O859    1.995   .     S
Cu722  O862    1.969   .     S
Cu723  O851    1.995   .     S
Cu723  Cu724   2.748   .     S
Cu723  O854    1.967   .     S
Cu723  N842    2.065   .     S
Cu724  O850    2.003   .     S
Cu724  O855    1.969   .     S
Cu724  N843    2.065   .     S
H728   N841    1.029   .     S
H765   N844    1.028   .     S
H769   N845    1.028   .     S
H773   N846    1.028   .     S
H778   N847    1.029   .     S
H782   N848    1.029   .     S
H787   N830    1.030   .     S
H791   N831    1.030   .     S
H795   N832    1.026   .     S
H800   N833    1.029   .     S
H804   N834    1.028   .     S
H809   N835    1.027   .     S
H813   N836    1.029   .     S
H817   N837    1.030   .     S
H822   N838    1.031   .     S
H826   N839    1.029   .     S
O852   Cu292   1.995   1_565 S
O853   Cu292   1.967   1_565 S
O856   Cu291   1.969   1_565 S
O857   Cu506   2.003   1_655 S
O858   Cu505   1.995   1_655 S
O860   Cu506   1.967   1_655 S
O863   Cu505   1.969   1_655 S
O864   Cu291   2.003   1_565 S
C865   O1075   1.319   .     A
C865   O1065   1.322   .     A
C865   C894    1.487   .     S
C866   C902    1.550   .     S
C866   C1947   1.463   .     S
C866   N1261   1.398   .     S
C867   C218    1.463   1_455 S
C867   C1120   1.555   1_455 S
C867   N1056   1.403   .     S
C868   N1045   1.377   .     A
C868   C906    1.490   .     S
C868   C2016   1.419   1_455 S
C869   C908    1.505   .     S
C869   N1491   1.379   .     S
C870   C911    1.552   .     S
C870   C1735   1.466   .     S
C870   N1058   1.401   .     S
C871   C913    1.554   .     S
C871   N1059   1.399   .     A
C872   N1490   1.375   .     A
C872   C915    1.488   .     S
C872   C1733   1.417   .     S
C873   N1060   1.427   .     S
C873   C884    1.398   .     A
C873   C892    1.410   .     A
C874   C891    1.414   .     A
C874   C885    1.410   .     A
C874   N1061   1.430   .     S
C875   C882    1.397   .     A
C875   C891    1.405   .     A
C875   N1062   1.433   .     S
C876   C893    1.486   .     S
C876   O1073   1.324   .     A
C876   O1074   1.317   .     A
C877   C892    1.413   .     A
C877   C883    1.409   .     A
C877   N1063   1.419   .     S
C878   C894    1.413   .     A
C878   N1064   1.420   .     S
C878   C889    1.404   .     A
C879   C893    1.408   .     A
C879   C890    1.400   .     A
C879   N1046   1.413   .     S
C880   N1047   1.428   .     S
C880   C893    1.415   .     A
C880   C886    1.406   .     A
C881   C894    1.409   .     A
C881   C888    1.406   .     A
C881   N1048   1.422   .     S
C882   C896    1.410   .     A
C882   N1049   1.427   .     S
C883   C895    1.414   .     A
C883   N1050   1.430   .     S
C884   N1051   1.433   .     S
C884   C895    1.406   .     A
C885   C896    1.414   .     A
C885   N1052   1.419   .     S
C886   C899    1.415   .     A
C886   N1053   1.421   .     S
C887   O1079   1.316   .     A
C887   O1076   1.317   .     A
C887   C892    1.474   .     S
C888   C897    1.417   .     A
C888   N1054   1.422   .     S
C889   N1055   1.428   .     S
C889   C897    1.415   .     A
C890   N1057   1.420   .     S
C890   C899    1.410   .     A
C891   C898    1.473   .     S
C895   C935    1.471   .     S
C896   C931    1.475   .     S
C897   C920    1.488   .     S
C898   O1078   1.321   .     A
C898   O1077   1.314   .     A
C899   C909    1.487   .     S
C900   C901    1.524   .     S
C900   H990    1.113   .     S
C900   H979    1.097   .     S
C900   C936    1.507   .     S
C901   H968    1.104   .     S
C901   H957    1.107   .     S
C901   H941    1.104   .     S
C902   H1034   1.069   .     S
C902   H942    1.099   .     S
C902   C1119   1.531   .     S
C903   H1001   1.104   .     S
C903   H1012   1.107   .     S
C903   H1023   1.112   .     S
C903   C1118   1.531   1_455 S
C904   H952    1.085   .     S
C904   C1083   1.555   .     S
C904   C1121   1.522   .     S
C904   H1167   1.111   .     S
C905   H948    1.110   .     S
C905   H949    1.101   .     S
C905   H950    1.085   .     S
C905   C1120   1.522   1_455 S
C906   C907    1.516   .     S
C906   H958    1.101   .     S
C906   H956    1.094   .     S
C907   H953    1.106   .     S
C907   H954    1.100   .     S
C907   H955    1.108   .     S
C908   H963    1.112   .     S
C908   H962    1.095   .     S
C908   C910    1.525   .     S
C909   O1068   1.319   .     A
C909   O1080   1.323   .     A
C910   H959    1.104   .     S
C910   H960    1.106   .     S
C910   H961    1.106   .     S
C911   H969    1.098   .     S
C911   H967    1.069   .     S
C911   C912    1.529   .     S
C912   H964    1.103   .     S
C912   H966    1.112   .     S
C912   H965    1.108   .     S
C913   H973    1.112   .     S
C913   C914    1.531   .     S
C913   H974    1.079   .     S
C914   H972    1.091   .     S
C914   H971    1.095   .     S
C914   H970    1.112   .     S
C915   H978    1.095   .     S
C915   C916    1.517   .     S
C915   H980    1.102   .     S
C916   H977    1.108   .     S
C916   H976    1.101   .     S
C916   H975    1.106   .     S
C917   H984    1.104   .     S
C917   H982    1.112   .     S
C917   H983    1.106   .     S
C917   N1060   1.444   .     S
C918   H987    1.112   .     S
C918   N1061   1.448   .     S
C918   H986    1.110   .     S
C918   H988    1.109   .     S
C919   N1062   1.449   .     S
C919   H993    1.109   .     S
C919   H991    1.111   .     S
C919   H992    1.111   .     S
C920   O1067   1.321   .     A
C920   O1066   1.321   .     A
C921   H996    1.108   .     S
C921   H997    1.113   .     S
C921   H995    1.111   .     S
C921   N1063   1.456   .     S
C922   N1064   1.447   .     S
C922   H1002   1.112   .     S
C922   H999    1.112   .     S
C922   H1000   1.110   .     S
C923   H1006   1.107   .     S
C923   N1046   1.452   .     S
C923   H1004   1.109   .     S
C923   H1005   1.111   .     S
C924   H1010   1.105   .     S
C924   H1008   1.112   .     S
C924   N1047   1.446   .     S
C924   H1009   1.111   .     S
C925   H1014   1.111   .     S
C925   H1015   1.103   .     S
C925   N1048   1.450   .     S
C925   H1013   1.101   .     S
C926   H1019   1.105   .     S
C926   H1018   1.108   .     S
C926   N1049   1.445   .     S
C926   H1017   1.112   .     S
C927   H1024   1.109   .     S
C927   N1050   1.448   .     S
C927   H1021   1.110   .     S
C927   H1022   1.112   .     S
C928   H1028   1.109   .     S
C928   H1027   1.110   .     S
C928   H1026   1.111   .     S
C928   N1051   1.449   .     S
C929   H1032   1.112   .     S
C929   N1052   1.457   .     S
C929   H1030   1.111   .     S
C929   H1031   1.108   .     S
C930   H1036   1.110   .     S
C930   N1053   1.448   .     S
C930   H1035   1.112   .     S
C930   H1037   1.112   .     S
C931   O1069   1.318   .     A
C931   O1072   1.316   .     A
C932   H1041   1.110   .     S
C932   H1040   1.110   .     S
C932   H1039   1.104   .     S
C932   N1054   1.460   .     S
C933   N1055   1.447   .     S
C933   H1044   1.111   .     S
C933   H943    1.106   .     S
C933   H1043   1.112   .     S
C934   H945    1.102   .     S
C934   H947    1.106   .     S
C934   N1057   1.451   .     S
C934   H946    1.111   .     S
C935   O1070   1.315   .     A
C935   O1071   1.319   .     A
C936   N1272   1.379   .     A
Cu937  N1045   2.065   .     S
Cu937  O1065   2.003   .     S
Cu937  O1077   1.967   .     S
Cu937  Cu938   2.748   .     S
Cu937  O1290   1.995   1_455 S
Cu937  O1295   1.969   1_455 S
Cu938  O1289   2.003   1_455 S
Cu938  O1292   1.967   1_455 S
Cu938  N1056   2.065   .     S
Cu938  O1075   1.995   .     S
Cu938  O1078   1.969   .     S
Cu939  O1067   1.995   .     S
Cu939  Cu940   2.748   .     S
Cu939  O1070   1.967   .     S
Cu939  N1058   2.065   .     S
Cu939  O1504   1.969   1_545 S
Cu939  O1512   2.003   1_545 S
Cu940  O1066   2.003   .     S
Cu940  O1071   1.969   .     S
Cu940  N1059   2.065   .     S
Cu940  O1500   1.995   1_545 S
Cu940  O1501   1.967   1_545 S
H944   N1057   1.029   .     S
H951   C1120   1.111   1_455 S
H981   N1060   1.028   .     S
H985   N1061   1.028   .     S
H989   N1062   1.028   .     S
H994   N1063   1.029   .     S
H998   N1064   1.029   .     S
H1003  N1046   1.030   .     S
H1007  N1047   1.030   .     S
H1011  N1048   1.026   .     S
H1016  N1049   1.029   .     S
H1020  N1050   1.028   .     S
H1025  N1051   1.027   .     S
H1029  N1052   1.029   .     S
H1033  N1053   1.030   .     S
H1038  N1054   1.031   .     S
H1042  N1055   1.029   .     S
N1045  C1082   1.398   1_455 S
N1056  C1152   1.379   1_455 A
N1058  C1304   1.375   1_545 A
N1059  C1301   1.379   1_545 S
O1068  Cu1372  1.995   .     S
O1069  Cu1372  1.967   .     S
O1072  Cu1371  1.969   .     S
O1073  Cu1154  2.003   .     S
O1074  Cu1153  1.995   .     S
O1076  Cu1154  1.967   .     S
O1079  Cu1153  1.969   .     S
O1080  Cu1371  2.003   .     S
C1081  O1291   1.319   .     A
C1081  O1281   1.322   .     A
C1081  C1110   1.487   .     S
C1082  C1118   1.550   .     S
C1082  C1731   1.463   1_655 S
C1082  N1045   1.398   1_655 S
C1083  N1272   1.403   .     S
C1084  N1261   1.377   .     A
C1084  C1122   1.490   .     S
C1084  C1800   1.419   .     S
C1085  C1124   1.505   .     S
C1085  N1707   1.379   .     S
C1086  C1127   1.552   .     S
C1086  C1951   1.466   .     S
C1086  N1274   1.401   .     S
C1087  C1129   1.554   .     S
C1087  N1275   1.399   .     A
C1088  N1706   1.375   .     A
C1088  C1131   1.488   .     S
C1088  C1949   1.417   .     S
C1089  N1276   1.427   .     S
C1089  C1100   1.398   .     A
C1089  C1108   1.410   .     A
C1090  C1107   1.414   .     A
C1090  C1101   1.410   .     A
C1090  N1277   1.430   .     S
C1091  C1098   1.397   .     A
C1091  C1107   1.405   .     A
C1091  N1278   1.433   .     S
C1092  C1109   1.486   .     S
C1092  O1289   1.324   .     A
C1092  O1290   1.317   .     A
C1093  C1108   1.413   .     A
C1093  C1099   1.409   .     A
C1093  N1279   1.419   .     S
C1094  C1110   1.413   .     A
C1094  N1280   1.420   .     S
C1094  C1105   1.404   .     A
C1095  C1109   1.408   .     A
C1095  C1106   1.400   .     A
C1095  N1262   1.413   .     S
C1096  N1263   1.428   .     S
C1096  C1109   1.415   .     A
C1096  C1102   1.406   .     A
C1097  C1110   1.409   .     A
C1097  C1104   1.406   .     A
C1097  N1264   1.422   .     S
C1098  C1112   1.410   .     A
C1098  N1265   1.427   .     S
C1099  C1111   1.414   .     A
C1099  N1266   1.430   .     S
C1100  N1267   1.433   .     S
C1100  C1111   1.406   .     A
C1101  C1112   1.414   .     A
C1101  N1268   1.419   .     S
C1102  C1115   1.415   .     A
C1102  N1269   1.421   .     S
C1103  O1295   1.316   .     A
C1103  O1292   1.317   .     A
C1103  C1108   1.474   .     S
C1104  C1113   1.417   .     A
C1104  N1270   1.422   .     S
C1105  N1271   1.428   .     S
C1105  C1113   1.415   .     A
C1106  N1273   1.420   .     S
C1106  C1115   1.410   .     A
C1107  C1114   1.473   .     S
C1111  C1151   1.471   .     S
C1112  C1147   1.475   .     S
C1113  C1136   1.488   .     S
C1114  O1294   1.321   .     A
C1114  O1293   1.314   .     A
C1115  C1125   1.487   .     S
C1116  C1117   1.524   .     S
C1116  H1206   1.113   .     S
C1116  H1195   1.097   .     S
C1116  C1152   1.507   .     S
C1117  H1184   1.104   .     S
C1117  H1173   1.107   .     S
C1117  H1157   1.104   .     S
C1118  H1250   1.069   .     S
C1118  H1158   1.099   .     S
C1118  C903    1.531   1_655 S
C1119  H1217   1.104   .     S
C1119  H1228   1.107   .     S
C1119  H1239   1.112   .     S
C1120  H1168   1.085   .     S
C1120  C867    1.555   1_655 S
C1120  C905    1.522   1_655 S
C1120  H951    1.111   1_655 S
C1121  H1164   1.110   .     S
C1121  H1165   1.101   .     S
C1121  H1166   1.085   .     S
C1122  C1123   1.516   .     S
C1122  H1174   1.101   .     S
C1122  H1172   1.094   .     S
C1123  H1169   1.106   .     S
C1123  H1170   1.100   .     S
C1123  H1171   1.108   .     S
C1124  H1179   1.112   .     S
C1124  H1178   1.095   .     S
C1124  C1126   1.525   .     S
C1125  O1284   1.319   .     A
C1125  O1296   1.323   .     A
C1126  H1175   1.104   .     S
C1126  H1176   1.106   .     S
C1126  H1177   1.106   .     S
C1127  H1185   1.098   .     S
C1127  H1183   1.069   .     S
C1127  C1128   1.529   .     S
C1128  H1180   1.103   .     S
C1128  H1182   1.112   .     S
C1128  H1181   1.108   .     S
C1129  H1189   1.112   .     S
C1129  C1130   1.531   .     S
C1129  H1190   1.079   .     S
C1130  H1188   1.091   .     S
C1130  H1187   1.095   .     S
C1130  H1186   1.112   .     S
C1131  H1194   1.095   .     S
C1131  C1132   1.517   .     S
C1131  H1196   1.102   .     S
C1132  H1193   1.108   .     S
C1132  H1192   1.101   .     S
C1132  H1191   1.106   .     S
C1133  H1200   1.104   .     S
C1133  H1198   1.112   .     S
C1133  H1199   1.106   .     S
C1133  N1276   1.444   .     S
C1134  H1203   1.112   .     S
C1134  N1277   1.448   .     S
C1134  H1202   1.110   .     S
C1134  H1204   1.109   .     S
C1135  N1278   1.449   .     S
C1135  H1209   1.109   .     S
C1135  H1207   1.111   .     S
C1135  H1208   1.111   .     S
C1136  O1283   1.321   .     A
C1136  O1282   1.321   .     A
C1137  H1212   1.108   .     S
C1137  H1213   1.113   .     S
C1137  H1211   1.111   .     S
C1137  N1279   1.456   .     S
C1138  N1280   1.447   .     S
C1138  H1218   1.112   .     S
C1138  H1215   1.112   .     S
C1138  H1216   1.110   .     S
C1139  H1222   1.107   .     S
C1139  N1262   1.452   .     S
C1139  H1220   1.109   .     S
C1139  H1221   1.111   .     S
C1140  H1226   1.105   .     S
C1140  H1224   1.112   .     S
C1140  N1263   1.446   .     S
C1140  H1225   1.111   .     S
C1141  H1230   1.111   .     S
C1141  H1231   1.103   .     S
C1141  N1264   1.450   .     S
C1141  H1229   1.101   .     S
C1142  H1235   1.105   .     S
C1142  H1234   1.108   .     S
C1142  N1265   1.445   .     S
C1142  H1233   1.112   .     S
C1143  H1240   1.109   .     S
C1143  N1266   1.448   .     S
C1143  H1237   1.110   .     S
C1143  H1238   1.112   .     S
C1144  H1244   1.109   .     S
C1144  H1243   1.110   .     S
C1144  H1242   1.111   .     S
C1144  N1267   1.449   .     S
C1145  H1248   1.112   .     S
C1145  N1268   1.457   .     S
C1145  H1246   1.111   .     S
C1145  H1247   1.108   .     S
C1146  H1252   1.110   .     S
C1146  N1269   1.448   .     S
C1146  H1251   1.112   .     S
C1146  H1253   1.112   .     S
C1147  O1285   1.318   .     A
C1147  O1288   1.316   .     A
C1148  H1257   1.110   .     S
C1148  H1256   1.110   .     S
C1148  H1255   1.104   .     S
C1148  N1270   1.460   .     S
C1149  N1271   1.447   .     S
C1149  H1260   1.111   .     S
C1149  H1159   1.106   .     S
C1149  H1259   1.112   .     S
C1150  H1161   1.102   .     S
C1150  H1163   1.106   .     S
C1150  N1273   1.451   .     S
C1150  H1162   1.111   .     S
C1151  O1286   1.315   .     A
C1151  O1287   1.319   .     A
C1152  N1056   1.379   1_655 A
C1152  C4      1.419   1_655 S
Cu1153 N1261   2.065   .     S
Cu1153 O1281   2.003   .     S
Cu1153 O1293   1.967   .     S
Cu1153 Cu1154  2.748   .     S
Cu1154 N1272   2.065   .     S
Cu1154 O1291   1.995   .     S
Cu1154 O1294   1.969   .     S
Cu1155 O1283   1.995   .     S
Cu1155 Cu1156  2.748   .     S
Cu1155 O1286   1.967   .     S
Cu1155 N1274   2.065   .     S
Cu1155 O1720   1.969   1_545 S
Cu1155 O1728   2.003   1_545 S
Cu1156 O1282   2.003   .     S
Cu1156 O1287   1.969   .     S
Cu1156 N1275   2.065   .     S
Cu1156 O1716   1.995   1_545 S
Cu1156 O1717   1.967   1_545 S
H1160  N1273   1.029   .     S
H1197  N1276   1.028   .     S
H1201  N1277   1.028   .     S
H1205  N1278   1.028   .     S
H1210  N1279   1.029   .     S
H1214  N1280   1.029   .     S
H1219  N1262   1.030   .     S
H1223  N1263   1.030   .     S
H1227  N1264   1.026   .     S
H1232  N1265   1.029   .     S
H1236  N1266   1.028   .     S
H1241  N1267   1.027   .     S
H1245  N1268   1.029   .     S
H1249  N1269   1.030   .     S
H1254  N1270   1.031   .     S
H1258  N1271   1.029   .     S
N1274  C1520   1.375   1_545 A
N1275  C1517   1.379   1_545 S
O1284  Cu1588  1.995   .     S
O1285  Cu1588  1.967   .     S
O1288  Cu1587  1.969   .     S
O1289  Cu938   2.003   1_655 S
O1290  Cu937   1.995   1_655 S
O1292  Cu938   1.967   1_655 S
O1295  Cu937   1.969   1_655 S
O1296  Cu1587  2.003   .     S
C1297  O1507   1.319   .     A
C1297  O1497   1.322   .     A
C1297  C1326   1.487   .     S
C1298  C1334   1.550   .     S
C1298  C2379   1.463   .     S
C1298  N1693   1.398   .     S
C1299  C650    1.463   1_455 S
C1299  C1552   1.555   1_455 S
C1299  N1488   1.403   .     S
C1300  N1477   1.377   .     A
C1300  C1338   1.490   .     S
C1300  C2448   1.419   1_455 S
C1301  C1340   1.505   .     S
C1301  N1059   1.379   1_565 S
C1302  C1343   1.552   .     S
C1302  C2167   1.466   .     S
C1302  N1490   1.401   .     S
C1303  C1345   1.554   .     S
C1303  N1491   1.399   .     A
C1304  N1058   1.375   1_565 A
C1304  C1347   1.488   .     S
C1304  C2165   1.417   .     S
C1305  N1492   1.427   .     S
C1305  C1316   1.398   .     A
C1305  C1324   1.410   .     A
C1306  C1323   1.414   .     A
C1306  C1317   1.410   .     A
C1306  N1493   1.430   .     S
C1307  C1314   1.397   .     A
C1307  C1323   1.405   .     A
C1307  N1494   1.433   .     S
C1308  C1325   1.486   .     S
C1308  O1505   1.324   .     A
C1308  O1506   1.317   .     A
C1309  C1324   1.413   .     A
C1309  C1315   1.409   .     A
C1309  N1495   1.419   .     S
C1310  C1326   1.413   .     A
C1310  N1496   1.420   .     S
C1310  C1321   1.404   .     A
C1311  C1325   1.408   .     A
C1311  C1322   1.400   .     A
C1311  N1478   1.413   .     S
C1312  N1479   1.428   .     S
C1312  C1325   1.415   .     A
C1312  C1318   1.406   .     A
C1313  C1326   1.409   .     A
C1313  C1320   1.406   .     A
C1313  N1480   1.422   .     S
C1314  C1328   1.410   .     A
C1314  N1481   1.427   .     S
C1315  C1327   1.414   .     A
C1315  N1482   1.430   .     S
C1316  N1483   1.433   .     S
C1316  C1327   1.406   .     A
C1317  C1328   1.414   .     A
C1317  N1484   1.419   .     S
C1318  C1331   1.415   .     A
C1318  N1485   1.421   .     S
C1319  O1511   1.316   .     A
C1319  O1508   1.317   .     A
C1319  C1324   1.474   .     S
C1320  C1329   1.417   .     A
C1320  N1486   1.422   .     S
C1321  N1487   1.428   .     S
C1321  C1329   1.415   .     A
C1322  N1489   1.420   .     S
C1322  C1331   1.410   .     A
C1323  C1330   1.473   .     S
C1327  C1367   1.471   .     S
C1328  C1363   1.475   .     S
C1329  C1352   1.488   .     S
C1330  O1510   1.321   .     A
C1330  O1509   1.314   .     A
C1331  C1341   1.487   .     S
C1332  C1333   1.524   .     S
C1332  H1422   1.113   .     S
C1332  H1411   1.097   .     S
C1332  C1368   1.507   .     S
C1333  H1400   1.104   .     S
C1333  H1389   1.107   .     S
C1333  H1373   1.104   .     S
C1334  H1466   1.069   .     S
C1334  H1374   1.099   .     S
C1334  C1551   1.531   .     S
C1335  H1433   1.104   .     S
C1335  H1444   1.107   .     S
C1335  H1455   1.112   .     S
C1335  C1550   1.531   1_455 S
C1336  H1384   1.085   .     S
C1336  C1515   1.555   .     S
C1336  C1553   1.522   .     S
C1336  H1599   1.111   .     S
C1337  H1380   1.110   .     S
C1337  H1381   1.101   .     S
C1337  H1382   1.085   .     S
C1337  C1552   1.522   1_455 S
C1338  C1339   1.516   .     S
C1338  H1390   1.101   .     S
C1338  H1388   1.094   .     S
C1339  H1385   1.106   .     S
C1339  H1386   1.100   .     S
C1339  H1387   1.108   .     S
C1340  H1395   1.112   .     S
C1340  H1394   1.095   .     S
C1340  C1342   1.525   .     S
C1341  O1500   1.319   .     A
C1341  O1512   1.323   .     A
C1342  H1391   1.104   .     S
C1342  H1392   1.106   .     S
C1342  H1393   1.106   .     S
C1343  H1401   1.098   .     S
C1343  H1399   1.069   .     S
C1343  C1344   1.529   .     S
C1344  H1396   1.103   .     S
C1344  H1398   1.112   .     S
C1344  H1397   1.108   .     S
C1345  H1405   1.112   .     S
C1345  C1346   1.531   .     S
C1345  H1406   1.079   .     S
C1346  H1404   1.091   .     S
C1346  H1403   1.095   .     S
C1346  H1402   1.112   .     S
C1347  H1410   1.095   .     S
C1347  C1348   1.517   .     S
C1347  H1412   1.102   .     S
C1348  H1409   1.108   .     S
C1348  H1408   1.101   .     S
C1348  H1407   1.106   .     S
C1349  H1416   1.104   .     S
C1349  H1414   1.112   .     S
C1349  H1415   1.106   .     S
C1349  N1492   1.444   .     S
C1350  H1419   1.112   .     S
C1350  N1493   1.448   .     S
C1350  H1418   1.110   .     S
C1350  H1420   1.109   .     S
C1351  N1494   1.449   .     S
C1351  H1425   1.109   .     S
C1351  H1423   1.111   .     S
C1351  H1424   1.111   .     S
C1352  O1499   1.321   .     A
C1352  O1498   1.321   .     A
C1353  H1428   1.108   .     S
C1353  H1429   1.113   .     S
C1353  H1427   1.111   .     S
C1353  N1495   1.456   .     S
C1354  N1496   1.447   .     S
C1354  H1434   1.112   .     S
C1354  H1431   1.112   .     S
C1354  H1432   1.110   .     S
C1355  H1438   1.107   .     S
C1355  N1478   1.452   .     S
C1355  H1436   1.109   .     S
C1355  H1437   1.111   .     S
C1356  H1442   1.105   .     S
C1356  H1440   1.112   .     S
C1356  N1479   1.446   .     S
C1356  H1441   1.111   .     S
C1357  H1446   1.111   .     S
C1357  H1447   1.103   .     S
C1357  N1480   1.450   .     S
C1357  H1445   1.101   .     S
C1358  H1451   1.105   .     S
C1358  H1450   1.108   .     S
C1358  N1481   1.445   .     S
C1358  H1449   1.112   .     S
C1359  H1456   1.109   .     S
C1359  N1482   1.448   .     S
C1359  H1453   1.110   .     S
C1359  H1454   1.112   .     S
C1360  H1460   1.109   .     S
C1360  H1459   1.110   .     S
C1360  H1458   1.111   .     S
C1360  N1483   1.449   .     S
C1361  H1464   1.112   .     S
C1361  N1484   1.457   .     S
C1361  H1462   1.111   .     S
C1361  H1463   1.108   .     S
C1362  H1468   1.110   .     S
C1362  N1485   1.448   .     S
C1362  H1467   1.112   .     S
C1362  H1469   1.112   .     S
C1363  O1501   1.318   .     A
C1363  O1504   1.316   .     A
C1364  H1473   1.110   .     S
C1364  H1472   1.110   .     S
C1364  H1471   1.104   .     S
C1364  N1486   1.460   .     S
C1365  N1487   1.447   .     S
C1365  H1476   1.111   .     S
C1365  H1375   1.106   .     S
C1365  H1475   1.112   .     S
C1366  H1377   1.102   .     S
C1366  H1379   1.106   .     S
C1366  N1489   1.451   .     S
C1366  H1378   1.111   .     S
C1367  O1502   1.315   .     A
C1367  O1503   1.319   .     A
C1368  N1704   1.379   .     A
Cu1369 N1477   2.065   .     S
Cu1369 O1497   2.003   .     S
Cu1369 O1509   1.967   .     S
Cu1369 Cu1370  2.748   .     S
Cu1369 O1722   1.995   1_455 S
Cu1369 O1727   1.969   1_455 S
Cu1370 O1721   2.003   1_455 S
Cu1370 O1724   1.967   1_455 S
Cu1370 N1488   2.065   .     S
Cu1370 O1507   1.995   .     S
Cu1370 O1510   1.969   .     S
Cu1371 O1499   1.995   .     S
Cu1371 Cu1372  2.748   .     S
Cu1371 O1502   1.967   .     S
Cu1371 N1490   2.065   .     S
Cu1372 O1498   2.003   .     S
Cu1372 O1503   1.969   .     S
Cu1372 N1491   2.065   .     S
H1376  N1489   1.029   .     S
H1383  C1552   1.111   1_455 S
H1413  N1492   1.028   .     S
H1417  N1493   1.028   .     S
H1421  N1494   1.028   .     S
H1426  N1495   1.029   .     S
H1430  N1496   1.029   .     S
H1435  N1478   1.030   .     S
H1439  N1479   1.030   .     S
H1443  N1480   1.026   .     S
H1448  N1481   1.029   .     S
H1452  N1482   1.028   .     S
H1457  N1483   1.027   .     S
H1461  N1484   1.029   .     S
H1465  N1485   1.030   .     S
H1470  N1486   1.031   .     S
H1474  N1487   1.029   .     S
N1477  C1514   1.398   1_455 S
N1488  C1584   1.379   1_455 A
O1500  Cu940   1.995   1_565 S
O1501  Cu940   1.967   1_565 S
O1504  Cu939   1.969   1_565 S
O1505  Cu1586  2.003   .     S
O1506  Cu1585  1.995   .     S
O1508  Cu1586  1.967   .     S
O1511  Cu1585  1.969   .     S
O1512  Cu939   2.003   1_565 S
C1513  O1723   1.319   .     A
C1513  O1713   1.322   .     A
C1513  C1542   1.487   .     S
C1514  C1550   1.550   .     S
C1514  C2163   1.463   1_655 S
C1514  N1477   1.398   1_655 S
C1515  N1704   1.403   .     S
C1516  N1693   1.377   .     A
C1516  C1554   1.490   .     S
C1516  C2232   1.419   .     S
C1517  C1556   1.505   .     S
C1517  N1275   1.379   1_565 S
C1518  C1559   1.552   .     S
C1518  C2383   1.466   .     S
C1518  N1706   1.401   .     S
C1519  C1561   1.554   .     S
C1519  N1707   1.399   .     A
C1520  N1274   1.375   1_565 A
C1520  C1563   1.488   .     S
C1520  C2381   1.417   .     S
C1521  N1708   1.427   .     S
C1521  C1532   1.398   .     A
C1521  C1540   1.410   .     A
C1522  C1539   1.414   .     A
C1522  C1533   1.410   .     A
C1522  N1709   1.430   .     S
C1523  C1530   1.397   .     A
C1523  C1539   1.405   .     A
C1523  N1710   1.433   .     S
C1524  C1541   1.486   .     S
C1524  O1721   1.324   .     A
C1524  O1722   1.317   .     A
C1525  C1540   1.413   .     A
C1525  C1531   1.409   .     A
C1525  N1711   1.419   .     S
C1526  C1542   1.413   .     A
C1526  N1712   1.420   .     S
C1526  C1537   1.404   .     A
C1527  C1541   1.408   .     A
C1527  C1538   1.400   .     A
C1527  N1694   1.413   .     S
C1528  N1695   1.428   .     S
C1528  C1541   1.415   .     A
C1528  C1534   1.406   .     A
C1529  C1542   1.409   .     A
C1529  C1536   1.406   .     A
C1529  N1696   1.422   .     S
C1530  C1544   1.410   .     A
C1530  N1697   1.427   .     S
C1531  C1543   1.414   .     A
C1531  N1698   1.430   .     S
C1532  N1699   1.433   .     S
C1532  C1543   1.406   .     A
C1533  C1544   1.414   .     A
C1533  N1700   1.419   .     S
C1534  C1547   1.415   .     A
C1534  N1701   1.421   .     S
C1535  O1727   1.316   .     A
C1535  O1724   1.317   .     A
C1535  C1540   1.474   .     S
C1536  C1545   1.417   .     A
C1536  N1702   1.422   .     S
C1537  N1703   1.428   .     S
C1537  C1545   1.415   .     A
C1538  N1705   1.420   .     S
C1538  C1547   1.410   .     A
C1539  C1546   1.473   .     S
C1543  C1583   1.471   .     S
C1544  C1579   1.475   .     S
C1545  C1568   1.488   .     S
C1546  O1726   1.321   .     A
C1546  O1725   1.314   .     A
C1547  C1557   1.487   .     S
C1548  C1549   1.524   .     S
C1548  H1638   1.113   .     S
C1548  H1627   1.097   .     S
C1548  C1584   1.507   .     S
C1549  H1616   1.104   .     S
C1549  H1605   1.107   .     S
C1549  H1589   1.104   .     S
C1550  H1682   1.069   .     S
C1550  H1590   1.099   .     S
C1550  C1335   1.531   1_655 S
C1551  H1649   1.104   .     S
C1551  H1660   1.107   .     S
C1551  H1671   1.112   .     S
C1552  H1600   1.085   .     S
C1552  C1299   1.555   1_655 S
C1552  C1337   1.522   1_655 S
C1552  H1383   1.111   1_655 S
C1553  H1596   1.110   .     S
C1553  H1597   1.101   .     S
C1553  H1598   1.085   .     S
C1554  C1555   1.516   .     S
C1554  H1606   1.101   .     S
C1554  H1604   1.094   .     S
C1555  H1601   1.106   .     S
C1555  H1602   1.100   .     S
C1555  H1603   1.108   .     S
C1556  H1611   1.112   .     S
C1556  H1610   1.095   .     S
C1556  C1558   1.525   .     S
C1557  O1716   1.319   .     A
C1557  O1728   1.323   .     A
C1558  H1607   1.104   .     S
C1558  H1608   1.106   .     S
C1558  H1609   1.106   .     S
C1559  H1617   1.098   .     S
C1559  H1615   1.069   .     S
C1559  C1560   1.529   .     S
C1560  H1612   1.103   .     S
C1560  H1614   1.112   .     S
C1560  H1613   1.108   .     S
C1561  H1621   1.112   .     S
C1561  C1562   1.531   .     S
C1561  H1622   1.079   .     S
C1562  H1620   1.091   .     S
C1562  H1619   1.095   .     S
C1562  H1618   1.112   .     S
C1563  H1626   1.095   .     S
C1563  C1564   1.517   .     S
C1563  H1628   1.102   .     S
C1564  H1625   1.108   .     S
C1564  H1624   1.101   .     S
C1564  H1623   1.106   .     S
C1565  H1632   1.104   .     S
C1565  H1630   1.112   .     S
C1565  H1631   1.106   .     S
C1565  N1708   1.444   .     S
C1566  H1635   1.112   .     S
C1566  N1709   1.448   .     S
C1566  H1634   1.110   .     S
C1566  H1636   1.109   .     S
C1567  N1710   1.449   .     S
C1567  H1641   1.109   .     S
C1567  H1639   1.111   .     S
C1567  H1640   1.111   .     S
C1568  O1715   1.321   .     A
C1568  O1714   1.321   .     A
C1569  H1644   1.108   .     S
C1569  H1645   1.113   .     S
C1569  H1643   1.111   .     S
C1569  N1711   1.456   .     S
C1570  N1712   1.447   .     S
C1570  H1650   1.112   .     S
C1570  H1647   1.112   .     S
C1570  H1648   1.110   .     S
C1571  H1654   1.107   .     S
C1571  N1694   1.452   .     S
C1571  H1652   1.109   .     S
C1571  H1653   1.111   .     S
C1572  H1658   1.105   .     S
C1572  H1656   1.112   .     S
C1572  N1695   1.446   .     S
C1572  H1657   1.111   .     S
C1573  H1662   1.111   .     S
C1573  H1663   1.103   .     S
C1573  N1696   1.450   .     S
C1573  H1661   1.101   .     S
C1574  H1667   1.105   .     S
C1574  H1666   1.108   .     S
C1574  N1697   1.445   .     S
C1574  H1665   1.112   .     S
C1575  H1672   1.109   .     S
C1575  N1698   1.448   .     S
C1575  H1669   1.110   .     S
C1575  H1670   1.112   .     S
C1576  H1676   1.109   .     S
C1576  H1675   1.110   .     S
C1576  H1674   1.111   .     S
C1576  N1699   1.449   .     S
C1577  H1680   1.112   .     S
C1577  N1700   1.457   .     S
C1577  H1678   1.111   .     S
C1577  H1679   1.108   .     S
C1578  H1684   1.110   .     S
C1578  N1701   1.448   .     S
C1578  H1683   1.112   .     S
C1578  H1685   1.112   .     S
C1579  O1717   1.318   .     A
C1579  O1720   1.316   .     A
C1580  H1689   1.110   .     S
C1580  H1688   1.110   .     S
C1580  H1687   1.104   .     S
C1580  N1702   1.460   .     S
C1581  N1703   1.447   .     S
C1581  H1692   1.111   .     S
C1581  H1591   1.106   .     S
C1581  H1691   1.112   .     S
C1582  H1593   1.102   .     S
C1582  H1595   1.106   .     S
C1582  N1705   1.451   .     S
C1582  H1594   1.111   .     S
C1583  O1718   1.315   .     A
C1583  O1719   1.319   .     A
C1584  N1488   1.379   1_655 A
C1584  C436    1.419   1_655 S
Cu1585 N1693   2.065   .     S
Cu1585 O1713   2.003   .     S
Cu1585 O1725   1.967   .     S
Cu1585 Cu1586  2.748   .     S
Cu1586 N1704   2.065   .     S
Cu1586 O1723   1.995   .     S
Cu1586 O1726   1.969   .     S
Cu1587 O1715   1.995   .     S
Cu1587 Cu1588  2.748   .     S
Cu1587 O1718   1.967   .     S
Cu1587 N1706   2.065   .     S
Cu1588 O1714   2.003   .     S
Cu1588 O1719   1.969   .     S
Cu1588 N1707   2.065   .     S
H1592  N1705   1.029   .     S
H1629  N1708   1.028   .     S
H1633  N1709   1.028   .     S
H1637  N1710   1.028   .     S
H1642  N1711   1.029   .     S
H1646  N1712   1.029   .     S
H1651  N1694   1.030   .     S
H1655  N1695   1.030   .     S
H1659  N1696   1.026   .     S
H1664  N1697   1.029   .     S
H1668  N1698   1.028   .     S
H1673  N1699   1.027   .     S
H1677  N1700   1.029   .     S
H1681  N1701   1.030   .     S
H1686  N1702   1.031   .     S
H1690  N1703   1.029   .     S
O1716  Cu1156  1.995   1_565 S
O1717  Cu1156  1.967   1_565 S
O1720  Cu1155  1.969   1_565 S
O1721  Cu1370  2.003   1_655 S
O1722  Cu1369  1.995   1_655 S
O1724  Cu1370  1.967   1_655 S
O1727  Cu1369  1.969   1_655 S
O1728  Cu1155  2.003   1_565 S
C1729  O1939   1.319   .     A
C1729  O1929   1.322   .     A
C1729  C1758   1.487   .     S
C1730  C1766   1.550   .     S
C1730  C219    1.463   1_556 S
C1730  N2125   1.398   .     S
C1731  C1082   1.463   1_455 S
C1731  C1984   1.555   1_455 S
C1731  N1920   1.403   .     S
C1732  N1909   1.377   .     A
C1732  C1770   1.490   .     S
C1732  C288    1.419   1_456 S
C1733  C1772   1.505   .     S
C1733  N2355   1.379   .     S
C1734  C1775   1.552   .     S
C1734  C7      1.466   1_556 S
C1734  N1922   1.401   .     S
C1735  C1777   1.554   .     S
C1735  N1923   1.399   .     A
C1736  N2354   1.375   .     A
C1736  C1779   1.488   .     S
C1736  C5      1.417   1_556 S
C1737  N1924   1.427   .     S
C1737  C1748   1.398   .     A
C1737  C1756   1.410   .     A
C1738  C1755   1.414   .     A
C1738  C1749   1.410   .     A
C1738  N1925   1.430   .     S
C1739  C1746   1.397   .     A
C1739  C1755   1.405   .     A
C1739  N1926   1.433   .     S
C1740  C1757   1.486   .     S
C1740  O1937   1.324   .     A
C1740  O1938   1.317   .     A
C1741  C1756   1.413   .     A
C1741  C1747   1.409   .     A
C1741  N1927   1.419   .     S
C1742  C1758   1.413   .     A
C1742  N1928   1.420   .     S
C1742  C1753   1.404   .     A
C1743  C1757   1.408   .     A
C1743  C1754   1.400   .     A
C1743  N1910   1.413   .     S
C1744  N1911   1.428   .     S
C1744  C1757   1.415   .     A
C1744  C1750   1.406   .     A
C1745  C1758   1.409   .     A
C1745  C1752   1.406   .     A
C1745  N1912   1.422   .     S
C1746  C1760   1.410   .     A
C1746  N1913   1.427   .     S
C1747  C1759   1.414   .     A
C1747  N1914   1.430   .     S
C1748  N1915   1.433   .     S
C1748  C1759   1.406   .     A
C1749  C1760   1.414   .     A
C1749  N1916   1.419   .     S
C1750  C1763   1.415   .     A
C1750  N1917   1.421   .     S
C1751  O1943   1.316   .     A
C1751  O1940   1.317   .     A
C1751  C1756   1.474   .     S
C1752  C1761   1.417   .     A
C1752  N1918   1.422   .     S
C1753  N1919   1.428   .     S
C1753  C1761   1.415   .     A
C1754  N1921   1.420   .     S
C1754  C1763   1.410   .     A
C1755  C1762   1.473   .     S
C1759  C1799   1.471   .     S
C1760  C1795   1.475   .     S
C1761  C1784   1.488   .     S
C1762  O1942   1.321   .     A
C1762  O1941   1.314   .     A
C1763  C1773   1.487   .     S
C1764  C1765   1.524   .     S
C1764  H1854   1.113   .     S
C1764  H1843   1.097   .     S
C1764  C1800   1.507   .     S
C1765  H1832   1.104   .     S
C1765  H1821   1.107   .     S
C1765  H1805   1.104   .     S
C1766  H1898   1.069   .     S
C1766  H1806   1.099   .     S
C1766  C1983   1.531   .     S
C1767  H1865   1.104   .     S
C1767  H1876   1.107   .     S
C1767  H1887   1.112   .     S
C1767  C1982   1.531   1_455 S
C1768  H1816   1.085   .     S
C1768  C1947   1.555   .     S
C1768  C1985   1.522   .     S
C1768  H2031   1.111   .     S
C1769  H1812   1.110   .     S
C1769  H1813   1.101   .     S
C1769  H1814   1.085   .     S
C1769  C1984   1.522   1_455 S
C1770  C1771   1.516   .     S
C1770  H1822   1.101   .     S
C1770  H1820   1.094   .     S
C1771  H1817   1.106   .     S
C1771  H1818   1.100   .     S
C1771  H1819   1.108   .     S
C1772  H1827   1.112   .     S
C1772  H1826   1.095   .     S
C1772  C1774   1.525   .     S
C1773  O1932   1.319   .     A
C1773  O1944   1.323   .     A
C1774  H1823   1.104   .     S
C1774  H1824   1.106   .     S
C1774  H1825   1.106   .     S
C1775  H1833   1.098   .     S
C1775  H1831   1.069   .     S
C1775  C1776   1.529   .     S
C1776  H1828   1.103   .     S
C1776  H1830   1.112   .     S
C1776  H1829   1.108   .     S
C1777  H1837   1.112   .     S
C1777  C1778   1.531   .     S
C1777  H1838   1.079   .     S
C1778  H1836   1.091   .     S
C1778  H1835   1.095   .     S
C1778  H1834   1.112   .     S
C1779  H1842   1.095   .     S
C1779  C1780   1.517   .     S
C1779  H1844   1.102   .     S
C1780  H1841   1.108   .     S
C1780  H1840   1.101   .     S
C1780  H1839   1.106   .     S
C1781  H1848   1.104   .     S
C1781  H1846   1.112   .     S
C1781  H1847   1.106   .     S
C1781  N1924   1.444   .     S
C1782  H1851   1.112   .     S
C1782  N1925   1.448   .     S
C1782  H1850   1.110   .     S
C1782  H1852   1.109   .     S
C1783  N1926   1.449   .     S
C1783  H1857   1.109   .     S
C1783  H1855   1.111   .     S
C1783  H1856   1.111   .     S
C1784  O1931   1.321   .     A
C1784  O1930   1.321   .     A
C1785  H1860   1.108   .     S
C1785  H1861   1.113   .     S
C1785  H1859   1.111   .     S
C1785  N1927   1.456   .     S
C1786  N1928   1.447   .     S
C1786  H1866   1.112   .     S
C1786  H1863   1.112   .     S
C1786  H1864   1.110   .     S
C1787  H1870   1.107   .     S
C1787  N1910   1.452   .     S
C1787  H1868   1.109   .     S
C1787  H1869   1.111   .     S
C1788  H1874   1.105   .     S
C1788  H1872   1.112   .     S
C1788  N1911   1.446   .     S
C1788  H1873   1.111   .     S
C1789  H1878   1.111   .     S
C1789  H1879   1.103   .     S
C1789  N1912   1.450   .     S
C1789  H1877   1.101   .     S
C1790  H1883   1.105   .     S
C1790  H1882   1.108   .     S
C1790  N1913   1.445   .     S
C1790  H1881   1.112   .     S
C1791  H1888   1.109   .     S
C1791  N1914   1.448   .     S
C1791  H1885   1.110   .     S
C1791  H1886   1.112   .     S
C1792  H1892   1.109   .     S
C1792  H1891   1.110   .     S
C1792  H1890   1.111   .     S
C1792  N1915   1.449   .     S
C1793  H1896   1.112   .     S
C1793  N1916   1.457   .     S
C1793  H1894   1.111   .     S
C1793  H1895   1.108   .     S
C1794  H1900   1.110   .     S
C1794  N1917   1.448   .     S
C1794  H1899   1.112   .     S
C1794  H1901   1.112   .     S
C1795  O1933   1.318   .     A
C1795  O1936   1.316   .     A
C1796  H1905   1.110   .     S
C1796  H1904   1.110   .     S
C1796  H1903   1.104   .     S
C1796  N1918   1.460   .     S
C1797  N1919   1.447   .     S
C1797  H1908   1.111   .     S
C1797  H1807   1.106   .     S
C1797  H1907   1.112   .     S
C1798  H1809   1.102   .     S
C1798  H1811   1.106   .     S
C1798  N1921   1.451   .     S
C1798  H1810   1.111   .     S
C1799  O1934   1.315   .     A
C1799  O1935   1.319   .     A
C1800  N2136   1.379   .     A
Cu1801 N1909   2.065   .     S
Cu1801 O1929   2.003   .     S
Cu1801 O1941   1.967   .     S
Cu1801 Cu1802  2.748   .     S
Cu1801 O2154   1.995   1_455 S
Cu1801 O2159   1.969   1_455 S
Cu1802 O2153   2.003   1_455 S
Cu1802 O2156   1.967   1_455 S
Cu1802 N1920   2.065   .     S
Cu1802 O1939   1.995   .     S
Cu1802 O1942   1.969   .     S
Cu1803 O1931   1.995   .     S
Cu1803 Cu1804  2.748   .     S
Cu1803 O1934   1.967   .     S
Cu1803 N1922   2.065   .     S
Cu1803 O2368   1.969   1_545 S
Cu1803 O2376   2.003   1_545 S
Cu1804 O1930   2.003   .     S
Cu1804 O1935   1.969   .     S
Cu1804 N1923   2.065   .     S
Cu1804 O2364   1.995   1_545 S
Cu1804 O2365   1.967   1_545 S
H1808  N1921   1.029   .     S
H1815  C1984   1.111   1_455 S
H1845  N1924   1.028   .     S
H1849  N1925   1.028   .     S
H1853  N1926   1.028   .     S
H1858  N1927   1.029   .     S
H1862  N1928   1.029   .     S
H1867  N1910   1.030   .     S
H1871  N1911   1.030   .     S
H1875  N1912   1.026   .     S
H1880  N1913   1.029   .     S
H1884  N1914   1.028   .     S
H1889  N1915   1.027   .     S
H1893  N1916   1.029   .     S
H1897  N1917   1.030   .     S
H1902  N1918   1.031   .     S
H1906  N1919   1.029   .     S
N1909  C1946   1.398   1_455 S
N1920  C2016   1.379   1_455 A
N1922  C2168   1.375   1_545 A
N1923  C2165   1.379   1_545 S
O1932  Cu2236  1.995   .     S
O1933  Cu2236  1.967   .     S
O1936  Cu2235  1.969   .     S
O1937  Cu2018  2.003   .     S
O1938  Cu2017  1.995   .     S
O1940  Cu2018  1.967   .     S
O1943  Cu2017  1.969   .     S
O1944  Cu2235  2.003   .     S
C1945  O2155   1.319   .     A
C1945  O2145   1.322   .     A
C1945  C1974   1.487   .     S
C1946  C1982   1.550   .     S
C1946  C3      1.463   1_656 S
C1946  N1909   1.398   1_655 S
C1947  N2136   1.403   .     S
C1948  N2125   1.377   .     A
C1948  C1986   1.490   .     S
C1948  C72     1.419   1_556 S
C1949  C1988   1.505   .     S
C1949  N2571   1.379   .     S
C1950  C1991   1.552   .     S
C1950  C223    1.466   1_556 S
C1950  N2138   1.401   .     S
C1951  C1993   1.554   .     S
C1951  N2139   1.399   .     A
C1952  N2570   1.375   .     A
C1952  C1995   1.488   .     S
C1952  C221    1.417   1_556 S
C1953  N2140   1.427   .     S
C1953  C1964   1.398   .     A
C1953  C1972   1.410   .     A
C1954  C1971   1.414   .     A
C1954  C1965   1.410   .     A
C1954  N2141   1.430   .     S
C1955  C1962   1.397   .     A
C1955  C1971   1.405   .     A
C1955  N2142   1.433   .     S
C1956  C1973   1.486   .     S
C1956  O2153   1.324   .     A
C1956  O2154   1.317   .     A
C1957  C1972   1.413   .     A
C1957  C1963   1.409   .     A
C1957  N2143   1.419   .     S
C1958  C1974   1.413   .     A
C1958  N2144   1.420   .     S
C1958  C1969   1.404   .     A
C1959  C1973   1.408   .     A
C1959  C1970   1.400   .     A
C1959  N2126   1.413   .     S
C1960  N2127   1.428   .     S
C1960  C1973   1.415   .     A
C1960  C1966   1.406   .     A
C1961  C1974   1.409   .     A
C1961  C1968   1.406   .     A
C1961  N2128   1.422   .     S
C1962  C1976   1.410   .     A
C1962  N2129   1.427   .     S
C1963  C1975   1.414   .     A
C1963  N2130   1.430   .     S
C1964  N2131   1.433   .     S
C1964  C1975   1.406   .     A
C1965  C1976   1.414   .     A
C1965  N2132   1.419   .     S
C1966  C1979   1.415   .     A
C1966  N2133   1.421   .     S
C1967  O2159   1.316   .     A
C1967  O2156   1.317   .     A
C1967  C1972   1.474   .     S
C1968  C1977   1.417   .     A
C1968  N2134   1.422   .     S
C1969  N2135   1.428   .     S
C1969  C1977   1.415   .     A
C1970  N2137   1.420   .     S
C1970  C1979   1.410   .     A
C1971  C1978   1.473   .     S
C1975  C2015   1.471   .     S
C1976  C2011   1.475   .     S
C1977  C2000   1.488   .     S
C1978  O2158   1.321   .     A
C1978  O2157   1.314   .     A
C1979  C1989   1.487   .     S
C1980  C1981   1.524   .     S
C1980  H2070   1.113   .     S
C1980  H2059   1.097   .     S
C1980  C2016   1.507   .     S
C1981  H2048   1.104   .     S
C1981  H2037   1.107   .     S
C1981  H2021   1.104   .     S
C1982  H2114   1.069   .     S
C1982  H2022   1.099   .     S
C1982  C1767   1.531   1_655 S
C1983  H2081   1.104   .     S
C1983  H2092   1.107   .     S
C1983  H2103   1.112   .     S
C1984  H2032   1.085   .     S
C1984  C1731   1.555   1_655 S
C1984  C1769   1.522   1_655 S
C1984  H1815   1.111   1_655 S
C1985  H2028   1.110   .     S
C1985  H2029   1.101   .     S
C1985  H2030   1.085   .     S
C1986  C1987   1.516   .     S
C1986  H2038   1.101   .     S
C1986  H2036   1.094   .     S
C1987  H2033   1.106   .     S
C1987  H2034   1.100   .     S
C1987  H2035   1.108   .     S
C1988  H2043   1.112   .     S
C1988  H2042   1.095   .     S
C1988  C1990   1.525   .     S
C1989  O2148   1.319   .     A
C1989  O2160   1.323   .     A
C1990  H2039   1.104   .     S
C1990  H2040   1.106   .     S
C1990  H2041   1.106   .     S
C1991  H2049   1.098   .     S
C1991  H2047   1.069   .     S
C1991  C1992   1.529   .     S
C1992  H2044   1.103   .     S
C1992  H2046   1.112   .     S
C1992  H2045   1.108   .     S
C1993  H2053   1.112   .     S
C1993  C1994   1.531   .     S
C1993  H2054   1.079   .     S
C1994  H2052   1.091   .     S
C1994  H2051   1.095   .     S
C1994  H2050   1.112   .     S
C1995  H2058   1.095   .     S
C1995  C1996   1.517   .     S
C1995  H2060   1.102   .     S
C1996  H2057   1.108   .     S
C1996  H2056   1.101   .     S
C1996  H2055   1.106   .     S
C1997  H2064   1.104   .     S
C1997  H2062   1.112   .     S
C1997  H2063   1.106   .     S
C1997  N2140   1.444   .     S
C1998  H2067   1.112   .     S
C1998  N2141   1.448   .     S
C1998  H2066   1.110   .     S
C1998  H2068   1.109   .     S
C1999  N2142   1.449   .     S
C1999  H2073   1.109   .     S
C1999  H2071   1.111   .     S
C1999  H2072   1.111   .     S
C2000  O2147   1.321   .     A
C2000  O2146   1.321   .     A
C2001  H2076   1.108   .     S
C2001  H2077   1.113   .     S
C2001  H2075   1.111   .     S
C2001  N2143   1.456   .     S
C2002  N2144   1.447   .     S
C2002  H2082   1.112   .     S
C2002  H2079   1.112   .     S
C2002  H2080   1.110   .     S
C2003  H2086   1.107   .     S
C2003  N2126   1.452   .     S
C2003  H2084   1.109   .     S
C2003  H2085   1.111   .     S
C2004  H2090   1.105   .     S
C2004  H2088   1.112   .     S
C2004  N2127   1.446   .     S
C2004  H2089   1.111   .     S
C2005  H2094   1.111   .     S
C2005  H2095   1.103   .     S
C2005  N2128   1.450   .     S
C2005  H2093   1.101   .     S
C2006  H2099   1.105   .     S
C2006  H2098   1.108   .     S
C2006  N2129   1.445   .     S
C2006  H2097   1.112   .     S
C2007  H2104   1.109   .     S
C2007  N2130   1.448   .     S
C2007  H2101   1.110   .     S
C2007  H2102   1.112   .     S
C2008  H2108   1.109   .     S
C2008  H2107   1.110   .     S
C2008  H2106   1.111   .     S
C2008  N2131   1.449   .     S
C2009  H2112   1.112   .     S
C2009  N2132   1.457   .     S
C2009  H2110   1.111   .     S
C2009  H2111   1.108   .     S
C2010  H2116   1.110   .     S
C2010  N2133   1.448   .     S
C2010  H2115   1.112   .     S
C2010  H2117   1.112   .     S
C2011  O2149   1.318   .     A
C2011  O2152   1.316   .     A
C2012  H2121   1.110   .     S
C2012  H2120   1.110   .     S
C2012  H2119   1.104   .     S
C2012  N2134   1.460   .     S
C2013  N2135   1.447   .     S
C2013  H2124   1.111   .     S
C2013  H2023   1.106   .     S
C2013  H2123   1.112   .     S
C2014  H2025   1.102   .     S
C2014  H2027   1.106   .     S
C2014  N2137   1.451   .     S
C2014  H2026   1.111   .     S
C2015  O2150   1.315   .     A
C2015  O2151   1.319   .     A
C2016  N1920   1.379   1_655 A
C2016  C868    1.419   1_655 S
Cu2017 N2125   2.065   .     S
Cu2017 O2145   2.003   .     S
Cu2017 O2157   1.967   .     S
Cu2017 Cu2018  2.748   .     S
Cu2018 N2136   2.065   .     S
Cu2018 O2155   1.995   .     S
Cu2018 O2158   1.969   .     S
Cu2019 O2147   1.995   .     S
Cu2019 Cu2020  2.748   .     S
Cu2019 O2150   1.967   .     S
Cu2019 N2138   2.065   .     S
Cu2019 O2584   1.969   1_545 S
Cu2019 O2592   2.003   1_545 S
Cu2020 O2146   2.003   .     S
Cu2020 O2151   1.969   .     S
Cu2020 N2139   2.065   .     S
Cu2020 O2580   1.995   1_545 S
Cu2020 O2581   1.967   1_545 S
H2024  N2137   1.029   .     S
H2061  N2140   1.028   .     S
H2065  N2141   1.028   .     S
H2069  N2142   1.028   .     S
H2074  N2143   1.029   .     S
H2078  N2144   1.029   .     S
H2083  N2126   1.030   .     S
H2087  N2127   1.030   .     S
H2091  N2128   1.026   .     S
H2096  N2129   1.029   .     S
H2100  N2130   1.028   .     S
H2105  N2131   1.027   .     S
H2109  N2132   1.029   .     S
H2113  N2133   1.030   .     S
H2118  N2134   1.031   .     S
H2122  N2135   1.029   .     S
N2138  C2384   1.375   1_545 A
N2139  C2381   1.379   1_545 S
O2148  Cu2452  1.995   .     S
O2149  Cu2452  1.967   .     S
O2152  Cu2451  1.969   .     S
O2153  Cu1802  2.003   1_655 S
O2154  Cu1801  1.995   1_655 S
O2156  Cu1802  1.967   1_655 S
O2159  Cu1801  1.969   1_655 S
O2160  Cu2451  2.003   .     S
C2161  O2371   1.319   .     A
C2161  O2361   1.322   .     A
C2161  C2190   1.487   .     S
C2162  C2198   1.550   .     S
C2162  C651    1.463   1_556 S
C2162  N2557   1.398   .     S
C2163  C1514   1.463   1_455 S
C2163  C2416   1.555   1_455 S
C2163  N2352   1.403   .     S
C2164  N2341   1.377   .     A
C2164  C2202   1.490   .     S
C2164  C720    1.419   1_456 S
C2165  C2204   1.505   .     S
C2165  N1923   1.379   1_565 S
C2166  C2207   1.552   .     S
C2166  C439    1.466   1_556 S
C2166  N2354   1.401   .     S
C2167  C2209   1.554   .     S
C2167  N2355   1.399   .     A
C2168  N1922   1.375   1_565 A
C2168  C2211   1.488   .     S
C2168  C437    1.417   1_556 S
C2169  N2356   1.427   .     S
C2169  C2180   1.398   .     A
C2169  C2188   1.410   .     A
C2170  C2187   1.414   .     A
C2170  C2181   1.410   .     A
C2170  N2357   1.430   .     S
C2171  C2178   1.397   .     A
C2171  C2187   1.405   .     A
C2171  N2358   1.433   .     S
C2172  C2189   1.486   .     S
C2172  O2369   1.324   .     A
C2172  O2370   1.317   .     A
C2173  C2188   1.413   .     A
C2173  C2179   1.409   .     A
C2173  N2359   1.419   .     S
C2174  C2190   1.413   .     A
C2174  N2360   1.420   .     S
C2174  C2185   1.404   .     A
C2175  C2189   1.408   .     A
C2175  C2186   1.400   .     A
C2175  N2342   1.413   .     S
C2176  N2343   1.428   .     S
C2176  C2189   1.415   .     A
C2176  C2182   1.406   .     A
C2177  C2190   1.409   .     A
C2177  C2184   1.406   .     A
C2177  N2344   1.422   .     S
C2178  C2192   1.410   .     A
C2178  N2345   1.427   .     S
C2179  C2191   1.414   .     A
C2179  N2346   1.430   .     S
C2180  N2347   1.433   .     S
C2180  C2191   1.406   .     A
C2181  C2192   1.414   .     A
C2181  N2348   1.419   .     S
C2182  C2195   1.415   .     A
C2182  N2349   1.421   .     S
C2183  O2375   1.316   .     A
C2183  O2372   1.317   .     A
C2183  C2188   1.474   .     S
C2184  C2193   1.417   .     A
C2184  N2350   1.422   .     S
C2185  N2351   1.428   .     S
C2185  C2193   1.415   .     A
C2186  N2353   1.420   .     S
C2186  C2195   1.410   .     A
C2187  C2194   1.473   .     S
C2191  C2231   1.471   .     S
C2192  C2227   1.475   .     S
C2193  C2216   1.488   .     S
C2194  O2374   1.321   .     A
C2194  O2373   1.314   .     A
C2195  C2205   1.487   .     S
C2196  C2197   1.524   .     S
C2196  H2286   1.113   .     S
C2196  H2275   1.097   .     S
C2196  C2232   1.507   .     S
C2197  H2264   1.104   .     S
C2197  H2253   1.107   .     S
C2197  H2237   1.104   .     S
C2198  H2330   1.069   .     S
C2198  H2238   1.099   .     S
C2198  C2415   1.531   .     S
C2199  H2297   1.104   .     S
C2199  H2308   1.107   .     S
C2199  H2319   1.112   .     S
C2199  C2414   1.531   1_455 S
C2200  H2248   1.085   .     S
C2200  C2379   1.555   .     S
C2200  C2417   1.522   .     S
C2200  H2463   1.111   .     S
C2201  H2244   1.110   .     S
C2201  H2245   1.101   .     S
C2201  H2246   1.085   .     S
C2201  C2416   1.522   1_455 S
C2202  C2203   1.516   .     S
C2202  H2254   1.101   .     S
C2202  H2252   1.094   .     S
C2203  H2249   1.106   .     S
C2203  H2250   1.100   .     S
C2203  H2251   1.108   .     S
C2204  H2259   1.112   .     S
C2204  H2258   1.095   .     S
C2204  C2206   1.525   .     S
C2205  O2364   1.319   .     A
C2205  O2376   1.323   .     A
C2206  H2255   1.104   .     S
C2206  H2256   1.106   .     S
C2206  H2257   1.106   .     S
C2207  H2265   1.098   .     S
C2207  H2263   1.069   .     S
C2207  C2208   1.529   .     S
C2208  H2260   1.103   .     S
C2208  H2262   1.112   .     S
C2208  H2261   1.108   .     S
C2209  H2269   1.112   .     S
C2209  C2210   1.531   .     S
C2209  H2270   1.079   .     S
C2210  H2268   1.091   .     S
C2210  H2267   1.095   .     S
C2210  H2266   1.112   .     S
C2211  H2274   1.095   .     S
C2211  C2212   1.517   .     S
C2211  H2276   1.102   .     S
C2212  H2273   1.108   .     S
C2212  H2272   1.101   .     S
C2212  H2271   1.106   .     S
C2213  H2280   1.104   .     S
C2213  H2278   1.112   .     S
C2213  H2279   1.106   .     S
C2213  N2356   1.444   .     S
C2214  H2283   1.112   .     S
C2214  N2357   1.448   .     S
C2214  H2282   1.110   .     S
C2214  H2284   1.109   .     S
C2215  N2358   1.449   .     S
C2215  H2289   1.109   .     S
C2215  H2287   1.111   .     S
C2215  H2288   1.111   .     S
C2216  O2363   1.321   .     A
C2216  O2362   1.321   .     A
C2217  H2292   1.108   .     S
C2217  H2293   1.113   .     S
C2217  H2291   1.111   .     S
C2217  N2359   1.456   .     S
C2218  N2360   1.447   .     S
C2218  H2298   1.112   .     S
C2218  H2295   1.112   .     S
C2218  H2296   1.110   .     S
C2219  H2302   1.107   .     S
C2219  N2342   1.452   .     S
C2219  H2300   1.109   .     S
C2219  H2301   1.111   .     S
C2220  H2306   1.105   .     S
C2220  H2304   1.112   .     S
C2220  N2343   1.446   .     S
C2220  H2305   1.111   .     S
C2221  H2310   1.111   .     S
C2221  H2311   1.103   .     S
C2221  N2344   1.450   .     S
C2221  H2309   1.101   .     S
C2222  H2315   1.105   .     S
C2222  H2314   1.108   .     S
C2222  N2345   1.445   .     S
C2222  H2313   1.112   .     S
C2223  H2320   1.109   .     S
C2223  N2346   1.448   .     S
C2223  H2317   1.110   .     S
C2223  H2318   1.112   .     S
C2224  H2324   1.109   .     S
C2224  H2323   1.110   .     S
C2224  H2322   1.111   .     S
C2224  N2347   1.449   .     S
C2225  H2328   1.112   .     S
C2225  N2348   1.457   .     S
C2225  H2326   1.111   .     S
C2225  H2327   1.108   .     S
C2226  H2332   1.110   .     S
C2226  N2349   1.448   .     S
C2226  H2331   1.112   .     S
C2226  H2333   1.112   .     S
C2227  O2365   1.318   .     A
C2227  O2368   1.316   .     A
C2228  H2337   1.110   .     S
C2228  H2336   1.110   .     S
C2228  H2335   1.104   .     S
C2228  N2350   1.460   .     S
C2229  N2351   1.447   .     S
C2229  H2340   1.111   .     S
C2229  H2239   1.106   .     S
C2229  H2339   1.112   .     S
C2230  H2241   1.102   .     S
C2230  H2243   1.106   .     S
C2230  N2353   1.451   .     S
C2230  H2242   1.111   .     S
C2231  O2366   1.315   .     A
C2231  O2367   1.319   .     A
C2232  N2568   1.379   .     A
Cu2233 N2341   2.065   .     S
Cu2233 O2361   2.003   .     S
Cu2233 O2373   1.967   .     S
Cu2233 Cu2234  2.748   .     S
Cu2233 O2586   1.995   1_455 S
Cu2233 O2591   1.969   1_455 S
Cu2234 O2585   2.003   1_455 S
Cu2234 O2588   1.967   1_455 S
Cu2234 N2352   2.065   .     S
Cu2234 O2371   1.995   .     S
Cu2234 O2374   1.969   .     S
Cu2235 O2363   1.995   .     S
Cu2235 Cu2236  2.748   .     S
Cu2235 O2366   1.967   .     S
Cu2235 N2354   2.065   .     S
Cu2236 O2362   2.003   .     S
Cu2236 O2367   1.969   .     S
Cu2236 N2355   2.065   .     S
H2240  N2353   1.029   .     S
H2247  C2416   1.111   1_455 S
H2277  N2356   1.028   .     S
H2281  N2357   1.028   .     S
H2285  N2358   1.028   .     S
H2290  N2359   1.029   .     S
H2294  N2360   1.029   .     S
H2299  N2342   1.030   .     S
H2303  N2343   1.030   .     S
H2307  N2344   1.026   .     S
H2312  N2345   1.029   .     S
H2316  N2346   1.028   .     S
H2321  N2347   1.027   .     S
H2325  N2348   1.029   .     S
H2329  N2349   1.030   .     S
H2334  N2350   1.031   .     S
H2338  N2351   1.029   .     S
N2341  C2378   1.398   1_455 S
N2352  C2448   1.379   1_455 A
O2364  Cu1804  1.995   1_565 S
O2365  Cu1804  1.967   1_565 S
O2368  Cu1803  1.969   1_565 S
O2369  Cu2450  2.003   .     S
O2370  Cu2449  1.995   .     S
O2372  Cu2450  1.967   .     S
O2375  Cu2449  1.969   .     S
O2376  Cu1803  2.003   1_565 S
C2377  O2587   1.319   .     A
C2377  O2577   1.322   .     A
C2377  C2406   1.487   .     S
C2378  C2414   1.550   .     S
C2378  C435    1.463   1_656 S
C2378  N2341   1.398   1_655 S
C2379  N2568   1.403   .     S
C2380  N2557   1.377   .     A
C2380  C2418   1.490   .     S
C2380  C504    1.419   1_556 S
C2381  C2420   1.505   .     S
C2381  N2139   1.379   1_565 S
C2382  C2423   1.552   .     S
C2382  C655    1.466   1_556 S
C2382  N2570   1.401   .     S
C2383  C2425   1.554   .     S
C2383  N2571   1.399   .     A
C2384  N2138   1.375   1_565 A
C2384  C2427   1.488   .     S
C2384  C653    1.417   1_556 S
C2385  N2572   1.427   .     S
C2385  C2396   1.398   .     A
C2385  C2404   1.410   .     A
C2386  C2403   1.414   .     A
C2386  C2397   1.410   .     A
C2386  N2573   1.430   .     S
C2387  C2394   1.397   .     A
C2387  C2403   1.405   .     A
C2387  N2574   1.433   .     S
C2388  C2405   1.486   .     S
C2388  O2585   1.324   .     A
C2388  O2586   1.317   .     A
C2389  C2404   1.413   .     A
C2389  C2395   1.409   .     A
C2389  N2575   1.419   .     S
C2390  C2406   1.413   .     A
C2390  N2576   1.420   .     S
C2390  C2401   1.404   .     A
C2391  C2405   1.408   .     A
C2391  C2402   1.400   .     A
C2391  N2558   1.413   .     S
C2392  N2559   1.428   .     S
C2392  C2405   1.415   .     A
C2392  C2398   1.406   .     A
C2393  C2406   1.409   .     A
C2393  C2400   1.406   .     A
C2393  N2560   1.422   .     S
C2394  C2408   1.410   .     A
C2394  N2561   1.427   .     S
C2395  C2407   1.414   .     A
C2395  N2562   1.430   .     S
C2396  N2563   1.433   .     S
C2396  C2407   1.406   .     A
C2397  C2408   1.414   .     A
C2397  N2564   1.419   .     S
C2398  C2411   1.415   .     A
C2398  N2565   1.421   .     S
C2399  O2591   1.316   .     A
C2399  O2588   1.317   .     A
C2399  C2404   1.474   .     S
C2400  C2409   1.417   .     A
C2400  N2566   1.422   .     S
C2401  N2567   1.428   .     S
C2401  C2409   1.415   .     A
C2402  N2569   1.420   .     S
C2402  C2411   1.410   .     A
C2403  C2410   1.473   .     S
C2407  C2447   1.471   .     S
C2408  C2443   1.475   .     S
C2409  C2432   1.488   .     S
C2410  O2590   1.321   .     A
C2410  O2589   1.314   .     A
C2411  C2421   1.487   .     S
C2412  C2413   1.524   .     S
C2412  H2502   1.113   .     S
C2412  H2491   1.097   .     S
C2412  C2448   1.507   .     S
C2413  H2480   1.104   .     S
C2413  H2469   1.107   .     S
C2413  H2453   1.104   .     S
C2414  H2546   1.069   .     S
C2414  H2454   1.099   .     S
C2414  C2199   1.531   1_655 S
C2415  H2513   1.104   .     S
C2415  H2524   1.107   .     S
C2415  H2535   1.112   .     S
C2416  H2464   1.085   .     S
C2416  C2163   1.555   1_655 S
C2416  C2201   1.522   1_655 S
C2416  H2247   1.111   1_655 S
C2417  H2460   1.110   .     S
C2417  H2461   1.101   .     S
C2417  H2462   1.085   .     S
C2418  C2419   1.516   .     S
C2418  H2470   1.101   .     S
C2418  H2468   1.094   .     S
C2419  H2465   1.106   .     S
C2419  H2466   1.100   .     S
C2419  H2467   1.108   .     S
C2420  H2475   1.112   .     S
C2420  H2474   1.095   .     S
C2420  C2422   1.525   .     S
C2421  O2580   1.319   .     A
C2421  O2592   1.323   .     A
C2422  H2471   1.104   .     S
C2422  H2472   1.106   .     S
C2422  H2473   1.106   .     S
C2423  H2481   1.098   .     S
C2423  H2479   1.069   .     S
C2423  C2424   1.529   .     S
C2424  H2476   1.103   .     S
C2424  H2478   1.112   .     S
C2424  H2477   1.108   .     S
C2425  H2485   1.112   .     S
C2425  C2426   1.531   .     S
C2425  H2486   1.079   .     S
C2426  H2484   1.091   .     S
C2426  H2483   1.095   .     S
C2426  H2482   1.112   .     S
C2427  H2490   1.095   .     S
C2427  C2428   1.517   .     S
C2427  H2492   1.102   .     S
C2428  H2489   1.108   .     S
C2428  H2488   1.101   .     S
C2428  H2487   1.106   .     S
C2429  H2496   1.104   .     S
C2429  H2494   1.112   .     S
C2429  H2495   1.106   .     S
C2429  N2572   1.444   .     S
C2430  H2499   1.112   .     S
C2430  N2573   1.448   .     S
C2430  H2498   1.110   .     S
C2430  H2500   1.109   .     S
C2431  N2574   1.449   .     S
C2431  H2505   1.109   .     S
C2431  H2503   1.111   .     S
C2431  H2504   1.111   .     S
C2432  O2579   1.321   .     A
C2432  O2578   1.321   .     A
C2433  H2508   1.108   .     S
C2433  H2509   1.113   .     S
C2433  H2507   1.111   .     S
C2433  N2575   1.456   .     S
C2434  N2576   1.447   .     S
C2434  H2514   1.112   .     S
C2434  H2511   1.112   .     S
C2434  H2512   1.110   .     S
C2435  H2518   1.107   .     S
C2435  N2558   1.452   .     S
C2435  H2516   1.109   .     S
C2435  H2517   1.111   .     S
C2436  H2522   1.105   .     S
C2436  H2520   1.112   .     S
C2436  N2559   1.446   .     S
C2436  H2521   1.111   .     S
C2437  H2526   1.111   .     S
C2437  H2527   1.103   .     S
C2437  N2560   1.450   .     S
C2437  H2525   1.101   .     S
C2438  H2531   1.105   .     S
C2438  H2530   1.108   .     S
C2438  N2561   1.445   .     S
C2438  H2529   1.112   .     S
C2439  H2536   1.109   .     S
C2439  N2562   1.448   .     S
C2439  H2533   1.110   .     S
C2439  H2534   1.112   .     S
C2440  H2540   1.109   .     S
C2440  H2539   1.110   .     S
C2440  H2538   1.111   .     S
C2440  N2563   1.449   .     S
C2441  H2544   1.112   .     S
C2441  N2564   1.457   .     S
C2441  H2542   1.111   .     S
C2441  H2543   1.108   .     S
C2442  H2548   1.110   .     S
C2442  N2565   1.448   .     S
C2442  H2547   1.112   .     S
C2442  H2549   1.112   .     S
C2443  O2581   1.318   .     A
C2443  O2584   1.316   .     A
C2444  H2553   1.110   .     S
C2444  H2552   1.110   .     S
C2444  H2551   1.104   .     S
C2444  N2566   1.460   .     S
C2445  N2567   1.447   .     S
C2445  H2556   1.111   .     S
C2445  H2455   1.106   .     S
C2445  H2555   1.112   .     S
C2446  H2457   1.102   .     S
C2446  H2459   1.106   .     S
C2446  N2569   1.451   .     S
C2446  H2458   1.111   .     S
C2447  O2582   1.315   .     A
C2447  O2583   1.319   .     A
C2448  N2352   1.379   1_655 A
C2448  C1300   1.419   1_655 S
Cu2449 N2557   2.065   .     S
Cu2449 O2577   2.003   .     S
Cu2449 O2589   1.967   .     S
Cu2449 Cu2450  2.748   .     S
Cu2450 N2568   2.065   .     S
Cu2450 O2587   1.995   .     S
Cu2450 O2590   1.969   .     S
Cu2451 O2579   1.995   .     S
Cu2451 Cu2452  2.748   .     S
Cu2451 O2582   1.967   .     S
Cu2451 N2570   2.065   .     S
Cu2452 O2578   2.003   .     S
Cu2452 O2583   1.969   .     S
Cu2452 N2571   2.065   .     S
H2456  N2569   1.029   .     S
H2493  N2572   1.028   .     S
H2497  N2573   1.028   .     S
H2501  N2574   1.028   .     S
H2506  N2575   1.029   .     S
H2510  N2576   1.029   .     S
H2515  N2558   1.030   .     S
H2519  N2559   1.030   .     S
H2523  N2560   1.026   .     S
H2528  N2561   1.029   .     S
H2532  N2562   1.028   .     S
H2537  N2563   1.027   .     S
H2541  N2564   1.029   .     S
H2545  N2565   1.030   .     S
H2550  N2566   1.031   .     S
H2554  N2567   1.029   .     S
O2580  Cu2020  1.995   1_565 S
O2581  Cu2020  1.967   1_565 S
O2584  Cu2019  1.969   1_565 S
O2585  Cu2234  2.003   1_655 S
O2586  Cu2233  1.995   1_655 S
O2588  Cu2234  1.967   1_655 S
O2591  Cu2233  1.969   1_655 S
O2592  Cu2019  2.003   1_565 S
