data_str_m2_o1_o18_pcu_sym.219
_audit_creation_date              2020-01-03
_audit_creation_method            'Materials Studio'
_symmetry_space_group_name_H-M    'P1'
_symmetry_Int_Tables_number       1
_symmetry_cell_setting            triclinic
loop_
_symmetry_equiv_pos_as_xyz
  x,y,z
_cell_length_a                    28.8701
_cell_length_b                    32.3643
_cell_length_c                    31.0500
_cell_angle_alpha                 87.2245
_cell_angle_beta                  73.7247
_cell_angle_gamma                 89.9502
loop_
_atom_site_label
_atom_site_type_symbol
_atom_site_fract_x
_atom_site_fract_y
_atom_site_fract_z
_atom_site_U_iso_or_equiv
_atom_site_adp_type
_atom_site_occupancy
C1     C     0.33324   0.08750   0.25026   0.00000  Uiso   1.00
C2     C     0.00010   0.24576   0.24965   0.00000  Uiso   1.00
C3     C     0.19861   0.17948   0.04987   0.00000  Uiso   1.00
C4     C     0.14824   0.21538   0.45890   0.00000  Uiso   1.00
C5     C     0.24746   0.17766   0.02665   0.00000  Uiso   1.00
C6     C     0.10062   0.22264   0.48233   0.00000  Uiso   1.00
C7     C     0.31515   0.02316   0.21872   0.00000  Uiso   1.00
C8     C     0.01539   0.30974   0.28287   0.00000  Uiso   1.00
C9     C     0.31784   0.31314   0.21690   0.00000  Uiso   1.00
C10    C     0.01753   0.01991   0.28174   0.00000  Uiso   1.00
C11    C     0.00005   0.29039   0.24974   0.00000  Uiso   1.00
C12    C     0.33314   0.04272   0.25023   0.00000  Uiso   1.00
C13    C     0.18402   0.13709   0.27443   0.00000  Uiso   1.00
C14    C     0.14955   0.19528   0.22425   0.00000  Uiso   1.00
C15    C     0.13483   0.13745   0.27519   0.00000  Uiso   1.00
C16    C     0.19849   0.19579   0.22458   0.00000  Uiso   1.00
C17    C     0.30557   0.16711   0.33629   0.00000  Uiso   1.00
C18    C     0.02759   0.16745   0.16398   0.00000  Uiso   1.00
C19    C     0.28966   0.17070   0.38585   0.00000  Uiso   1.00
C20    C     0.04401   0.17538   0.11505   0.00000  Uiso   1.00
C21    C     0.31051   0.17318   0.45638   0.00000  Uiso   1.00
C22    C     0.03355   0.21282   0.04912   0.00000  Uiso   1.00
C23    C     0.32438   0.17087   0.40979   0.00000  Uiso   1.00
C24    C     0.01496   0.19814   0.09348   0.00000  Uiso   1.00
C25    C     0.24020   0.17507   0.40968   0.00000  Uiso   1.00
C26    C     0.09191   0.16641   0.09136   0.00000  Uiso   1.00
C27    C     0.22710   0.18359   0.45576   0.00000  Uiso   1.00
C28    C     0.11304   0.18623   0.04875   0.00000  Uiso   1.00
C29    C     0.26195   0.17841   0.47968   0.00000  Uiso   1.00
C30    C     0.08228   0.20723   0.02664   0.00000  Uiso   1.00
C31    C     0.17926   0.19379   0.47971   0.00000  Uiso   1.00
C32    C     0.16333   0.18509   0.02659   0.00000  Uiso   1.00
Cu33   Cu    0.04689   0.16667   0.25000   0.00000  Uiso   1.00
Cu34   Cu    0.28645   0.16666   0.25000   0.00000  Uiso   1.00
H35    H     0.27368   0.17397   0.04553   0.00000  Uiso   1.00
H36    H     0.07779   0.23948   0.46537   0.00000  Uiso   1.00
H37    H     0.31143   0.20534   0.11117   0.00000  Uiso   1.00
H38    H     0.02900   0.16752   0.39271   0.00000  Uiso   1.00
H39    H     0.00446   0.17062   0.47423   0.00000  Uiso   1.00
H40    H     0.01020   0.22974   0.03282   0.00000  Uiso   1.00
H41    H     0.18916   0.17910   0.08612   0.00000  Uiso   1.00
H42    H     0.16124   0.22834   0.42483   0.00000  Uiso   1.00
N43    N     0.11736   0.16668   0.24999   0.00000  Uiso   1.00
N44    N     0.21597   0.16666   0.25001   0.00000  Uiso   1.00
O45    O     0.03958   0.10655   0.25000   0.00000  Uiso   1.00
O46    O     0.29375   0.22678   0.25000   0.00000  Uiso   1.00
O47    O     0.29372   0.10654   0.25000   0.00000  Uiso   1.00
O48    O     0.03961   0.22679   0.24999   0.00000  Uiso   1.00
O49    O     0.01852   0.16668   0.31491   0.00000  Uiso   1.00
O50    O     0.31481   0.16666   0.18508   0.00000  Uiso   1.00
O51    O     0.27267   0.16667   0.31492   0.00000  Uiso   1.00
O52    O     0.06067   0.16667   0.18508   0.00000  Uiso   1.00
Cl53   Cl    0.12015   0.12368   0.11127   0.00000  Uiso   1.00
Cl54   Cl    0.19378   0.15969   0.38630   0.00000  Uiso   1.00
O55    O     0.29634   0.04719   0.18980   0.00000  Uiso   1.00
H56    H     0.27162   0.03071   0.18137   0.00000  Uiso   1.00
O57    O     0.02659   0.28533   0.31628   0.00000  Uiso   1.00
H58    H     0.02017   0.30098   0.34391   0.00000  Uiso   1.00
O59    O     0.30720   0.29224   0.18300   0.00000  Uiso   1.00
H60    H     0.31294   0.31098   0.15581   0.00000  Uiso   1.00
O61    O     0.03518   0.04088   0.31159   0.00000  Uiso   1.00
H62    H     0.06018   0.02383   0.31987   0.00000  Uiso   1.00
Cl63   Cl    0.20215   0.09717   0.30653   0.00000  Uiso   1.00
Cl64   Cl    0.13209   0.23117   0.18741   0.00000  Uiso   1.00
O65    O     0.10597   0.10669   0.30133   0.00000  Uiso   1.00
H66    H     0.07262   0.11607   0.30965   0.00000  Uiso   1.00
O67    O     0.22721   0.22667   0.19845   0.00000  Uiso   1.00
H68    H     0.26076   0.21785   0.19104   0.00000  Uiso   1.00
C69    C     0.66657   0.08750   0.25026   0.00000  Uiso   1.00
C70    C     0.33343   0.24576   0.24965   0.00000  Uiso   1.00
C71    C     0.53194   0.17948   0.04987   0.00000  Uiso   1.00
C72    C     0.48158   0.21538   0.45890   0.00000  Uiso   1.00
C73    C     0.58080   0.17766   0.02665   0.00000  Uiso   1.00
C74    C     0.43396   0.22264   0.48233   0.00000  Uiso   1.00
C75    C     0.64849   0.02316   0.21872   0.00000  Uiso   1.00
C76    C     0.34872   0.30974   0.28287   0.00000  Uiso   1.00
C77    C     0.65117   0.31314   0.21690   0.00000  Uiso   1.00
C78    C     0.35086   0.01991   0.28174   0.00000  Uiso   1.00
C79    C     0.33338   0.29039   0.24974   0.00000  Uiso   1.00
C80    C     0.66647   0.04272   0.25023   0.00000  Uiso   1.00
C81    C     0.51735   0.13709   0.27443   0.00000  Uiso   1.00
C82    C     0.48288   0.19528   0.22425   0.00000  Uiso   1.00
C83    C     0.46816   0.13745   0.27519   0.00000  Uiso   1.00
C84    C     0.53182   0.19579   0.22458   0.00000  Uiso   1.00
C85    C     0.63890   0.16711   0.33629   0.00000  Uiso   1.00
C86    C     0.36092   0.16745   0.16398   0.00000  Uiso   1.00
C87    C     0.62299   0.17070   0.38585   0.00000  Uiso   1.00
C88    C     0.37735   0.17538   0.11505   0.00000  Uiso   1.00
C89    C     0.64385   0.17318   0.45638   0.00000  Uiso   1.00
C90    C     0.36689   0.21282   0.04912   0.00000  Uiso   1.00
C91    C     0.65772   0.17087   0.40979   0.00000  Uiso   1.00
C92    C     0.34829   0.19814   0.09348   0.00000  Uiso   1.00
C93    C     0.57354   0.17507   0.40968   0.00000  Uiso   1.00
C94    C     0.42524   0.16641   0.09136   0.00000  Uiso   1.00
C95    C     0.56044   0.18359   0.45576   0.00000  Uiso   1.00
C96    C     0.44638   0.18623   0.04875   0.00000  Uiso   1.00
C97    C     0.59529   0.17841   0.47968   0.00000  Uiso   1.00
C98    C     0.41561   0.20723   0.02664   0.00000  Uiso   1.00
C99    C     0.51260   0.19379   0.47971   0.00000  Uiso   1.00
C100   C     0.49666   0.18509   0.02659   0.00000  Uiso   1.00
Cu101  Cu    0.38022   0.16667   0.25000   0.00000  Uiso   1.00
Cu102  Cu    0.61978   0.16666   0.25000   0.00000  Uiso   1.00
H103   H     0.60701   0.17397   0.04553   0.00000  Uiso   1.00
H104   H     0.41112   0.23948   0.46537   0.00000  Uiso   1.00
H105   H     0.64476   0.20534   0.11117   0.00000  Uiso   1.00
H106   H     0.36233   0.16752   0.39271   0.00000  Uiso   1.00
H107   H     0.33779   0.17062   0.47423   0.00000  Uiso   1.00
H108   H     0.34353   0.22974   0.03282   0.00000  Uiso   1.00
H109   H     0.52249   0.17910   0.08612   0.00000  Uiso   1.00
H110   H     0.49457   0.22834   0.42483   0.00000  Uiso   1.00
N111   N     0.45069   0.16668   0.24999   0.00000  Uiso   1.00
N112   N     0.54931   0.16666   0.25001   0.00000  Uiso   1.00
O113   O     0.37291   0.10655   0.25000   0.00000  Uiso   1.00
O114   O     0.62709   0.22678   0.25000   0.00000  Uiso   1.00
O115   O     0.62706   0.10654   0.25000   0.00000  Uiso   1.00
O116   O     0.37294   0.22679   0.24999   0.00000  Uiso   1.00
O117   O     0.35186   0.16668   0.31491   0.00000  Uiso   1.00
O118   O     0.64814   0.16666   0.18508   0.00000  Uiso   1.00
O119   O     0.60600   0.16667   0.31492   0.00000  Uiso   1.00
O120   O     0.39400   0.16667   0.18508   0.00000  Uiso   1.00
Cl121  Cl    0.45349   0.12368   0.11127   0.00000  Uiso   1.00
Cl122  Cl    0.52711   0.15969   0.38630   0.00000  Uiso   1.00
O123   O     0.62967   0.04719   0.18980   0.00000  Uiso   1.00
H124   H     0.60496   0.03071   0.18137   0.00000  Uiso   1.00
O125   O     0.35992   0.28533   0.31628   0.00000  Uiso   1.00
H126   H     0.35351   0.30098   0.34391   0.00000  Uiso   1.00
O127   O     0.64053   0.29224   0.18300   0.00000  Uiso   1.00
H128   H     0.64627   0.31098   0.15581   0.00000  Uiso   1.00
O129   O     0.36852   0.04088   0.31159   0.00000  Uiso   1.00
H130   H     0.39352   0.02383   0.31987   0.00000  Uiso   1.00
Cl131  Cl    0.53549   0.09717   0.30653   0.00000  Uiso   1.00
Cl132  Cl    0.46543   0.23117   0.18741   0.00000  Uiso   1.00
O133   O     0.43930   0.10669   0.30133   0.00000  Uiso   1.00
H134   H     0.40595   0.11607   0.30965   0.00000  Uiso   1.00
O135   O     0.56055   0.22667   0.19845   0.00000  Uiso   1.00
H136   H     0.59410   0.21785   0.19104   0.00000  Uiso   1.00
C137   C     0.99991   0.08750   0.25026   0.00000  Uiso   1.00
C138   C     0.66677   0.24576   0.24965   0.00000  Uiso   1.00
C139   C     0.86527   0.17948   0.04987   0.00000  Uiso   1.00
C140   C     0.81491   0.21538   0.45890   0.00000  Uiso   1.00
C141   C     0.91413   0.17766   0.02665   0.00000  Uiso   1.00
C142   C     0.76729   0.22264   0.48233   0.00000  Uiso   1.00
C143   C     0.98182   0.02316   0.21872   0.00000  Uiso   1.00
C144   C     0.68206   0.30974   0.28287   0.00000  Uiso   1.00
C145   C     0.98451   0.31314   0.21690   0.00000  Uiso   1.00
C146   C     0.68420   0.01991   0.28174   0.00000  Uiso   1.00
C147   C     0.66672   0.29039   0.24974   0.00000  Uiso   1.00
C148   C     0.99981   0.04272   0.25023   0.00000  Uiso   1.00
C149   C     0.85069   0.13709   0.27443   0.00000  Uiso   1.00
C150   C     0.81621   0.19528   0.22425   0.00000  Uiso   1.00
C151   C     0.80149   0.13745   0.27519   0.00000  Uiso   1.00
C152   C     0.86515   0.19579   0.22458   0.00000  Uiso   1.00
C153   C     0.97224   0.16711   0.33629   0.00000  Uiso   1.00
C154   C     0.69426   0.16745   0.16398   0.00000  Uiso   1.00
C155   C     0.95632   0.17070   0.38585   0.00000  Uiso   1.00
C156   C     0.71068   0.17538   0.11505   0.00000  Uiso   1.00
C157   C     0.97718   0.17318   0.45638   0.00000  Uiso   1.00
C158   C     0.70022   0.21282   0.04912   0.00000  Uiso   1.00
C159   C     0.99105   0.17087   0.40979   0.00000  Uiso   1.00
C160   C     0.68162   0.19814   0.09348   0.00000  Uiso   1.00
C161   C     0.90687   0.17507   0.40968   0.00000  Uiso   1.00
C162   C     0.75858   0.16641   0.09136   0.00000  Uiso   1.00
C163   C     0.89377   0.18359   0.45576   0.00000  Uiso   1.00
C164   C     0.77971   0.18623   0.04875   0.00000  Uiso   1.00
C165   C     0.92862   0.17841   0.47968   0.00000  Uiso   1.00
C166   C     0.74895   0.20723   0.02664   0.00000  Uiso   1.00
C167   C     0.84593   0.19379   0.47971   0.00000  Uiso   1.00
C168   C     0.82999   0.18509   0.02659   0.00000  Uiso   1.00
Cu169  Cu    0.71355   0.16667   0.25000   0.00000  Uiso   1.00
Cu170  Cu    0.95311   0.16666   0.25000   0.00000  Uiso   1.00
H171   H     0.94035   0.17397   0.04553   0.00000  Uiso   1.00
H172   H     0.74445   0.23948   0.46537   0.00000  Uiso   1.00
H173   H     0.97810   0.20534   0.11117   0.00000  Uiso   1.00
H174   H     0.69567   0.16752   0.39271   0.00000  Uiso   1.00
H175   H     0.67112   0.17062   0.47423   0.00000  Uiso   1.00
H176   H     0.67686   0.22974   0.03282   0.00000  Uiso   1.00
H177   H     0.85582   0.17910   0.08612   0.00000  Uiso   1.00
H178   H     0.82790   0.22834   0.42483   0.00000  Uiso   1.00
N179   N     0.78403   0.16668   0.24999   0.00000  Uiso   1.00
N180   N     0.88264   0.16666   0.25001   0.00000  Uiso   1.00
O181   O     0.70625   0.10655   0.25000   0.00000  Uiso   1.00
O182   O     0.96042   0.22678   0.25000   0.00000  Uiso   1.00
O183   O     0.96039   0.10654   0.25000   0.00000  Uiso   1.00
O184   O     0.70628   0.22679   0.24999   0.00000  Uiso   1.00
O185   O     0.68519   0.16668   0.31491   0.00000  Uiso   1.00
O186   O     0.98148   0.16666   0.18508   0.00000  Uiso   1.00
O187   O     0.93933   0.16667   0.31492   0.00000  Uiso   1.00
O188   O     0.72733   0.16667   0.18508   0.00000  Uiso   1.00
Cl189  Cl    0.78682   0.12368   0.11127   0.00000  Uiso   1.00
Cl190  Cl    0.86045   0.15969   0.38630   0.00000  Uiso   1.00
O191   O     0.96300   0.04719   0.18980   0.00000  Uiso   1.00
H192   H     0.93829   0.03071   0.18137   0.00000  Uiso   1.00
O193   O     0.69325   0.28533   0.31628   0.00000  Uiso   1.00
H194   H     0.68684   0.30098   0.34391   0.00000  Uiso   1.00
O195   O     0.97387   0.29224   0.18300   0.00000  Uiso   1.00
H196   H     0.97961   0.31098   0.15581   0.00000  Uiso   1.00
O197   O     0.70185   0.04088   0.31159   0.00000  Uiso   1.00
H198   H     0.72685   0.02383   0.31987   0.00000  Uiso   1.00
Cl199  Cl    0.86882   0.09717   0.30653   0.00000  Uiso   1.00
Cl200  Cl    0.79876   0.23117   0.18741   0.00000  Uiso   1.00
O201   O     0.77264   0.10669   0.30133   0.00000  Uiso   1.00
H202   H     0.73929   0.11607   0.30965   0.00000  Uiso   1.00
O203   O     0.89388   0.22667   0.19845   0.00000  Uiso   1.00
H204   H     0.92743   0.21785   0.19104   0.00000  Uiso   1.00
C205   C     0.33324   0.42083   0.25026   0.00000  Uiso   1.00
C206   C     0.00010   0.57909   0.24965   0.00000  Uiso   1.00
C207   C     0.19861   0.51281   0.04987   0.00000  Uiso   1.00
C208   C     0.14824   0.54871   0.45890   0.00000  Uiso   1.00
C209   C     0.24746   0.51099   0.02665   0.00000  Uiso   1.00
C210   C     0.10062   0.55597   0.48233   0.00000  Uiso   1.00
C211   C     0.31515   0.35650   0.21872   0.00000  Uiso   1.00
C212   C     0.01539   0.64307   0.28287   0.00000  Uiso   1.00
C213   C     0.31784   0.64647   0.21690   0.00000  Uiso   1.00
C214   C     0.01753   0.35325   0.28174   0.00000  Uiso   1.00
C215   C     0.00005   0.62372   0.24974   0.00000  Uiso   1.00
C216   C     0.33314   0.37605   0.25023   0.00000  Uiso   1.00
C217   C     0.18402   0.47043   0.27443   0.00000  Uiso   1.00
C218   C     0.14955   0.52862   0.22425   0.00000  Uiso   1.00
C219   C     0.13483   0.47078   0.27519   0.00000  Uiso   1.00
C220   C     0.19849   0.52912   0.22458   0.00000  Uiso   1.00
C221   C     0.30557   0.50044   0.33629   0.00000  Uiso   1.00
C222   C     0.02759   0.50078   0.16398   0.00000  Uiso   1.00
C223   C     0.28966   0.50404   0.38585   0.00000  Uiso   1.00
C224   C     0.04401   0.50872   0.11505   0.00000  Uiso   1.00
C225   C     0.31051   0.50651   0.45638   0.00000  Uiso   1.00
C226   C     0.03355   0.54615   0.04912   0.00000  Uiso   1.00
C227   C     0.32438   0.50420   0.40979   0.00000  Uiso   1.00
C228   C     0.01496   0.53148   0.09348   0.00000  Uiso   1.00
C229   C     0.24020   0.50841   0.40968   0.00000  Uiso   1.00
C230   C     0.09191   0.49974   0.09136   0.00000  Uiso   1.00
C231   C     0.22710   0.51692   0.45576   0.00000  Uiso   1.00
C232   C     0.11304   0.51957   0.04875   0.00000  Uiso   1.00
C233   C     0.26195   0.51175   0.47968   0.00000  Uiso   1.00
C234   C     0.08228   0.54056   0.02664   0.00000  Uiso   1.00
C235   C     0.17926   0.52712   0.47971   0.00000  Uiso   1.00
C236   C     0.16333   0.51842   0.02659   0.00000  Uiso   1.00
Cu237  Cu    0.04689   0.50001   0.25000   0.00000  Uiso   1.00
Cu238  Cu    0.28645   0.49999   0.25000   0.00000  Uiso   1.00
H239   H     0.27368   0.50730   0.04553   0.00000  Uiso   1.00
H240   H     0.07779   0.57281   0.46537   0.00000  Uiso   1.00
H241   H     0.31143   0.53867   0.11117   0.00000  Uiso   1.00
H242   H     0.02900   0.50085   0.39271   0.00000  Uiso   1.00
H243   H     0.00446   0.50395   0.47423   0.00000  Uiso   1.00
H244   H     0.01020   0.56308   0.03282   0.00000  Uiso   1.00
H245   H     0.18916   0.51243   0.08612   0.00000  Uiso   1.00
H246   H     0.16124   0.56168   0.42483   0.00000  Uiso   1.00
N247   N     0.11736   0.50001   0.24999   0.00000  Uiso   1.00
N248   N     0.21597   0.49999   0.25001   0.00000  Uiso   1.00
O249   O     0.03958   0.43989   0.25000   0.00000  Uiso   1.00
O250   O     0.29375   0.56011   0.25000   0.00000  Uiso   1.00
O251   O     0.29372   0.43988   0.25000   0.00000  Uiso   1.00
O252   O     0.03961   0.56012   0.24999   0.00000  Uiso   1.00
O253   O     0.01852   0.50001   0.31491   0.00000  Uiso   1.00
O254   O     0.31481   0.49999   0.18508   0.00000  Uiso   1.00
O255   O     0.27267   0.50000   0.31492   0.00000  Uiso   1.00
O256   O     0.06067   0.50000   0.18508   0.00000  Uiso   1.00
Cl257  Cl    0.12015   0.45701   0.11127   0.00000  Uiso   1.00
Cl258  Cl    0.19378   0.49303   0.38630   0.00000  Uiso   1.00
O259   O     0.29634   0.38052   0.18980   0.00000  Uiso   1.00
H260   H     0.27162   0.36404   0.18137   0.00000  Uiso   1.00
O261   O     0.02659   0.61866   0.31628   0.00000  Uiso   1.00
H262   H     0.02017   0.63432   0.34391   0.00000  Uiso   1.00
O263   O     0.30720   0.62557   0.18300   0.00000  Uiso   1.00
H264   H     0.31294   0.64432   0.15581   0.00000  Uiso   1.00
O265   O     0.03518   0.37421   0.31159   0.00000  Uiso   1.00
H266   H     0.06018   0.35716   0.31987   0.00000  Uiso   1.00
Cl267  Cl    0.20215   0.43050   0.30653   0.00000  Uiso   1.00
Cl268  Cl    0.13209   0.56450   0.18741   0.00000  Uiso   1.00
O269   O     0.10597   0.44002   0.30133   0.00000  Uiso   1.00
H270   H     0.07262   0.44940   0.30965   0.00000  Uiso   1.00
O271   O     0.22721   0.56001   0.19845   0.00000  Uiso   1.00
H272   H     0.26076   0.55119   0.19104   0.00000  Uiso   1.00
C273   C     0.66657   0.42083   0.25026   0.00000  Uiso   1.00
C274   C     0.33343   0.57909   0.24965   0.00000  Uiso   1.00
C275   C     0.53194   0.51281   0.04987   0.00000  Uiso   1.00
C276   C     0.48158   0.54871   0.45890   0.00000  Uiso   1.00
C277   C     0.58080   0.51099   0.02665   0.00000  Uiso   1.00
C278   C     0.43396   0.55597   0.48233   0.00000  Uiso   1.00
C279   C     0.64849   0.35650   0.21872   0.00000  Uiso   1.00
C280   C     0.34872   0.64307   0.28287   0.00000  Uiso   1.00
C281   C     0.65117   0.64647   0.21690   0.00000  Uiso   1.00
C282   C     0.35086   0.35325   0.28174   0.00000  Uiso   1.00
C283   C     0.33338   0.62372   0.24974   0.00000  Uiso   1.00
C284   C     0.66647   0.37605   0.25023   0.00000  Uiso   1.00
C285   C     0.51735   0.47043   0.27443   0.00000  Uiso   1.00
C286   C     0.48288   0.52862   0.22425   0.00000  Uiso   1.00
C287   C     0.46816   0.47078   0.27519   0.00000  Uiso   1.00
C288   C     0.53182   0.52912   0.22458   0.00000  Uiso   1.00
C289   C     0.63890   0.50044   0.33629   0.00000  Uiso   1.00
C290   C     0.36092   0.50078   0.16398   0.00000  Uiso   1.00
C291   C     0.62299   0.50404   0.38585   0.00000  Uiso   1.00
C292   C     0.37735   0.50872   0.11505   0.00000  Uiso   1.00
C293   C     0.64385   0.50651   0.45638   0.00000  Uiso   1.00
C294   C     0.36689   0.54615   0.04912   0.00000  Uiso   1.00
C295   C     0.65772   0.50420   0.40979   0.00000  Uiso   1.00
C296   C     0.34829   0.53148   0.09348   0.00000  Uiso   1.00
C297   C     0.57354   0.50841   0.40968   0.00000  Uiso   1.00
C298   C     0.42524   0.49974   0.09136   0.00000  Uiso   1.00
C299   C     0.56044   0.51692   0.45576   0.00000  Uiso   1.00
C300   C     0.44638   0.51957   0.04875   0.00000  Uiso   1.00
C301   C     0.59529   0.51175   0.47968   0.00000  Uiso   1.00
C302   C     0.41561   0.54056   0.02664   0.00000  Uiso   1.00
C303   C     0.51260   0.52712   0.47971   0.00000  Uiso   1.00
C304   C     0.49666   0.51842   0.02659   0.00000  Uiso   1.00
Cu305  Cu    0.38022   0.50001   0.25000   0.00000  Uiso   1.00
Cu306  Cu    0.61978   0.49999   0.25000   0.00000  Uiso   1.00
H307   H     0.60701   0.50730   0.04553   0.00000  Uiso   1.00
H308   H     0.41112   0.57281   0.46537   0.00000  Uiso   1.00
H309   H     0.64476   0.53867   0.11117   0.00000  Uiso   1.00
H310   H     0.36233   0.50085   0.39271   0.00000  Uiso   1.00
H311   H     0.33779   0.50395   0.47423   0.00000  Uiso   1.00
H312   H     0.34353   0.56308   0.03282   0.00000  Uiso   1.00
H313   H     0.52249   0.51243   0.08612   0.00000  Uiso   1.00
H314   H     0.49457   0.56168   0.42483   0.00000  Uiso   1.00
N315   N     0.45069   0.50001   0.24999   0.00000  Uiso   1.00
N316   N     0.54931   0.49999   0.25001   0.00000  Uiso   1.00
O317   O     0.37291   0.43989   0.25000   0.00000  Uiso   1.00
O318   O     0.62709   0.56011   0.25000   0.00000  Uiso   1.00
O319   O     0.62706   0.43988   0.25000   0.00000  Uiso   1.00
O320   O     0.37294   0.56012   0.24999   0.00000  Uiso   1.00
O321   O     0.35186   0.50001   0.31491   0.00000  Uiso   1.00
O322   O     0.64814   0.49999   0.18508   0.00000  Uiso   1.00
O323   O     0.60600   0.50000   0.31492   0.00000  Uiso   1.00
O324   O     0.39400   0.50000   0.18508   0.00000  Uiso   1.00
Cl325  Cl    0.45349   0.45701   0.11127   0.00000  Uiso   1.00
Cl326  Cl    0.52711   0.49303   0.38630   0.00000  Uiso   1.00
O327   O     0.62967   0.38052   0.18980   0.00000  Uiso   1.00
H328   H     0.60496   0.36404   0.18137   0.00000  Uiso   1.00
O329   O     0.35992   0.61866   0.31628   0.00000  Uiso   1.00
H330   H     0.35351   0.63432   0.34391   0.00000  Uiso   1.00
O331   O     0.64053   0.62557   0.18300   0.00000  Uiso   1.00
H332   H     0.64627   0.64432   0.15581   0.00000  Uiso   1.00
O333   O     0.36852   0.37421   0.31159   0.00000  Uiso   1.00
H334   H     0.39352   0.35716   0.31987   0.00000  Uiso   1.00
Cl335  Cl    0.53549   0.43050   0.30653   0.00000  Uiso   1.00
Cl336  Cl    0.46543   0.56450   0.18741   0.00000  Uiso   1.00
O337   O     0.43930   0.44002   0.30133   0.00000  Uiso   1.00
H338   H     0.40595   0.44940   0.30965   0.00000  Uiso   1.00
O339   O     0.56055   0.56001   0.19845   0.00000  Uiso   1.00
H340   H     0.59410   0.55119   0.19104   0.00000  Uiso   1.00
C341   C     0.99991   0.42083   0.25026   0.00000  Uiso   1.00
C342   C     0.66677   0.57909   0.24965   0.00000  Uiso   1.00
C343   C     0.86527   0.51281   0.04987   0.00000  Uiso   1.00
C344   C     0.81491   0.54871   0.45890   0.00000  Uiso   1.00
C345   C     0.91413   0.51099   0.02665   0.00000  Uiso   1.00
C346   C     0.76729   0.55597   0.48233   0.00000  Uiso   1.00
C347   C     0.98182   0.35650   0.21872   0.00000  Uiso   1.00
C348   C     0.68206   0.64307   0.28287   0.00000  Uiso   1.00
C349   C     0.98451   0.64647   0.21690   0.00000  Uiso   1.00
C350   C     0.68420   0.35325   0.28174   0.00000  Uiso   1.00
C351   C     0.66672   0.62372   0.24974   0.00000  Uiso   1.00
C352   C     0.99981   0.37605   0.25023   0.00000  Uiso   1.00
C353   C     0.85069   0.47043   0.27443   0.00000  Uiso   1.00
C354   C     0.81621   0.52862   0.22425   0.00000  Uiso   1.00
C355   C     0.80149   0.47078   0.27519   0.00000  Uiso   1.00
C356   C     0.86515   0.52912   0.22458   0.00000  Uiso   1.00
C357   C     0.97224   0.50044   0.33629   0.00000  Uiso   1.00
C358   C     0.69426   0.50078   0.16398   0.00000  Uiso   1.00
C359   C     0.95632   0.50404   0.38585   0.00000  Uiso   1.00
C360   C     0.71068   0.50872   0.11505   0.00000  Uiso   1.00
C361   C     0.97718   0.50651   0.45638   0.00000  Uiso   1.00
C362   C     0.70022   0.54615   0.04912   0.00000  Uiso   1.00
C363   C     0.99105   0.50420   0.40979   0.00000  Uiso   1.00
C364   C     0.68162   0.53148   0.09348   0.00000  Uiso   1.00
C365   C     0.90687   0.50841   0.40968   0.00000  Uiso   1.00
C366   C     0.75858   0.49974   0.09136   0.00000  Uiso   1.00
C367   C     0.89377   0.51692   0.45576   0.00000  Uiso   1.00
C368   C     0.77971   0.51957   0.04875   0.00000  Uiso   1.00
C369   C     0.92862   0.51175   0.47968   0.00000  Uiso   1.00
C370   C     0.74895   0.54056   0.02664   0.00000  Uiso   1.00
C371   C     0.84593   0.52712   0.47971   0.00000  Uiso   1.00
C372   C     0.82999   0.51842   0.02659   0.00000  Uiso   1.00
Cu373  Cu    0.71355   0.50001   0.25000   0.00000  Uiso   1.00
Cu374  Cu    0.95311   0.49999   0.25000   0.00000  Uiso   1.00
H375   H     0.94035   0.50730   0.04553   0.00000  Uiso   1.00
H376   H     0.74445   0.57281   0.46537   0.00000  Uiso   1.00
H377   H     0.97810   0.53867   0.11117   0.00000  Uiso   1.00
H378   H     0.69567   0.50085   0.39271   0.00000  Uiso   1.00
H379   H     0.67112   0.50395   0.47423   0.00000  Uiso   1.00
H380   H     0.67686   0.56308   0.03282   0.00000  Uiso   1.00
H381   H     0.85582   0.51243   0.08612   0.00000  Uiso   1.00
H382   H     0.82790   0.56168   0.42483   0.00000  Uiso   1.00
N383   N     0.78403   0.50001   0.24999   0.00000  Uiso   1.00
N384   N     0.88264   0.49999   0.25001   0.00000  Uiso   1.00
O385   O     0.70625   0.43989   0.25000   0.00000  Uiso   1.00
O386   O     0.96042   0.56011   0.25000   0.00000  Uiso   1.00
O387   O     0.96039   0.43988   0.25000   0.00000  Uiso   1.00
O388   O     0.70628   0.56012   0.24999   0.00000  Uiso   1.00
O389   O     0.68519   0.50001   0.31491   0.00000  Uiso   1.00
O390   O     0.98148   0.49999   0.18508   0.00000  Uiso   1.00
O391   O     0.93933   0.50000   0.31492   0.00000  Uiso   1.00
O392   O     0.72733   0.50000   0.18508   0.00000  Uiso   1.00
Cl393  Cl    0.78682   0.45701   0.11127   0.00000  Uiso   1.00
Cl394  Cl    0.86045   0.49303   0.38630   0.00000  Uiso   1.00
O395   O     0.96300   0.38052   0.18980   0.00000  Uiso   1.00
H396   H     0.93829   0.36404   0.18137   0.00000  Uiso   1.00
O397   O     0.69325   0.61866   0.31628   0.00000  Uiso   1.00
H398   H     0.68684   0.63432   0.34391   0.00000  Uiso   1.00
O399   O     0.97387   0.62557   0.18300   0.00000  Uiso   1.00
H400   H     0.97961   0.64432   0.15581   0.00000  Uiso   1.00
O401   O     0.70185   0.37421   0.31159   0.00000  Uiso   1.00
H402   H     0.72685   0.35716   0.31987   0.00000  Uiso   1.00
Cl403  Cl    0.86882   0.43050   0.30653   0.00000  Uiso   1.00
Cl404  Cl    0.79876   0.56450   0.18741   0.00000  Uiso   1.00
O405   O     0.77264   0.44002   0.30133   0.00000  Uiso   1.00
H406   H     0.73929   0.44940   0.30965   0.00000  Uiso   1.00
O407   O     0.89388   0.56001   0.19845   0.00000  Uiso   1.00
H408   H     0.92743   0.55119   0.19104   0.00000  Uiso   1.00
C409   C     0.33324   0.75417   0.25026   0.00000  Uiso   1.00
C410   C     0.00010   0.91242   0.24965   0.00000  Uiso   1.00
C411   C     0.19861   0.84614   0.04987   0.00000  Uiso   1.00
C412   C     0.14824   0.88205   0.45890   0.00000  Uiso   1.00
C413   C     0.24746   0.84433   0.02665   0.00000  Uiso   1.00
C414   C     0.10062   0.88931   0.48233   0.00000  Uiso   1.00
C415   C     0.31515   0.68983   0.21872   0.00000  Uiso   1.00
C416   C     0.01539   0.97641   0.28287   0.00000  Uiso   1.00
C417   C     0.31784   0.97981   0.21690   0.00000  Uiso   1.00
C418   C     0.01753   0.68658   0.28174   0.00000  Uiso   1.00
C419   C     0.00005   0.95706   0.24974   0.00000  Uiso   1.00
C420   C     0.33314   0.70938   0.25023   0.00000  Uiso   1.00
C421   C     0.18402   0.80376   0.27443   0.00000  Uiso   1.00
C422   C     0.14955   0.86195   0.22425   0.00000  Uiso   1.00
C423   C     0.13483   0.80412   0.27519   0.00000  Uiso   1.00
C424   C     0.19849   0.86246   0.22458   0.00000  Uiso   1.00
C425   C     0.30557   0.83377   0.33629   0.00000  Uiso   1.00
C426   C     0.02759   0.83411   0.16398   0.00000  Uiso   1.00
C427   C     0.28966   0.83737   0.38585   0.00000  Uiso   1.00
C428   C     0.04401   0.84205   0.11505   0.00000  Uiso   1.00
C429   C     0.31051   0.83984   0.45638   0.00000  Uiso   1.00
C430   C     0.03355   0.87949   0.04912   0.00000  Uiso   1.00
C431   C     0.32438   0.83754   0.40979   0.00000  Uiso   1.00
C432   C     0.01496   0.86481   0.09348   0.00000  Uiso   1.00
C433   C     0.24020   0.84174   0.40968   0.00000  Uiso   1.00
C434   C     0.09191   0.83308   0.09136   0.00000  Uiso   1.00
C435   C     0.22710   0.85026   0.45576   0.00000  Uiso   1.00
C436   C     0.11304   0.85290   0.04875   0.00000  Uiso   1.00
C437   C     0.26195   0.84508   0.47968   0.00000  Uiso   1.00
C438   C     0.08228   0.87390   0.02664   0.00000  Uiso   1.00
C439   C     0.17926   0.86046   0.47971   0.00000  Uiso   1.00
C440   C     0.16333   0.85176   0.02659   0.00000  Uiso   1.00
Cu441  Cu    0.04689   0.83334   0.25000   0.00000  Uiso   1.00
Cu442  Cu    0.28645   0.83333   0.25000   0.00000  Uiso   1.00
H443   H     0.27368   0.84063   0.04553   0.00000  Uiso   1.00
H444   H     0.07779   0.90615   0.46537   0.00000  Uiso   1.00
H445   H     0.31143   0.87200   0.11117   0.00000  Uiso   1.00
H446   H     0.02900   0.83419   0.39271   0.00000  Uiso   1.00
H447   H     0.00446   0.83728   0.47423   0.00000  Uiso   1.00
H448   H     0.01020   0.89641   0.03282   0.00000  Uiso   1.00
H449   H     0.18916   0.84577   0.08612   0.00000  Uiso   1.00
H450   H     0.16124   0.89501   0.42483   0.00000  Uiso   1.00
N451   N     0.11736   0.83334   0.24999   0.00000  Uiso   1.00
N452   N     0.21597   0.83332   0.25001   0.00000  Uiso   1.00
O453   O     0.03958   0.77322   0.25000   0.00000  Uiso   1.00
O454   O     0.29375   0.89345   0.25000   0.00000  Uiso   1.00
O455   O     0.29372   0.77321   0.25000   0.00000  Uiso   1.00
O456   O     0.03961   0.89346   0.24999   0.00000  Uiso   1.00
O457   O     0.01852   0.83334   0.31491   0.00000  Uiso   1.00
O458   O     0.31481   0.83332   0.18508   0.00000  Uiso   1.00
O459   O     0.27267   0.83333   0.31492   0.00000  Uiso   1.00
O460   O     0.06067   0.83333   0.18508   0.00000  Uiso   1.00
Cl461  Cl    0.12015   0.79035   0.11127   0.00000  Uiso   1.00
Cl462  Cl    0.19378   0.82636   0.38630   0.00000  Uiso   1.00
O463   O     0.29634   0.71386   0.18980   0.00000  Uiso   1.00
H464   H     0.27162   0.69738   0.18137   0.00000  Uiso   1.00
O465   O     0.02659   0.95199   0.31628   0.00000  Uiso   1.00
H466   H     0.02017   0.96765   0.34391   0.00000  Uiso   1.00
O467   O     0.30720   0.95891   0.18300   0.00000  Uiso   1.00
H468   H     0.31294   0.97765   0.15581   0.00000  Uiso   1.00
O469   O     0.03518   0.70755   0.31159   0.00000  Uiso   1.00
H470   H     0.06018   0.69050   0.31987   0.00000  Uiso   1.00
Cl471  Cl    0.20215   0.76384   0.30653   0.00000  Uiso   1.00
Cl472  Cl    0.13209   0.89783   0.18741   0.00000  Uiso   1.00
O473   O     0.10597   0.77335   0.30133   0.00000  Uiso   1.00
H474   H     0.07262   0.78274   0.30965   0.00000  Uiso   1.00
O475   O     0.22721   0.89334   0.19845   0.00000  Uiso   1.00
H476   H     0.26076   0.88452   0.19104   0.00000  Uiso   1.00
C477   C     0.66657   0.75417   0.25026   0.00000  Uiso   1.00
C478   C     0.33343   0.91242   0.24965   0.00000  Uiso   1.00
C479   C     0.53194   0.84614   0.04987   0.00000  Uiso   1.00
C480   C     0.48158   0.88205   0.45890   0.00000  Uiso   1.00
C481   C     0.58080   0.84433   0.02665   0.00000  Uiso   1.00
C482   C     0.43396   0.88931   0.48233   0.00000  Uiso   1.00
C483   C     0.64849   0.68983   0.21872   0.00000  Uiso   1.00
C484   C     0.34872   0.97641   0.28287   0.00000  Uiso   1.00
C485   C     0.65117   0.97981   0.21690   0.00000  Uiso   1.00
C486   C     0.35086   0.68658   0.28174   0.00000  Uiso   1.00
C487   C     0.33338   0.95706   0.24974   0.00000  Uiso   1.00
C488   C     0.66647   0.70938   0.25023   0.00000  Uiso   1.00
C489   C     0.51735   0.80376   0.27443   0.00000  Uiso   1.00
C490   C     0.48288   0.86195   0.22425   0.00000  Uiso   1.00
C491   C     0.46816   0.80412   0.27519   0.00000  Uiso   1.00
C492   C     0.53182   0.86246   0.22458   0.00000  Uiso   1.00
C493   C     0.63890   0.83377   0.33629   0.00000  Uiso   1.00
C494   C     0.36092   0.83411   0.16398   0.00000  Uiso   1.00
C495   C     0.62299   0.83737   0.38585   0.00000  Uiso   1.00
C496   C     0.37735   0.84205   0.11505   0.00000  Uiso   1.00
C497   C     0.64385   0.83984   0.45638   0.00000  Uiso   1.00
C498   C     0.36689   0.87949   0.04912   0.00000  Uiso   1.00
C499   C     0.65772   0.83754   0.40979   0.00000  Uiso   1.00
C500   C     0.34829   0.86481   0.09348   0.00000  Uiso   1.00
C501   C     0.57354   0.84174   0.40968   0.00000  Uiso   1.00
C502   C     0.42524   0.83308   0.09136   0.00000  Uiso   1.00
C503   C     0.56044   0.85026   0.45576   0.00000  Uiso   1.00
C504   C     0.44638   0.85290   0.04875   0.00000  Uiso   1.00
C505   C     0.59529   0.84508   0.47968   0.00000  Uiso   1.00
C506   C     0.41561   0.87390   0.02664   0.00000  Uiso   1.00
C507   C     0.51260   0.86046   0.47971   0.00000  Uiso   1.00
C508   C     0.49666   0.85176   0.02659   0.00000  Uiso   1.00
Cu509  Cu    0.38022   0.83334   0.25000   0.00000  Uiso   1.00
Cu510  Cu    0.61978   0.83333   0.25000   0.00000  Uiso   1.00
H511   H     0.60701   0.84063   0.04553   0.00000  Uiso   1.00
H512   H     0.41112   0.90615   0.46537   0.00000  Uiso   1.00
H513   H     0.64476   0.87200   0.11117   0.00000  Uiso   1.00
H514   H     0.36233   0.83419   0.39271   0.00000  Uiso   1.00
H515   H     0.33779   0.83728   0.47423   0.00000  Uiso   1.00
H516   H     0.34353   0.89641   0.03282   0.00000  Uiso   1.00
H517   H     0.52249   0.84577   0.08612   0.00000  Uiso   1.00
H518   H     0.49457   0.89501   0.42483   0.00000  Uiso   1.00
N519   N     0.45069   0.83334   0.24999   0.00000  Uiso   1.00
N520   N     0.54931   0.83332   0.25001   0.00000  Uiso   1.00
O521   O     0.37291   0.77322   0.25000   0.00000  Uiso   1.00
O522   O     0.62709   0.89345   0.25000   0.00000  Uiso   1.00
O523   O     0.62706   0.77321   0.25000   0.00000  Uiso   1.00
O524   O     0.37294   0.89346   0.24999   0.00000  Uiso   1.00
O525   O     0.35186   0.83334   0.31491   0.00000  Uiso   1.00
O526   O     0.64814   0.83332   0.18508   0.00000  Uiso   1.00
O527   O     0.60600   0.83333   0.31492   0.00000  Uiso   1.00
O528   O     0.39400   0.83333   0.18508   0.00000  Uiso   1.00
Cl529  Cl    0.45349   0.79035   0.11127   0.00000  Uiso   1.00
Cl530  Cl    0.52711   0.82636   0.38630   0.00000  Uiso   1.00
O531   O     0.62967   0.71386   0.18980   0.00000  Uiso   1.00
H532   H     0.60496   0.69738   0.18137   0.00000  Uiso   1.00
O533   O     0.35992   0.95199   0.31628   0.00000  Uiso   1.00
H534   H     0.35351   0.96765   0.34391   0.00000  Uiso   1.00
O535   O     0.64053   0.95891   0.18300   0.00000  Uiso   1.00
H536   H     0.64627   0.97765   0.15581   0.00000  Uiso   1.00
O537   O     0.36852   0.70755   0.31159   0.00000  Uiso   1.00
H538   H     0.39352   0.69050   0.31987   0.00000  Uiso   1.00
Cl539  Cl    0.53549   0.76384   0.30653   0.00000  Uiso   1.00
Cl540  Cl    0.46543   0.89783   0.18741   0.00000  Uiso   1.00
O541   O     0.43930   0.77335   0.30133   0.00000  Uiso   1.00
H542   H     0.40595   0.78274   0.30965   0.00000  Uiso   1.00
O543   O     0.56055   0.89334   0.19845   0.00000  Uiso   1.00
H544   H     0.59410   0.88452   0.19104   0.00000  Uiso   1.00
C545   C     0.99991   0.75417   0.25026   0.00000  Uiso   1.00
C546   C     0.66677   0.91242   0.24965   0.00000  Uiso   1.00
C547   C     0.86527   0.84614   0.04987   0.00000  Uiso   1.00
C548   C     0.81491   0.88205   0.45890   0.00000  Uiso   1.00
C549   C     0.91413   0.84433   0.02665   0.00000  Uiso   1.00
C550   C     0.76729   0.88931   0.48233   0.00000  Uiso   1.00
C551   C     0.98182   0.68983   0.21872   0.00000  Uiso   1.00
C552   C     0.68206   0.97641   0.28287   0.00000  Uiso   1.00
C553   C     0.98451   0.97981   0.21690   0.00000  Uiso   1.00
C554   C     0.68420   0.68658   0.28174   0.00000  Uiso   1.00
C555   C     0.66672   0.95706   0.24974   0.00000  Uiso   1.00
C556   C     0.99981   0.70938   0.25023   0.00000  Uiso   1.00
C557   C     0.85069   0.80376   0.27443   0.00000  Uiso   1.00
C558   C     0.81621   0.86195   0.22425   0.00000  Uiso   1.00
C559   C     0.80149   0.80412   0.27519   0.00000  Uiso   1.00
C560   C     0.86515   0.86246   0.22458   0.00000  Uiso   1.00
C561   C     0.97224   0.83377   0.33629   0.00000  Uiso   1.00
C562   C     0.69426   0.83411   0.16398   0.00000  Uiso   1.00
C563   C     0.95632   0.83737   0.38585   0.00000  Uiso   1.00
C564   C     0.71068   0.84205   0.11505   0.00000  Uiso   1.00
C565   C     0.97718   0.83984   0.45638   0.00000  Uiso   1.00
C566   C     0.70022   0.87949   0.04912   0.00000  Uiso   1.00
C567   C     0.99105   0.83754   0.40979   0.00000  Uiso   1.00
C568   C     0.68162   0.86481   0.09348   0.00000  Uiso   1.00
C569   C     0.90687   0.84174   0.40968   0.00000  Uiso   1.00
C570   C     0.75858   0.83308   0.09136   0.00000  Uiso   1.00
C571   C     0.89377   0.85026   0.45576   0.00000  Uiso   1.00
C572   C     0.77971   0.85290   0.04875   0.00000  Uiso   1.00
C573   C     0.92862   0.84508   0.47968   0.00000  Uiso   1.00
C574   C     0.74895   0.87390   0.02664   0.00000  Uiso   1.00
C575   C     0.84593   0.86046   0.47971   0.00000  Uiso   1.00
C576   C     0.82999   0.85176   0.02659   0.00000  Uiso   1.00
Cu577  Cu    0.71355   0.83334   0.25000   0.00000  Uiso   1.00
Cu578  Cu    0.95311   0.83333   0.25000   0.00000  Uiso   1.00
H579   H     0.94035   0.84063   0.04553   0.00000  Uiso   1.00
H580   H     0.74445   0.90615   0.46537   0.00000  Uiso   1.00
H581   H     0.97810   0.87200   0.11117   0.00000  Uiso   1.00
H582   H     0.69567   0.83419   0.39271   0.00000  Uiso   1.00
H583   H     0.67112   0.83728   0.47423   0.00000  Uiso   1.00
H584   H     0.67686   0.89641   0.03282   0.00000  Uiso   1.00
H585   H     0.85582   0.84577   0.08612   0.00000  Uiso   1.00
H586   H     0.82790   0.89501   0.42483   0.00000  Uiso   1.00
N587   N     0.78403   0.83334   0.24999   0.00000  Uiso   1.00
N588   N     0.88264   0.83332   0.25001   0.00000  Uiso   1.00
O589   O     0.70625   0.77322   0.25000   0.00000  Uiso   1.00
O590   O     0.96042   0.89345   0.25000   0.00000  Uiso   1.00
O591   O     0.96039   0.77321   0.25000   0.00000  Uiso   1.00
O592   O     0.70628   0.89346   0.24999   0.00000  Uiso   1.00
O593   O     0.68519   0.83334   0.31491   0.00000  Uiso   1.00
O594   O     0.98148   0.83332   0.18508   0.00000  Uiso   1.00
O595   O     0.93933   0.83333   0.31492   0.00000  Uiso   1.00
O596   O     0.72733   0.83333   0.18508   0.00000  Uiso   1.00
Cl597  Cl    0.78682   0.79035   0.11127   0.00000  Uiso   1.00
Cl598  Cl    0.86045   0.82636   0.38630   0.00000  Uiso   1.00
O599   O     0.96300   0.71386   0.18980   0.00000  Uiso   1.00
H600   H     0.93829   0.69738   0.18137   0.00000  Uiso   1.00
O601   O     0.69325   0.95199   0.31628   0.00000  Uiso   1.00
H602   H     0.68684   0.96765   0.34391   0.00000  Uiso   1.00
O603   O     0.97387   0.95891   0.18300   0.00000  Uiso   1.00
H604   H     0.97961   0.97765   0.15581   0.00000  Uiso   1.00
O605   O     0.70185   0.70755   0.31159   0.00000  Uiso   1.00
H606   H     0.72685   0.69050   0.31987   0.00000  Uiso   1.00
Cl607  Cl    0.86882   0.76384   0.30653   0.00000  Uiso   1.00
Cl608  Cl    0.79876   0.89783   0.18741   0.00000  Uiso   1.00
O609   O     0.77264   0.77335   0.30133   0.00000  Uiso   1.00
H610   H     0.73929   0.78274   0.30965   0.00000  Uiso   1.00
O611   O     0.89388   0.89334   0.19845   0.00000  Uiso   1.00
H612   H     0.92743   0.88452   0.19104   0.00000  Uiso   1.00
C613   C     0.33324   0.08750   0.75026   0.00000  Uiso   1.00
C614   C     0.00010   0.24576   0.74965   0.00000  Uiso   1.00
C615   C     0.19861   0.17948   0.54987   0.00000  Uiso   1.00
C616   C     0.14824   0.21538   0.95890   0.00000  Uiso   1.00
C617   C     0.24746   0.17766   0.52665   0.00000  Uiso   1.00
C618   C     0.10062   0.22264   0.98233   0.00000  Uiso   1.00
C619   C     0.31515   0.02316   0.71872   0.00000  Uiso   1.00
C620   C     0.01539   0.30974   0.78287   0.00000  Uiso   1.00
C621   C     0.31784   0.31314   0.71690   0.00000  Uiso   1.00
C622   C     0.01753   0.01991   0.78174   0.00000  Uiso   1.00
C623   C     0.00005   0.29039   0.74974   0.00000  Uiso   1.00
C624   C     0.33314   0.04272   0.75023   0.00000  Uiso   1.00
C625   C     0.18402   0.13709   0.77443   0.00000  Uiso   1.00
C626   C     0.14955   0.19528   0.72425   0.00000  Uiso   1.00
C627   C     0.13483   0.13745   0.77519   0.00000  Uiso   1.00
C628   C     0.19849   0.19579   0.72458   0.00000  Uiso   1.00
C629   C     0.30557   0.16711   0.83629   0.00000  Uiso   1.00
C630   C     0.02759   0.16745   0.66398   0.00000  Uiso   1.00
C631   C     0.28966   0.17070   0.88585   0.00000  Uiso   1.00
C632   C     0.04401   0.17538   0.61505   0.00000  Uiso   1.00
C633   C     0.31051   0.17318   0.95638   0.00000  Uiso   1.00
C634   C     0.03355   0.21282   0.54912   0.00000  Uiso   1.00
C635   C     0.32438   0.17087   0.90979   0.00000  Uiso   1.00
C636   C     0.01496   0.19814   0.59348   0.00000  Uiso   1.00
C637   C     0.24020   0.17507   0.90968   0.00000  Uiso   1.00
C638   C     0.09191   0.16641   0.59136   0.00000  Uiso   1.00
C639   C     0.22710   0.18359   0.95576   0.00000  Uiso   1.00
C640   C     0.11304   0.18623   0.54875   0.00000  Uiso   1.00
C641   C     0.26195   0.17841   0.97968   0.00000  Uiso   1.00
C642   C     0.08228   0.20723   0.52664   0.00000  Uiso   1.00
C643   C     0.17926   0.19379   0.97971   0.00000  Uiso   1.00
C644   C     0.16333   0.18509   0.52659   0.00000  Uiso   1.00
Cu645  Cu    0.04689   0.16667   0.75000   0.00000  Uiso   1.00
Cu646  Cu    0.28645   0.16666   0.75000   0.00000  Uiso   1.00
H647   H     0.27368   0.17397   0.54553   0.00000  Uiso   1.00
H648   H     0.07779   0.23948   0.96537   0.00000  Uiso   1.00
H649   H     0.31143   0.20534   0.61117   0.00000  Uiso   1.00
H650   H     0.02900   0.16752   0.89271   0.00000  Uiso   1.00
H651   H     0.00446   0.17062   0.97423   0.00000  Uiso   1.00
H652   H     0.01020   0.22974   0.53282   0.00000  Uiso   1.00
H653   H     0.18916   0.17910   0.58612   0.00000  Uiso   1.00
H654   H     0.16124   0.22834   0.92483   0.00000  Uiso   1.00
N655   N     0.11736   0.16668   0.74999   0.00000  Uiso   1.00
N656   N     0.21597   0.16666   0.75001   0.00000  Uiso   1.00
O657   O     0.03958   0.10655   0.75000   0.00000  Uiso   1.00
O658   O     0.29375   0.22678   0.75000   0.00000  Uiso   1.00
O659   O     0.29372   0.10654   0.75000   0.00000  Uiso   1.00
O660   O     0.03961   0.22679   0.74999   0.00000  Uiso   1.00
O661   O     0.01852   0.16668   0.81491   0.00000  Uiso   1.00
O662   O     0.31481   0.16666   0.68508   0.00000  Uiso   1.00
O663   O     0.27267   0.16667   0.81492   0.00000  Uiso   1.00
O664   O     0.06067   0.16667   0.68508   0.00000  Uiso   1.00
Cl665  Cl    0.12015   0.12368   0.61127   0.00000  Uiso   1.00
Cl666  Cl    0.19378   0.15969   0.88630   0.00000  Uiso   1.00
O667   O     0.29634   0.04719   0.68980   0.00000  Uiso   1.00
H668   H     0.27162   0.03071   0.68137   0.00000  Uiso   1.00
O669   O     0.02659   0.28533   0.81628   0.00000  Uiso   1.00
H670   H     0.02017   0.30098   0.84391   0.00000  Uiso   1.00
O671   O     0.30720   0.29224   0.68300   0.00000  Uiso   1.00
H672   H     0.31294   0.31098   0.65581   0.00000  Uiso   1.00
O673   O     0.03518   0.04088   0.81159   0.00000  Uiso   1.00
H674   H     0.06018   0.02383   0.81987   0.00000  Uiso   1.00
Cl675  Cl    0.20215   0.09717   0.80653   0.00000  Uiso   1.00
Cl676  Cl    0.13209   0.23117   0.68741   0.00000  Uiso   1.00
O677   O     0.10597   0.10669   0.80133   0.00000  Uiso   1.00
H678   H     0.07262   0.11607   0.80965   0.00000  Uiso   1.00
O679   O     0.22721   0.22667   0.69845   0.00000  Uiso   1.00
H680   H     0.26076   0.21785   0.69104   0.00000  Uiso   1.00
C681   C     0.66657   0.08750   0.75026   0.00000  Uiso   1.00
C682   C     0.33343   0.24576   0.74965   0.00000  Uiso   1.00
C683   C     0.53194   0.17948   0.54987   0.00000  Uiso   1.00
C684   C     0.48158   0.21538   0.95890   0.00000  Uiso   1.00
C685   C     0.58080   0.17766   0.52665   0.00000  Uiso   1.00
C686   C     0.43396   0.22264   0.98233   0.00000  Uiso   1.00
C687   C     0.64849   0.02316   0.71872   0.00000  Uiso   1.00
C688   C     0.34872   0.30974   0.78287   0.00000  Uiso   1.00
C689   C     0.65117   0.31314   0.71690   0.00000  Uiso   1.00
C690   C     0.35086   0.01991   0.78174   0.00000  Uiso   1.00
C691   C     0.33338   0.29039   0.74974   0.00000  Uiso   1.00
C692   C     0.66647   0.04272   0.75023   0.00000  Uiso   1.00
C693   C     0.51735   0.13709   0.77443   0.00000  Uiso   1.00
C694   C     0.48288   0.19528   0.72425   0.00000  Uiso   1.00
C695   C     0.46816   0.13745   0.77519   0.00000  Uiso   1.00
C696   C     0.53182   0.19579   0.72458   0.00000  Uiso   1.00
C697   C     0.63890   0.16711   0.83629   0.00000  Uiso   1.00
C698   C     0.36092   0.16745   0.66398   0.00000  Uiso   1.00
C699   C     0.62299   0.17070   0.88585   0.00000  Uiso   1.00
C700   C     0.37735   0.17538   0.61505   0.00000  Uiso   1.00
C701   C     0.64385   0.17318   0.95638   0.00000  Uiso   1.00
C702   C     0.36689   0.21282   0.54912   0.00000  Uiso   1.00
C703   C     0.65772   0.17087   0.90979   0.00000  Uiso   1.00
C704   C     0.34829   0.19814   0.59348   0.00000  Uiso   1.00
C705   C     0.57354   0.17507   0.90968   0.00000  Uiso   1.00
C706   C     0.42524   0.16641   0.59136   0.00000  Uiso   1.00
C707   C     0.56044   0.18359   0.95576   0.00000  Uiso   1.00
C708   C     0.44638   0.18623   0.54875   0.00000  Uiso   1.00
C709   C     0.59529   0.17841   0.97968   0.00000  Uiso   1.00
C710   C     0.41561   0.20723   0.52664   0.00000  Uiso   1.00
C711   C     0.51260   0.19379   0.97971   0.00000  Uiso   1.00
C712   C     0.49666   0.18509   0.52659   0.00000  Uiso   1.00
Cu713  Cu    0.38022   0.16667   0.75000   0.00000  Uiso   1.00
Cu714  Cu    0.61978   0.16666   0.75000   0.00000  Uiso   1.00
H715   H     0.60701   0.17397   0.54553   0.00000  Uiso   1.00
H716   H     0.41112   0.23948   0.96537   0.00000  Uiso   1.00
H717   H     0.64476   0.20534   0.61117   0.00000  Uiso   1.00
H718   H     0.36233   0.16752   0.89271   0.00000  Uiso   1.00
H719   H     0.33779   0.17062   0.97423   0.00000  Uiso   1.00
H720   H     0.34353   0.22974   0.53282   0.00000  Uiso   1.00
H721   H     0.52249   0.17910   0.58612   0.00000  Uiso   1.00
H722   H     0.49457   0.22834   0.92483   0.00000  Uiso   1.00
N723   N     0.45069   0.16668   0.74999   0.00000  Uiso   1.00
N724   N     0.54931   0.16666   0.75001   0.00000  Uiso   1.00
O725   O     0.37291   0.10655   0.75000   0.00000  Uiso   1.00
O726   O     0.62709   0.22678   0.75000   0.00000  Uiso   1.00
O727   O     0.62706   0.10654   0.75000   0.00000  Uiso   1.00
O728   O     0.37294   0.22679   0.74999   0.00000  Uiso   1.00
O729   O     0.35186   0.16668   0.81491   0.00000  Uiso   1.00
O730   O     0.64814   0.16666   0.68508   0.00000  Uiso   1.00
O731   O     0.60600   0.16667   0.81492   0.00000  Uiso   1.00
O732   O     0.39400   0.16667   0.68508   0.00000  Uiso   1.00
Cl733  Cl    0.45349   0.12368   0.61127   0.00000  Uiso   1.00
Cl734  Cl    0.52711   0.15969   0.88630   0.00000  Uiso   1.00
O735   O     0.62967   0.04719   0.68980   0.00000  Uiso   1.00
H736   H     0.60496   0.03071   0.68137   0.00000  Uiso   1.00
O737   O     0.35992   0.28533   0.81628   0.00000  Uiso   1.00
H738   H     0.35351   0.30098   0.84391   0.00000  Uiso   1.00
O739   O     0.64053   0.29224   0.68300   0.00000  Uiso   1.00
H740   H     0.64627   0.31098   0.65581   0.00000  Uiso   1.00
O741   O     0.36852   0.04088   0.81159   0.00000  Uiso   1.00
H742   H     0.39352   0.02383   0.81987   0.00000  Uiso   1.00
Cl743  Cl    0.53549   0.09717   0.80653   0.00000  Uiso   1.00
Cl744  Cl    0.46543   0.23117   0.68741   0.00000  Uiso   1.00
O745   O     0.43930   0.10669   0.80133   0.00000  Uiso   1.00
H746   H     0.40595   0.11607   0.80965   0.00000  Uiso   1.00
O747   O     0.56055   0.22667   0.69845   0.00000  Uiso   1.00
H748   H     0.59410   0.21785   0.69104   0.00000  Uiso   1.00
C749   C     0.99991   0.08750   0.75026   0.00000  Uiso   1.00
C750   C     0.66677   0.24576   0.74965   0.00000  Uiso   1.00
C751   C     0.86527   0.17948   0.54987   0.00000  Uiso   1.00
C752   C     0.81491   0.21538   0.95890   0.00000  Uiso   1.00
C753   C     0.91413   0.17766   0.52665   0.00000  Uiso   1.00
C754   C     0.76729   0.22264   0.98233   0.00000  Uiso   1.00
C755   C     0.98182   0.02316   0.71872   0.00000  Uiso   1.00
C756   C     0.68206   0.30974   0.78287   0.00000  Uiso   1.00
C757   C     0.98451   0.31314   0.71690   0.00000  Uiso   1.00
C758   C     0.68420   0.01991   0.78174   0.00000  Uiso   1.00
C759   C     0.66672   0.29039   0.74974   0.00000  Uiso   1.00
C760   C     0.99981   0.04272   0.75023   0.00000  Uiso   1.00
C761   C     0.85069   0.13709   0.77443   0.00000  Uiso   1.00
C762   C     0.81621   0.19528   0.72425   0.00000  Uiso   1.00
C763   C     0.80149   0.13745   0.77519   0.00000  Uiso   1.00
C764   C     0.86515   0.19579   0.72458   0.00000  Uiso   1.00
C765   C     0.97224   0.16711   0.83629   0.00000  Uiso   1.00
C766   C     0.69426   0.16745   0.66398   0.00000  Uiso   1.00
C767   C     0.95632   0.17070   0.88585   0.00000  Uiso   1.00
C768   C     0.71068   0.17538   0.61505   0.00000  Uiso   1.00
C769   C     0.97718   0.17318   0.95638   0.00000  Uiso   1.00
C770   C     0.70022   0.21282   0.54912   0.00000  Uiso   1.00
C771   C     0.99105   0.17087   0.90979   0.00000  Uiso   1.00
C772   C     0.68162   0.19814   0.59348   0.00000  Uiso   1.00
C773   C     0.90687   0.17507   0.90968   0.00000  Uiso   1.00
C774   C     0.75858   0.16641   0.59136   0.00000  Uiso   1.00
C775   C     0.89377   0.18359   0.95576   0.00000  Uiso   1.00
C776   C     0.77971   0.18623   0.54875   0.00000  Uiso   1.00
C777   C     0.92862   0.17841   0.97968   0.00000  Uiso   1.00
C778   C     0.74895   0.20723   0.52664   0.00000  Uiso   1.00
C779   C     0.84593   0.19379   0.97971   0.00000  Uiso   1.00
C780   C     0.82999   0.18509   0.52659   0.00000  Uiso   1.00
Cu781  Cu    0.71355   0.16667   0.75000   0.00000  Uiso   1.00
Cu782  Cu    0.95311   0.16666   0.75000   0.00000  Uiso   1.00
H783   H     0.94035   0.17397   0.54553   0.00000  Uiso   1.00
H784   H     0.74445   0.23948   0.96537   0.00000  Uiso   1.00
H785   H     0.97810   0.20534   0.61117   0.00000  Uiso   1.00
H786   H     0.69567   0.16752   0.89271   0.00000  Uiso   1.00
H787   H     0.67112   0.17062   0.97423   0.00000  Uiso   1.00
H788   H     0.67686   0.22974   0.53282   0.00000  Uiso   1.00
H789   H     0.85582   0.17910   0.58612   0.00000  Uiso   1.00
H790   H     0.82790   0.22834   0.92483   0.00000  Uiso   1.00
N791   N     0.78403   0.16668   0.74999   0.00000  Uiso   1.00
N792   N     0.88264   0.16666   0.75001   0.00000  Uiso   1.00
O793   O     0.70625   0.10655   0.75000   0.00000  Uiso   1.00
O794   O     0.96042   0.22678   0.75000   0.00000  Uiso   1.00
O795   O     0.96039   0.10654   0.75000   0.00000  Uiso   1.00
O796   O     0.70628   0.22679   0.74999   0.00000  Uiso   1.00
O797   O     0.68519   0.16668   0.81491   0.00000  Uiso   1.00
O798   O     0.98148   0.16666   0.68508   0.00000  Uiso   1.00
O799   O     0.93933   0.16667   0.81492   0.00000  Uiso   1.00
O800   O     0.72733   0.16667   0.68508   0.00000  Uiso   1.00
Cl801  Cl    0.78682   0.12368   0.61127   0.00000  Uiso   1.00
Cl802  Cl    0.86045   0.15969   0.88630   0.00000  Uiso   1.00
O803   O     0.96300   0.04719   0.68980   0.00000  Uiso   1.00
H804   H     0.93829   0.03071   0.68137   0.00000  Uiso   1.00
O805   O     0.69325   0.28533   0.81628   0.00000  Uiso   1.00
H806   H     0.68684   0.30098   0.84391   0.00000  Uiso   1.00
O807   O     0.97387   0.29224   0.68300   0.00000  Uiso   1.00
H808   H     0.97961   0.31098   0.65581   0.00000  Uiso   1.00
O809   O     0.70185   0.04088   0.81159   0.00000  Uiso   1.00
H810   H     0.72685   0.02383   0.81987   0.00000  Uiso   1.00
Cl811  Cl    0.86882   0.09717   0.80653   0.00000  Uiso   1.00
Cl812  Cl    0.79876   0.23117   0.68741   0.00000  Uiso   1.00
O813   O     0.77264   0.10669   0.80133   0.00000  Uiso   1.00
H814   H     0.73929   0.11607   0.80965   0.00000  Uiso   1.00
O815   O     0.89388   0.22667   0.69845   0.00000  Uiso   1.00
H816   H     0.92743   0.21785   0.69104   0.00000  Uiso   1.00
C817   C     0.33324   0.42083   0.75026   0.00000  Uiso   1.00
C818   C     0.00010   0.57909   0.74965   0.00000  Uiso   1.00
C819   C     0.19861   0.51281   0.54987   0.00000  Uiso   1.00
C820   C     0.14824   0.54871   0.95890   0.00000  Uiso   1.00
C821   C     0.24746   0.51099   0.52665   0.00000  Uiso   1.00
C822   C     0.10062   0.55597   0.98233   0.00000  Uiso   1.00
C823   C     0.31515   0.35650   0.71872   0.00000  Uiso   1.00
C824   C     0.01539   0.64307   0.78287   0.00000  Uiso   1.00
C825   C     0.31784   0.64647   0.71690   0.00000  Uiso   1.00
C826   C     0.01753   0.35325   0.78174   0.00000  Uiso   1.00
C827   C     0.00005   0.62372   0.74974   0.00000  Uiso   1.00
C828   C     0.33314   0.37605   0.75023   0.00000  Uiso   1.00
C829   C     0.18402   0.47043   0.77443   0.00000  Uiso   1.00
C830   C     0.14955   0.52862   0.72425   0.00000  Uiso   1.00
C831   C     0.13483   0.47078   0.77519   0.00000  Uiso   1.00
C832   C     0.19849   0.52912   0.72458   0.00000  Uiso   1.00
C833   C     0.30557   0.50044   0.83629   0.00000  Uiso   1.00
C834   C     0.02759   0.50078   0.66398   0.00000  Uiso   1.00
C835   C     0.28966   0.50404   0.88585   0.00000  Uiso   1.00
C836   C     0.04401   0.50872   0.61505   0.00000  Uiso   1.00
C837   C     0.31051   0.50651   0.95638   0.00000  Uiso   1.00
C838   C     0.03355   0.54615   0.54912   0.00000  Uiso   1.00
C839   C     0.32438   0.50420   0.90979   0.00000  Uiso   1.00
C840   C     0.01496   0.53148   0.59348   0.00000  Uiso   1.00
C841   C     0.24020   0.50841   0.90968   0.00000  Uiso   1.00
C842   C     0.09191   0.49974   0.59136   0.00000  Uiso   1.00
C843   C     0.22710   0.51692   0.95576   0.00000  Uiso   1.00
C844   C     0.11304   0.51957   0.54875   0.00000  Uiso   1.00
C845   C     0.26195   0.51175   0.97968   0.00000  Uiso   1.00
C846   C     0.08228   0.54056   0.52664   0.00000  Uiso   1.00
C847   C     0.17926   0.52712   0.97971   0.00000  Uiso   1.00
C848   C     0.16333   0.51842   0.52659   0.00000  Uiso   1.00
Cu849  Cu    0.04689   0.50001   0.75000   0.00000  Uiso   1.00
Cu850  Cu    0.28645   0.49999   0.75000   0.00000  Uiso   1.00
H851   H     0.27368   0.50730   0.54553   0.00000  Uiso   1.00
H852   H     0.07779   0.57281   0.96537   0.00000  Uiso   1.00
H853   H     0.31143   0.53867   0.61117   0.00000  Uiso   1.00
H854   H     0.02900   0.50085   0.89271   0.00000  Uiso   1.00
H855   H     0.00446   0.50395   0.97423   0.00000  Uiso   1.00
H856   H     0.01020   0.56308   0.53282   0.00000  Uiso   1.00
H857   H     0.18916   0.51243   0.58612   0.00000  Uiso   1.00
H858   H     0.16124   0.56168   0.92483   0.00000  Uiso   1.00
N859   N     0.11736   0.50001   0.74999   0.00000  Uiso   1.00
N860   N     0.21597   0.49999   0.75001   0.00000  Uiso   1.00
O861   O     0.03958   0.43989   0.75000   0.00000  Uiso   1.00
O862   O     0.29375   0.56011   0.75000   0.00000  Uiso   1.00
O863   O     0.29372   0.43988   0.75000   0.00000  Uiso   1.00
O864   O     0.03961   0.56012   0.74999   0.00000  Uiso   1.00
O865   O     0.01852   0.50001   0.81491   0.00000  Uiso   1.00
O866   O     0.31481   0.49999   0.68508   0.00000  Uiso   1.00
O867   O     0.27267   0.50000   0.81492   0.00000  Uiso   1.00
O868   O     0.06067   0.50000   0.68508   0.00000  Uiso   1.00
Cl869  Cl    0.12015   0.45701   0.61127   0.00000  Uiso   1.00
Cl870  Cl    0.19378   0.49303   0.88630   0.00000  Uiso   1.00
O871   O     0.29634   0.38052   0.68980   0.00000  Uiso   1.00
H872   H     0.27162   0.36404   0.68137   0.00000  Uiso   1.00
O873   O     0.02659   0.61866   0.81628   0.00000  Uiso   1.00
H874   H     0.02017   0.63432   0.84391   0.00000  Uiso   1.00
O875   O     0.30720   0.62557   0.68300   0.00000  Uiso   1.00
H876   H     0.31294   0.64432   0.65581   0.00000  Uiso   1.00
O877   O     0.03518   0.37421   0.81159   0.00000  Uiso   1.00
H878   H     0.06018   0.35716   0.81987   0.00000  Uiso   1.00
Cl879  Cl    0.20215   0.43050   0.80653   0.00000  Uiso   1.00
Cl880  Cl    0.13209   0.56450   0.68741   0.00000  Uiso   1.00
O881   O     0.10597   0.44002   0.80133   0.00000  Uiso   1.00
H882   H     0.07262   0.44940   0.80965   0.00000  Uiso   1.00
O883   O     0.22721   0.56001   0.69845   0.00000  Uiso   1.00
H884   H     0.26076   0.55119   0.69104   0.00000  Uiso   1.00
C885   C     0.66657   0.42083   0.75026   0.00000  Uiso   1.00
C886   C     0.33343   0.57909   0.74965   0.00000  Uiso   1.00
C887   C     0.53194   0.51281   0.54987   0.00000  Uiso   1.00
C888   C     0.48158   0.54871   0.95890   0.00000  Uiso   1.00
C889   C     0.58080   0.51099   0.52665   0.00000  Uiso   1.00
C890   C     0.43396   0.55597   0.98233   0.00000  Uiso   1.00
C891   C     0.64849   0.35650   0.71872   0.00000  Uiso   1.00
C892   C     0.34872   0.64307   0.78287   0.00000  Uiso   1.00
C893   C     0.65117   0.64647   0.71690   0.00000  Uiso   1.00
C894   C     0.35086   0.35325   0.78174   0.00000  Uiso   1.00
C895   C     0.33338   0.62372   0.74974   0.00000  Uiso   1.00
C896   C     0.66647   0.37605   0.75023   0.00000  Uiso   1.00
C897   C     0.51735   0.47043   0.77443   0.00000  Uiso   1.00
C898   C     0.48288   0.52862   0.72425   0.00000  Uiso   1.00
C899   C     0.46816   0.47078   0.77519   0.00000  Uiso   1.00
C900   C     0.53182   0.52912   0.72458   0.00000  Uiso   1.00
C901   C     0.63890   0.50044   0.83629   0.00000  Uiso   1.00
C902   C     0.36092   0.50078   0.66398   0.00000  Uiso   1.00
C903   C     0.62299   0.50404   0.88585   0.00000  Uiso   1.00
C904   C     0.37735   0.50872   0.61505   0.00000  Uiso   1.00
C905   C     0.64385   0.50651   0.95638   0.00000  Uiso   1.00
C906   C     0.36689   0.54615   0.54912   0.00000  Uiso   1.00
C907   C     0.65772   0.50420   0.90979   0.00000  Uiso   1.00
C908   C     0.34829   0.53148   0.59348   0.00000  Uiso   1.00
C909   C     0.57354   0.50841   0.90968   0.00000  Uiso   1.00
C910   C     0.42524   0.49974   0.59136   0.00000  Uiso   1.00
C911   C     0.56044   0.51692   0.95576   0.00000  Uiso   1.00
C912   C     0.44638   0.51957   0.54875   0.00000  Uiso   1.00
C913   C     0.59529   0.51175   0.97968   0.00000  Uiso   1.00
C914   C     0.41561   0.54056   0.52664   0.00000  Uiso   1.00
C915   C     0.51260   0.52712   0.97971   0.00000  Uiso   1.00
C916   C     0.49666   0.51842   0.52659   0.00000  Uiso   1.00
Cu917  Cu    0.38022   0.50001   0.75000   0.00000  Uiso   1.00
Cu918  Cu    0.61978   0.49999   0.75000   0.00000  Uiso   1.00
H919   H     0.60701   0.50730   0.54553   0.00000  Uiso   1.00
H920   H     0.41112   0.57281   0.96537   0.00000  Uiso   1.00
H921   H     0.64476   0.53867   0.61117   0.00000  Uiso   1.00
H922   H     0.36233   0.50085   0.89271   0.00000  Uiso   1.00
H923   H     0.33779   0.50395   0.97423   0.00000  Uiso   1.00
H924   H     0.34353   0.56308   0.53282   0.00000  Uiso   1.00
H925   H     0.52249   0.51243   0.58612   0.00000  Uiso   1.00
H926   H     0.49457   0.56168   0.92483   0.00000  Uiso   1.00
N927   N     0.45069   0.50001   0.74999   0.00000  Uiso   1.00
N928   N     0.54931   0.49999   0.75001   0.00000  Uiso   1.00
O929   O     0.37291   0.43989   0.75000   0.00000  Uiso   1.00
O930   O     0.62709   0.56011   0.75000   0.00000  Uiso   1.00
O931   O     0.62706   0.43988   0.75000   0.00000  Uiso   1.00
O932   O     0.37294   0.56012   0.74999   0.00000  Uiso   1.00
O933   O     0.35186   0.50001   0.81491   0.00000  Uiso   1.00
O934   O     0.64814   0.49999   0.68508   0.00000  Uiso   1.00
O935   O     0.60600   0.50000   0.81492   0.00000  Uiso   1.00
O936   O     0.39400   0.50000   0.68508   0.00000  Uiso   1.00
Cl937  Cl    0.45349   0.45701   0.61127   0.00000  Uiso   1.00
Cl938  Cl    0.52711   0.49303   0.88630   0.00000  Uiso   1.00
O939   O     0.62967   0.38052   0.68980   0.00000  Uiso   1.00
H940   H     0.60496   0.36404   0.68137   0.00000  Uiso   1.00
O941   O     0.35992   0.61866   0.81628   0.00000  Uiso   1.00
H942   H     0.35351   0.63432   0.84391   0.00000  Uiso   1.00
O943   O     0.64053   0.62557   0.68300   0.00000  Uiso   1.00
H944   H     0.64627   0.64432   0.65581   0.00000  Uiso   1.00
O945   O     0.36852   0.37421   0.81159   0.00000  Uiso   1.00
H946   H     0.39352   0.35716   0.81987   0.00000  Uiso   1.00
Cl947  Cl    0.53549   0.43050   0.80653   0.00000  Uiso   1.00
Cl948  Cl    0.46543   0.56450   0.68741   0.00000  Uiso   1.00
O949   O     0.43930   0.44002   0.80133   0.00000  Uiso   1.00
H950   H     0.40595   0.44940   0.80965   0.00000  Uiso   1.00
O951   O     0.56055   0.56001   0.69845   0.00000  Uiso   1.00
H952   H     0.59410   0.55119   0.69104   0.00000  Uiso   1.00
C953   C     0.99991   0.42083   0.75026   0.00000  Uiso   1.00
C954   C     0.66677   0.57909   0.74965   0.00000  Uiso   1.00
C955   C     0.86527   0.51281   0.54987   0.00000  Uiso   1.00
C956   C     0.81491   0.54871   0.95890   0.00000  Uiso   1.00
C957   C     0.91413   0.51099   0.52665   0.00000  Uiso   1.00
C958   C     0.76729   0.55597   0.98233   0.00000  Uiso   1.00
C959   C     0.98182   0.35650   0.71872   0.00000  Uiso   1.00
C960   C     0.68206   0.64307   0.78287   0.00000  Uiso   1.00
C961   C     0.98451   0.64647   0.71690   0.00000  Uiso   1.00
C962   C     0.68420   0.35325   0.78174   0.00000  Uiso   1.00
C963   C     0.66672   0.62372   0.74974   0.00000  Uiso   1.00
C964   C     0.99981   0.37605   0.75023   0.00000  Uiso   1.00
C965   C     0.85069   0.47043   0.77443   0.00000  Uiso   1.00
C966   C     0.81621   0.52862   0.72425   0.00000  Uiso   1.00
C967   C     0.80149   0.47078   0.77519   0.00000  Uiso   1.00
C968   C     0.86515   0.52912   0.72458   0.00000  Uiso   1.00
C969   C     0.97224   0.50044   0.83629   0.00000  Uiso   1.00
C970   C     0.69426   0.50078   0.66398   0.00000  Uiso   1.00
C971   C     0.95632   0.50404   0.88585   0.00000  Uiso   1.00
C972   C     0.71068   0.50872   0.61505   0.00000  Uiso   1.00
C973   C     0.97718   0.50651   0.95638   0.00000  Uiso   1.00
C974   C     0.70022   0.54615   0.54912   0.00000  Uiso   1.00
C975   C     0.99105   0.50420   0.90979   0.00000  Uiso   1.00
C976   C     0.68162   0.53148   0.59348   0.00000  Uiso   1.00
C977   C     0.90687   0.50841   0.90968   0.00000  Uiso   1.00
C978   C     0.75858   0.49974   0.59136   0.00000  Uiso   1.00
C979   C     0.89377   0.51692   0.95576   0.00000  Uiso   1.00
C980   C     0.77971   0.51957   0.54875   0.00000  Uiso   1.00
C981   C     0.92862   0.51175   0.97968   0.00000  Uiso   1.00
C982   C     0.74895   0.54056   0.52664   0.00000  Uiso   1.00
C983   C     0.84593   0.52712   0.97971   0.00000  Uiso   1.00
C984   C     0.82999   0.51842   0.52659   0.00000  Uiso   1.00
Cu985  Cu    0.71355   0.50001   0.75000   0.00000  Uiso   1.00
Cu986  Cu    0.95311   0.49999   0.75000   0.00000  Uiso   1.00
H987   H     0.94035   0.50730   0.54553   0.00000  Uiso   1.00
H988   H     0.74445   0.57281   0.96537   0.00000  Uiso   1.00
H989   H     0.97810   0.53867   0.61117   0.00000  Uiso   1.00
H990   H     0.69567   0.50085   0.89271   0.00000  Uiso   1.00
H991   H     0.67112   0.50395   0.97423   0.00000  Uiso   1.00
H992   H     0.67686   0.56308   0.53282   0.00000  Uiso   1.00
H993   H     0.85582   0.51243   0.58612   0.00000  Uiso   1.00
H994   H     0.82790   0.56168   0.92483   0.00000  Uiso   1.00
N995   N     0.78403   0.50001   0.74999   0.00000  Uiso   1.00
N996   N     0.88264   0.49999   0.75001   0.00000  Uiso   1.00
O997   O     0.70625   0.43989   0.75000   0.00000  Uiso   1.00
O998   O     0.96042   0.56011   0.75000   0.00000  Uiso   1.00
O999   O     0.96039   0.43988   0.75000   0.00000  Uiso   1.00
O1000  O     0.70628   0.56012   0.74999   0.00000  Uiso   1.00
O1001  O     0.68519   0.50001   0.81491   0.00000  Uiso   1.00
O1002  O     0.98148   0.49999   0.68508   0.00000  Uiso   1.00
O1003  O     0.93933   0.50000   0.81492   0.00000  Uiso   1.00
O1004  O     0.72733   0.50000   0.68508   0.00000  Uiso   1.00
Cl1005 Cl    0.78682   0.45701   0.61127   0.00000  Uiso   1.00
Cl1006 Cl    0.86045   0.49303   0.88630   0.00000  Uiso   1.00
O1007  O     0.96300   0.38052   0.68980   0.00000  Uiso   1.00
H1008  H     0.93829   0.36404   0.68137   0.00000  Uiso   1.00
O1009  O     0.69325   0.61866   0.81628   0.00000  Uiso   1.00
H1010  H     0.68684   0.63432   0.84391   0.00000  Uiso   1.00
O1011  O     0.97387   0.62557   0.68300   0.00000  Uiso   1.00
H1012  H     0.97961   0.64432   0.65581   0.00000  Uiso   1.00
O1013  O     0.70185   0.37421   0.81159   0.00000  Uiso   1.00
H1014  H     0.72685   0.35716   0.81987   0.00000  Uiso   1.00
Cl1015 Cl    0.86882   0.43050   0.80653   0.00000  Uiso   1.00
Cl1016 Cl    0.79876   0.56450   0.68741   0.00000  Uiso   1.00
O1017  O     0.77264   0.44002   0.80133   0.00000  Uiso   1.00
H1018  H     0.73929   0.44940   0.80965   0.00000  Uiso   1.00
O1019  O     0.89388   0.56001   0.69845   0.00000  Uiso   1.00
H1020  H     0.92743   0.55119   0.69104   0.00000  Uiso   1.00
C1021  C     0.33324   0.75417   0.75026   0.00000  Uiso   1.00
C1022  C     0.00010   0.91242   0.74965   0.00000  Uiso   1.00
C1023  C     0.19861   0.84614   0.54987   0.00000  Uiso   1.00
C1024  C     0.14824   0.88205   0.95890   0.00000  Uiso   1.00
C1025  C     0.24746   0.84433   0.52665   0.00000  Uiso   1.00
C1026  C     0.10062   0.88931   0.98233   0.00000  Uiso   1.00
C1027  C     0.31515   0.68983   0.71872   0.00000  Uiso   1.00
C1028  C     0.01539   0.97641   0.78287   0.00000  Uiso   1.00
C1029  C     0.31784   0.97981   0.71690   0.00000  Uiso   1.00
C1030  C     0.01753   0.68658   0.78174   0.00000  Uiso   1.00
C1031  C     0.00005   0.95706   0.74974   0.00000  Uiso   1.00
C1032  C     0.33314   0.70938   0.75023   0.00000  Uiso   1.00
C1033  C     0.18402   0.80376   0.77443   0.00000  Uiso   1.00
C1034  C     0.14955   0.86195   0.72425   0.00000  Uiso   1.00
C1035  C     0.13483   0.80412   0.77519   0.00000  Uiso   1.00
C1036  C     0.19849   0.86246   0.72458   0.00000  Uiso   1.00
C1037  C     0.30557   0.83377   0.83629   0.00000  Uiso   1.00
C1038  C     0.02759   0.83411   0.66398   0.00000  Uiso   1.00
C1039  C     0.28966   0.83737   0.88585   0.00000  Uiso   1.00
C1040  C     0.04401   0.84205   0.61505   0.00000  Uiso   1.00
C1041  C     0.31051   0.83984   0.95638   0.00000  Uiso   1.00
C1042  C     0.03355   0.87949   0.54912   0.00000  Uiso   1.00
C1043  C     0.32438   0.83754   0.90979   0.00000  Uiso   1.00
C1044  C     0.01496   0.86481   0.59348   0.00000  Uiso   1.00
C1045  C     0.24020   0.84174   0.90968   0.00000  Uiso   1.00
C1046  C     0.09191   0.83308   0.59136   0.00000  Uiso   1.00
C1047  C     0.22710   0.85026   0.95576   0.00000  Uiso   1.00
C1048  C     0.11304   0.85290   0.54875   0.00000  Uiso   1.00
C1049  C     0.26195   0.84508   0.97968   0.00000  Uiso   1.00
C1050  C     0.08228   0.87390   0.52664   0.00000  Uiso   1.00
C1051  C     0.17926   0.86046   0.97971   0.00000  Uiso   1.00
C1052  C     0.16333   0.85176   0.52659   0.00000  Uiso   1.00
Cu1053 Cu    0.04689   0.83334   0.75000   0.00000  Uiso   1.00
Cu1054 Cu    0.28645   0.83333   0.75000   0.00000  Uiso   1.00
H1055  H     0.27368   0.84063   0.54553   0.00000  Uiso   1.00
H1056  H     0.07779   0.90615   0.96537   0.00000  Uiso   1.00
H1057  H     0.31143   0.87200   0.61117   0.00000  Uiso   1.00
H1058  H     0.02900   0.83419   0.89271   0.00000  Uiso   1.00
H1059  H     0.00446   0.83728   0.97423   0.00000  Uiso   1.00
H1060  H     0.01020   0.89641   0.53282   0.00000  Uiso   1.00
H1061  H     0.18916   0.84577   0.58612   0.00000  Uiso   1.00
H1062  H     0.16124   0.89501   0.92483   0.00000  Uiso   1.00
N1063  N     0.11736   0.83334   0.74999   0.00000  Uiso   1.00
N1064  N     0.21597   0.83332   0.75001   0.00000  Uiso   1.00
O1065  O     0.03958   0.77322   0.75000   0.00000  Uiso   1.00
O1066  O     0.29375   0.89345   0.75000   0.00000  Uiso   1.00
O1067  O     0.29372   0.77321   0.75000   0.00000  Uiso   1.00
O1068  O     0.03961   0.89346   0.74999   0.00000  Uiso   1.00
O1069  O     0.01852   0.83334   0.81491   0.00000  Uiso   1.00
O1070  O     0.31481   0.83332   0.68508   0.00000  Uiso   1.00
O1071  O     0.27267   0.83333   0.81492   0.00000  Uiso   1.00
O1072  O     0.06067   0.83333   0.68508   0.00000  Uiso   1.00
Cl1073 Cl    0.12015   0.79035   0.61127   0.00000  Uiso   1.00
Cl1074 Cl    0.19378   0.82636   0.88630   0.00000  Uiso   1.00
O1075  O     0.29634   0.71386   0.68980   0.00000  Uiso   1.00
H1076  H     0.27162   0.69738   0.68137   0.00000  Uiso   1.00
O1077  O     0.02659   0.95199   0.81628   0.00000  Uiso   1.00
H1078  H     0.02017   0.96765   0.84391   0.00000  Uiso   1.00
O1079  O     0.30720   0.95891   0.68300   0.00000  Uiso   1.00
H1080  H     0.31294   0.97765   0.65581   0.00000  Uiso   1.00
O1081  O     0.03518   0.70755   0.81159   0.00000  Uiso   1.00
H1082  H     0.06018   0.69050   0.81987   0.00000  Uiso   1.00
Cl1083 Cl    0.20215   0.76384   0.80653   0.00000  Uiso   1.00
Cl1084 Cl    0.13209   0.89783   0.68741   0.00000  Uiso   1.00
O1085  O     0.10597   0.77335   0.80133   0.00000  Uiso   1.00
H1086  H     0.07262   0.78274   0.80965   0.00000  Uiso   1.00
O1087  O     0.22721   0.89334   0.69845   0.00000  Uiso   1.00
H1088  H     0.26076   0.88452   0.69104   0.00000  Uiso   1.00
C1089  C     0.66657   0.75417   0.75026   0.00000  Uiso   1.00
C1090  C     0.33343   0.91242   0.74965   0.00000  Uiso   1.00
C1091  C     0.53194   0.84614   0.54987   0.00000  Uiso   1.00
C1092  C     0.48158   0.88205   0.95890   0.00000  Uiso   1.00
C1093  C     0.58080   0.84433   0.52665   0.00000  Uiso   1.00
C1094  C     0.43396   0.88931   0.98233   0.00000  Uiso   1.00
C1095  C     0.64849   0.68983   0.71872   0.00000  Uiso   1.00
C1096  C     0.34872   0.97641   0.78287   0.00000  Uiso   1.00
C1097  C     0.65117   0.97981   0.71690   0.00000  Uiso   1.00
C1098  C     0.35086   0.68658   0.78174   0.00000  Uiso   1.00
C1099  C     0.33338   0.95706   0.74974   0.00000  Uiso   1.00
C1100  C     0.66647   0.70938   0.75023   0.00000  Uiso   1.00
C1101  C     0.51735   0.80376   0.77443   0.00000  Uiso   1.00
C1102  C     0.48288   0.86195   0.72425   0.00000  Uiso   1.00
C1103  C     0.46816   0.80412   0.77519   0.00000  Uiso   1.00
C1104  C     0.53182   0.86246   0.72458   0.00000  Uiso   1.00
C1105  C     0.63890   0.83377   0.83629   0.00000  Uiso   1.00
C1106  C     0.36092   0.83411   0.66398   0.00000  Uiso   1.00
C1107  C     0.62299   0.83737   0.88585   0.00000  Uiso   1.00
C1108  C     0.37735   0.84205   0.61505   0.00000  Uiso   1.00
C1109  C     0.64385   0.83984   0.95638   0.00000  Uiso   1.00
C1110  C     0.36689   0.87949   0.54912   0.00000  Uiso   1.00
C1111  C     0.65772   0.83754   0.90979   0.00000  Uiso   1.00
C1112  C     0.34829   0.86481   0.59348   0.00000  Uiso   1.00
C1113  C     0.57354   0.84174   0.90968   0.00000  Uiso   1.00
C1114  C     0.42524   0.83308   0.59136   0.00000  Uiso   1.00
C1115  C     0.56044   0.85026   0.95576   0.00000  Uiso   1.00
C1116  C     0.44638   0.85290   0.54875   0.00000  Uiso   1.00
C1117  C     0.59529   0.84508   0.97968   0.00000  Uiso   1.00
C1118  C     0.41561   0.87390   0.52664   0.00000  Uiso   1.00
C1119  C     0.51260   0.86046   0.97971   0.00000  Uiso   1.00
C1120  C     0.49666   0.85176   0.52659   0.00000  Uiso   1.00
Cu1121 Cu    0.38022   0.83334   0.75000   0.00000  Uiso   1.00
Cu1122 Cu    0.61978   0.83333   0.75000   0.00000  Uiso   1.00
H1123  H     0.60701   0.84063   0.54553   0.00000  Uiso   1.00
H1124  H     0.41112   0.90615   0.96537   0.00000  Uiso   1.00
H1125  H     0.64476   0.87200   0.61117   0.00000  Uiso   1.00
H1126  H     0.36233   0.83419   0.89271   0.00000  Uiso   1.00
H1127  H     0.33779   0.83728   0.97423   0.00000  Uiso   1.00
H1128  H     0.34353   0.89641   0.53282   0.00000  Uiso   1.00
H1129  H     0.52249   0.84577   0.58612   0.00000  Uiso   1.00
H1130  H     0.49457   0.89501   0.92483   0.00000  Uiso   1.00
N1131  N     0.45069   0.83334   0.74999   0.00000  Uiso   1.00
N1132  N     0.54931   0.83332   0.75001   0.00000  Uiso   1.00
O1133  O     0.37291   0.77322   0.75000   0.00000  Uiso   1.00
O1134  O     0.62709   0.89345   0.75000   0.00000  Uiso   1.00
O1135  O     0.62706   0.77321   0.75000   0.00000  Uiso   1.00
O1136  O     0.37294   0.89346   0.74999   0.00000  Uiso   1.00
O1137  O     0.35186   0.83334   0.81491   0.00000  Uiso   1.00
O1138  O     0.64814   0.83332   0.68508   0.00000  Uiso   1.00
O1139  O     0.60600   0.83333   0.81492   0.00000  Uiso   1.00
O1140  O     0.39400   0.83333   0.68508   0.00000  Uiso   1.00
Cl1141 Cl    0.45349   0.79035   0.61127   0.00000  Uiso   1.00
Cl1142 Cl    0.52711   0.82636   0.88630   0.00000  Uiso   1.00
O1143  O     0.62967   0.71386   0.68980   0.00000  Uiso   1.00
H1144  H     0.60496   0.69738   0.68137   0.00000  Uiso   1.00
O1145  O     0.35992   0.95199   0.81628   0.00000  Uiso   1.00
H1146  H     0.35351   0.96765   0.84391   0.00000  Uiso   1.00
O1147  O     0.64053   0.95891   0.68300   0.00000  Uiso   1.00
H1148  H     0.64627   0.97765   0.65581   0.00000  Uiso   1.00
O1149  O     0.36852   0.70755   0.81159   0.00000  Uiso   1.00
H1150  H     0.39352   0.69050   0.81987   0.00000  Uiso   1.00
Cl1151 Cl    0.53549   0.76384   0.80653   0.00000  Uiso   1.00
Cl1152 Cl    0.46543   0.89783   0.68741   0.00000  Uiso   1.00
O1153  O     0.43930   0.77335   0.80133   0.00000  Uiso   1.00
H1154  H     0.40595   0.78274   0.80965   0.00000  Uiso   1.00
O1155  O     0.56055   0.89334   0.69845   0.00000  Uiso   1.00
H1156  H     0.59410   0.88452   0.69104   0.00000  Uiso   1.00
C1157  C     0.99991   0.75417   0.75026   0.00000  Uiso   1.00
C1158  C     0.66677   0.91242   0.74965   0.00000  Uiso   1.00
C1159  C     0.86527   0.84614   0.54987   0.00000  Uiso   1.00
C1160  C     0.81491   0.88205   0.95890   0.00000  Uiso   1.00
C1161  C     0.91413   0.84433   0.52665   0.00000  Uiso   1.00
C1162  C     0.76729   0.88931   0.98233   0.00000  Uiso   1.00
C1163  C     0.98182   0.68983   0.71872   0.00000  Uiso   1.00
C1164  C     0.68206   0.97641   0.78287   0.00000  Uiso   1.00
C1165  C     0.98451   0.97981   0.71690   0.00000  Uiso   1.00
C1166  C     0.68420   0.68658   0.78174   0.00000  Uiso   1.00
C1167  C     0.66672   0.95706   0.74974   0.00000  Uiso   1.00
C1168  C     0.99981   0.70938   0.75023   0.00000  Uiso   1.00
C1169  C     0.85069   0.80376   0.77443   0.00000  Uiso   1.00
C1170  C     0.81621   0.86195   0.72425   0.00000  Uiso   1.00
C1171  C     0.80149   0.80412   0.77519   0.00000  Uiso   1.00
C1172  C     0.86515   0.86246   0.72458   0.00000  Uiso   1.00
C1173  C     0.97224   0.83377   0.83629   0.00000  Uiso   1.00
C1174  C     0.69426   0.83411   0.66398   0.00000  Uiso   1.00
C1175  C     0.95632   0.83737   0.88585   0.00000  Uiso   1.00
C1176  C     0.71068   0.84205   0.61505   0.00000  Uiso   1.00
C1177  C     0.97718   0.83984   0.95638   0.00000  Uiso   1.00
C1178  C     0.70022   0.87949   0.54912   0.00000  Uiso   1.00
C1179  C     0.99105   0.83754   0.90979   0.00000  Uiso   1.00
C1180  C     0.68162   0.86481   0.59348   0.00000  Uiso   1.00
C1181  C     0.90687   0.84174   0.90968   0.00000  Uiso   1.00
C1182  C     0.75858   0.83308   0.59136   0.00000  Uiso   1.00
C1183  C     0.89377   0.85026   0.95576   0.00000  Uiso   1.00
C1184  C     0.77971   0.85290   0.54875   0.00000  Uiso   1.00
C1185  C     0.92862   0.84508   0.97968   0.00000  Uiso   1.00
C1186  C     0.74895   0.87390   0.52664   0.00000  Uiso   1.00
C1187  C     0.84593   0.86046   0.97971   0.00000  Uiso   1.00
C1188  C     0.82999   0.85176   0.52659   0.00000  Uiso   1.00
Cu1189 Cu    0.71355   0.83334   0.75000   0.00000  Uiso   1.00
Cu1190 Cu    0.95311   0.83333   0.75000   0.00000  Uiso   1.00
H1191  H     0.94035   0.84063   0.54553   0.00000  Uiso   1.00
H1192  H     0.74445   0.90615   0.96537   0.00000  Uiso   1.00
H1193  H     0.97810   0.87200   0.61117   0.00000  Uiso   1.00
H1194  H     0.69567   0.83419   0.89271   0.00000  Uiso   1.00
H1195  H     0.67112   0.83728   0.97423   0.00000  Uiso   1.00
H1196  H     0.67686   0.89641   0.53282   0.00000  Uiso   1.00
H1197  H     0.85582   0.84577   0.58612   0.00000  Uiso   1.00
H1198  H     0.82790   0.89501   0.92483   0.00000  Uiso   1.00
N1199  N     0.78403   0.83334   0.74999   0.00000  Uiso   1.00
N1200  N     0.88264   0.83332   0.75001   0.00000  Uiso   1.00
O1201  O     0.70625   0.77322   0.75000   0.00000  Uiso   1.00
O1202  O     0.96042   0.89345   0.75000   0.00000  Uiso   1.00
O1203  O     0.96039   0.77321   0.75000   0.00000  Uiso   1.00
O1204  O     0.70628   0.89346   0.74999   0.00000  Uiso   1.00
O1205  O     0.68519   0.83334   0.81491   0.00000  Uiso   1.00
O1206  O     0.98148   0.83332   0.68508   0.00000  Uiso   1.00
O1207  O     0.93933   0.83333   0.81492   0.00000  Uiso   1.00
O1208  O     0.72733   0.83333   0.68508   0.00000  Uiso   1.00
Cl1209 Cl    0.78682   0.79035   0.61127   0.00000  Uiso   1.00
Cl1210 Cl    0.86045   0.82636   0.88630   0.00000  Uiso   1.00
O1211  O     0.96300   0.71386   0.68980   0.00000  Uiso   1.00
H1212  H     0.93829   0.69738   0.68137   0.00000  Uiso   1.00
O1213  O     0.69325   0.95199   0.81628   0.00000  Uiso   1.00
H1214  H     0.68684   0.96765   0.84391   0.00000  Uiso   1.00
O1215  O     0.97387   0.95891   0.68300   0.00000  Uiso   1.00
H1216  H     0.97961   0.97765   0.65581   0.00000  Uiso   1.00
O1217  O     0.70185   0.70755   0.81159   0.00000  Uiso   1.00
H1218  H     0.72685   0.69050   0.81987   0.00000  Uiso   1.00
Cl1219 Cl    0.86882   0.76384   0.80653   0.00000  Uiso   1.00
Cl1220 Cl    0.79876   0.89783   0.68741   0.00000  Uiso   1.00
O1221  O     0.77264   0.77335   0.80133   0.00000  Uiso   1.00
H1222  H     0.73929   0.78274   0.80965   0.00000  Uiso   1.00
O1223  O     0.89388   0.89334   0.69845   0.00000  Uiso   1.00
H1224  H     0.92743   0.88452   0.69104   0.00000  Uiso   1.00
loop_
_geom_bond_atom_site_label_1
_geom_bond_atom_site_label_2
_geom_bond_distance
_geom_bond_site_symmetry_2
_ccdc_geom_bond_type
C1     C12     1.449   .     S
C1     O47     1.298   .     A
C1     O113    1.299   .     S
C2     C11     1.445   .     S
C2     O48     1.297   .     A
C2     O182    1.297   1_455 S
C3     C5      1.395   .     A
C3     C32     1.411   .     A
C3     H41     1.081   .     S
C4     C31     1.410   .     A
C4     H42     1.082   .     S
C4     C6      1.389   .     A
C5     H35     1.083   .     S
C5     C641    1.399   1_554 S
C6     H36     1.084   .     S
C6     C642    1.396   .     S
C7     O55     1.382   .     S
C7     C12     1.405   .     A
C7     C417    1.408   1_545 S
C8     O57     1.383   .     S
C8     C11     1.402   .     A
C8     C214    1.408   .     S
C9     O59     1.382   .     S
C9     C211    1.408   .     S
C9     C79     1.402   .     S
C10    O61     1.381   .     S
C10    C416    1.408   1_545 S
C10    C148    1.405   1_455 S
C11    C145    1.402   1_455 S
C12    C78     1.405   .     S
C13    C15     1.414   .     A
C13    N44     1.371   .     A
C13    Cl63    1.762   .     S
C14    Cl64    1.762   .     S
C14    C16     1.416   .     A
C14    N43     1.369   .     A
C15    N43     1.382   .     A
C15    O65     1.374   .     S
C16    N44     1.385   .     A
C16    O67     1.375   .     S
C17    O51     1.303   .     A
C17    C19     1.488   .     S
C17    O117    1.315   .     S
C18    C20     1.469   .     S
C18    O52     1.300   .     A
C18    O186    1.308   1_455 S
C19    C23     1.406   .     A
C19    C25     1.423   .     A
C20    C26     1.410   .     A
C20    C24     1.400   .     A
C21    C23     1.395   .     A
C21    C29     1.400   .     A
C21    H107    1.084   .     S
C22    C24     1.390   .     A
C22    H40     1.084   .     S
C22    C30     1.400   .     A
C23    H106    1.083   .     S
C24    H173    1.083   1_455 S
C25    C27     1.414   .     A
C25    Cl54    1.776   .     S
C26    C28     1.415   .     A
C26    Cl53    1.777   .     S
C27    C29     1.414   .     A
C27    C31     1.420   .     A
C28    C30     1.420   .     A
C28    C32     1.423   .     A
C29    C617    1.399   .     S
C30    C618    1.396   1_554 S
C31    C644    1.412   .     S
C32    C643    1.412   1_554 S
Cu33   O45     1.957   .     S
Cu33   O52     1.942   .     S
Cu33   O49     1.951   .     S
Cu33   O48     1.957   .     S
Cu33   N43     2.034   .     S
Cu33   Cu170   2.707   1_455 S
Cu34   O46     1.957   .     S
Cu34   O51     1.942   .     S
Cu34   O50     1.951   .     S
Cu34   N44     2.034   .     S
Cu34   O47     1.957   .     S
Cu34   Cu101   2.707   .     S
H37    C92     1.083   .     S
H38    C159    1.083   1_455 S
H39    C157    1.084   1_455 S
O45    C137    1.299   1_455 S
O46    C70     1.297   .     S
O49    C153    1.315   1_455 S
O50    C86     1.308   .     S
O55    H56     0.990   .     S
O57    H58     0.990   .     S
O59    H60     0.990   .     S
O61    H62     0.990   .     S
O65    H66     0.977   .     S
O67    H68     0.976   .     S
C69    C80     1.449   .     S
C69    O115    1.298   .     A
C69    O181    1.299   .     S
C70    C79     1.445   .     S
C70    O116    1.297   .     A
C71    C73     1.395   .     A
C71    C100    1.411   .     A
C71    H109    1.081   .     S
C72    C99     1.410   .     A
C72    H110    1.082   .     S
C72    C74     1.389   .     A
C73    H103    1.083   .     S
C73    C709    1.399   1_554 S
C74    H104    1.084   .     S
C74    C710    1.396   .     S
C75    O123    1.382   .     S
C75    C80     1.405   .     A
C75    C485    1.408   1_545 S
C76    O125    1.383   .     S
C76    C79     1.402   .     A
C76    C282    1.408   .     S
C77    O127    1.382   .     S
C77    C279    1.408   .     S
C77    C147    1.402   .     S
C78    O129    1.381   .     S
C78    C484    1.408   1_545 S
C80    C146    1.405   .     S
C81    C83     1.414   .     A
C81    N112    1.371   .     A
C81    Cl131   1.762   .     S
C82    Cl132   1.762   .     S
C82    C84     1.416   .     A
C82    N111    1.369   .     A
C83    N111    1.382   .     A
C83    O133    1.374   .     S
C84    N112    1.385   .     A
C84    O135    1.375   .     S
C85    O119    1.303   .     A
C85    C87     1.488   .     S
C85    O185    1.315   .     S
C86    C88     1.469   .     S
C86    O120    1.300   .     A
C87    C91     1.406   .     A
C87    C93     1.423   .     A
C88    C94     1.410   .     A
C88    C92     1.400   .     A
C89    C91     1.395   .     A
C89    C97     1.400   .     A
C89    H175    1.084   .     S
C90    C92     1.390   .     A
C90    H108    1.084   .     S
C90    C98     1.400   .     A
C91    H174    1.083   .     S
C93    C95     1.414   .     A
C93    Cl122   1.776   .     S
C94    C96     1.415   .     A
C94    Cl121   1.777   .     S
C95    C97     1.414   .     A
C95    C99     1.420   .     A
C96    C98     1.420   .     A
C96    C100    1.423   .     A
C97    C685    1.399   .     S
C98    C686    1.396   1_554 S
C99    C712    1.412   .     S
C100   C711    1.412   1_554 S
Cu101  O113    1.957   .     S
Cu101  O120    1.942   .     S
Cu101  O117    1.951   .     S
Cu101  O116    1.957   .     S
Cu101  N111    2.034   .     S
Cu102  O114    1.957   .     S
Cu102  O119    1.942   .     S
Cu102  O118    1.951   .     S
Cu102  N112    2.034   .     S
Cu102  O115    1.957   .     S
Cu102  Cu169   2.707   .     S
H105   C160    1.083   .     S
O114   C138    1.297   .     S
O118   C154    1.308   .     S
O123   H124    0.990   .     S
O125   H126    0.990   .     S
O127   H128    0.990   .     S
O129   H130    0.990   .     S
O133   H134    0.977   .     S
O135   H136    0.976   .     S
C137   C148    1.449   .     S
C137   O183    1.298   .     A
C137   O45     1.299   1_655 S
C138   C147    1.445   .     S
C138   O184    1.297   .     A
C139   C141    1.395   .     A
C139   C168    1.411   .     A
C139   H177    1.081   .     S
C140   C167    1.410   .     A
C140   H178    1.082   .     S
C140   C142    1.389   .     A
C141   H171    1.083   .     S
C141   C777    1.399   1_554 S
C142   H172    1.084   .     S
C142   C778    1.396   .     S
C143   O191    1.382   .     S
C143   C148    1.405   .     A
C143   C553    1.408   1_545 S
C144   O193    1.383   .     S
C144   C147    1.402   .     A
C144   C350    1.408   .     S
C145   O195    1.382   .     S
C145   C347    1.408   .     S
C145   C11     1.402   1_655 S
C146   O197    1.381   .     S
C146   C552    1.408   1_545 S
C148   C10     1.405   1_655 S
C149   C151    1.414   .     A
C149   N180    1.371   .     A
C149   Cl199   1.762   .     S
C150   Cl200   1.762   .     S
C150   C152    1.416   .     A
C150   N179    1.369   .     A
C151   N179    1.382   .     A
C151   O201    1.374   .     S
C152   N180    1.385   .     A
C152   O203    1.375   .     S
C153   O187    1.303   .     A
C153   C155    1.488   .     S
C153   O49     1.315   1_655 S
C154   C156    1.469   .     S
C154   O188    1.300   .     A
C155   C159    1.406   .     A
C155   C161    1.423   .     A
C156   C162    1.410   .     A
C156   C160    1.400   .     A
C157   C159    1.395   .     A
C157   C165    1.400   .     A
C157   H39     1.084   1_655 S
C158   C160    1.390   .     A
C158   H176    1.084   .     S
C158   C166    1.400   .     A
C159   H38     1.083   1_655 S
C161   C163    1.414   .     A
C161   Cl190   1.776   .     S
C162   C164    1.415   .     A
C162   Cl189   1.777   .     S
C163   C165    1.414   .     A
C163   C167    1.420   .     A
C164   C166    1.420   .     A
C164   C168    1.423   .     A
C165   C753    1.399   .     S
C166   C754    1.396   1_554 S
C167   C780    1.412   .     S
C168   C779    1.412   1_554 S
Cu169  O181    1.957   .     S
Cu169  O188    1.942   .     S
Cu169  O185    1.951   .     S
Cu169  O184    1.957   .     S
Cu169  N179    2.034   .     S
Cu170  O182    1.957   .     S
Cu170  O187    1.942   .     S
Cu170  O186    1.951   .     S
Cu170  N180    2.034   .     S
Cu170  O183    1.957   .     S
Cu170  Cu33    2.707   1_655 S
H173   C24     1.083   1_655 S
O182   C2      1.297   1_655 S
O186   C18     1.308   1_655 S
O191   H192    0.990   .     S
O193   H194    0.990   .     S
O195   H196    0.990   .     S
O197   H198    0.990   .     S
O201   H202    0.977   .     S
O203   H204    0.976   .     S
C205   C216    1.449   .     S
C205   O251    1.298   .     A
C205   O317    1.299   .     S
C206   C215    1.445   .     S
C206   O252    1.297   .     A
C206   O386    1.297   1_455 S
C207   C209    1.395   .     A
C207   C236    1.411   .     A
C207   H245    1.081   .     S
C208   C235    1.410   .     A
C208   H246    1.082   .     S
C208   C210    1.389   .     A
C209   H239    1.083   .     S
C209   C845    1.399   1_554 S
C210   H240    1.084   .     S
C210   C846    1.396   .     S
C211   O259    1.382   .     S
C211   C216    1.405   .     A
C212   O261    1.383   .     S
C212   C215    1.402   .     A
C212   C418    1.408   .     S
C213   O263    1.382   .     S
C213   C415    1.408   .     S
C213   C283    1.402   .     S
C214   O265    1.381   .     S
C214   C352    1.405   1_455 S
C215   C349    1.402   1_455 S
C216   C282    1.405   .     S
C217   C219    1.414   .     A
C217   N248    1.371   .     A
C217   Cl267   1.762   .     S
C218   Cl268   1.762   .     S
C218   C220    1.416   .     A
C218   N247    1.369   .     A
C219   N247    1.382   .     A
C219   O269    1.374   .     S
C220   N248    1.385   .     A
C220   O271    1.375   .     S
C221   O255    1.303   .     A
C221   C223    1.488   .     S
C221   O321    1.315   .     S
C222   C224    1.469   .     S
C222   O256    1.300   .     A
C222   O390    1.308   1_455 S
C223   C227    1.406   .     A
C223   C229    1.423   .     A
C224   C230    1.410   .     A
C224   C228    1.400   .     A
C225   C227    1.395   .     A
C225   C233    1.400   .     A
C225   H311    1.084   .     S
C226   C228    1.390   .     A
C226   H244    1.084   .     S
C226   C234    1.400   .     A
C227   H310    1.083   .     S
C228   H377    1.083   1_455 S
C229   C231    1.414   .     A
C229   Cl258   1.776   .     S
C230   C232    1.415   .     A
C230   Cl257   1.777   .     S
C231   C233    1.414   .     A
C231   C235    1.420   .     A
C232   C234    1.420   .     A
C232   C236    1.423   .     A
C233   C821    1.399   .     S
C234   C822    1.396   1_554 S
C235   C848    1.412   .     S
C236   C847    1.412   1_554 S
Cu237  O249    1.957   .     S
Cu237  O256    1.942   .     S
Cu237  O253    1.951   .     S
Cu237  O252    1.957   .     S
Cu237  N247    2.034   .     S
Cu237  Cu374   2.707   1_455 S
Cu238  O250    1.957   .     S
Cu238  O255    1.942   .     S
Cu238  O254    1.951   .     S
Cu238  N248    2.034   .     S
Cu238  O251    1.957   .     S
Cu238  Cu305   2.707   .     S
H241   C296    1.083   .     S
H242   C363    1.083   1_455 S
H243   C361    1.084   1_455 S
O249   C341    1.299   1_455 S
O250   C274    1.297   .     S
O253   C357    1.315   1_455 S
O254   C290    1.308   .     S
O259   H260    0.990   .     S
O261   H262    0.990   .     S
O263   H264    0.990   .     S
O265   H266    0.990   .     S
O269   H270    0.977   .     S
O271   H272    0.976   .     S
C273   C284    1.449   .     S
C273   O319    1.298   .     A
C273   O385    1.299   .     S
C274   C283    1.445   .     S
C274   O320    1.297   .     A
C275   C277    1.395   .     A
C275   C304    1.411   .     A
C275   H313    1.081   .     S
C276   C303    1.410   .     A
C276   H314    1.082   .     S
C276   C278    1.389   .     A
C277   H307    1.083   .     S
C277   C913    1.399   1_554 S
C278   H308    1.084   .     S
C278   C914    1.396   .     S
C279   O327    1.382   .     S
C279   C284    1.405   .     A
C280   O329    1.383   .     S
C280   C283    1.402   .     A
C280   C486    1.408   .     S
C281   O331    1.382   .     S
C281   C483    1.408   .     S
C281   C351    1.402   .     S
C282   O333    1.381   .     S
C284   C350    1.405   .     S
C285   C287    1.414   .     A
C285   N316    1.371   .     A
C285   Cl335   1.762   .     S
C286   Cl336   1.762   .     S
C286   C288    1.416   .     A
C286   N315    1.369   .     A
C287   N315    1.382   .     A
C287   O337    1.374   .     S
C288   N316    1.385   .     A
C288   O339    1.375   .     S
C289   O323    1.303   .     A
C289   C291    1.488   .     S
C289   O389    1.315   .     S
C290   C292    1.469   .     S
C290   O324    1.300   .     A
C291   C295    1.406   .     A
C291   C297    1.423   .     A
C292   C298    1.410   .     A
C292   C296    1.400   .     A
C293   C295    1.395   .     A
C293   C301    1.400   .     A
C293   H379    1.084   .     S
C294   C296    1.390   .     A
C294   H312    1.084   .     S
C294   C302    1.400   .     A
C295   H378    1.083   .     S
C297   C299    1.414   .     A
C297   Cl326   1.776   .     S
C298   C300    1.415   .     A
C298   Cl325   1.777   .     S
C299   C301    1.414   .     A
C299   C303    1.420   .     A
C300   C302    1.420   .     A
C300   C304    1.423   .     A
C301   C889    1.399   .     S
C302   C890    1.396   1_554 S
C303   C916    1.412   .     S
C304   C915    1.412   1_554 S
Cu305  O317    1.957   .     S
Cu305  O324    1.942   .     S
Cu305  O321    1.951   .     S
Cu305  O320    1.957   .     S
Cu305  N315    2.034   .     S
Cu306  O318    1.957   .     S
Cu306  O323    1.942   .     S
Cu306  O322    1.951   .     S
Cu306  N316    2.034   .     S
Cu306  O319    1.957   .     S
Cu306  Cu373   2.707   .     S
H309   C364    1.083   .     S
O318   C342    1.297   .     S
O322   C358    1.308   .     S
O327   H328    0.990   .     S
O329   H330    0.990   .     S
O331   H332    0.990   .     S
O333   H334    0.990   .     S
O337   H338    0.977   .     S
O339   H340    0.976   .     S
C341   C352    1.449   .     S
C341   O387    1.298   .     A
C341   O249    1.299   1_655 S
C342   C351    1.445   .     S
C342   O388    1.297   .     A
C343   C345    1.395   .     A
C343   C372    1.411   .     A
C343   H381    1.081   .     S
C344   C371    1.410   .     A
C344   H382    1.082   .     S
C344   C346    1.389   .     A
C345   H375    1.083   .     S
C345   C981    1.399   1_554 S
C346   H376    1.084   .     S
C346   C982    1.396   .     S
C347   O395    1.382   .     S
C347   C352    1.405   .     A
C348   O397    1.383   .     S
C348   C351    1.402   .     A
C348   C554    1.408   .     S
C349   O399    1.382   .     S
C349   C551    1.408   .     S
C349   C215    1.402   1_655 S
C350   O401    1.381   .     S
C352   C214    1.405   1_655 S
C353   C355    1.414   .     A
C353   N384    1.371   .     A
C353   Cl403   1.762   .     S
C354   Cl404   1.762   .     S
C354   C356    1.416   .     A
C354   N383    1.369   .     A
C355   N383    1.382   .     A
C355   O405    1.374   .     S
C356   N384    1.385   .     A
C356   O407    1.375   .     S
C357   O391    1.303   .     A
C357   C359    1.488   .     S
C357   O253    1.315   1_655 S
C358   C360    1.469   .     S
C358   O392    1.300   .     A
C359   C363    1.406   .     A
C359   C365    1.423   .     A
C360   C366    1.410   .     A
C360   C364    1.400   .     A
C361   C363    1.395   .     A
C361   C369    1.400   .     A
C361   H243    1.084   1_655 S
C362   C364    1.390   .     A
C362   H380    1.084   .     S
C362   C370    1.400   .     A
C363   H242    1.083   1_655 S
C365   C367    1.414   .     A
C365   Cl394   1.776   .     S
C366   C368    1.415   .     A
C366   Cl393   1.777   .     S
C367   C369    1.414   .     A
C367   C371    1.420   .     A
C368   C370    1.420   .     A
C368   C372    1.423   .     A
C369   C957    1.399   .     S
C370   C958    1.396   1_554 S
C371   C984    1.412   .     S
C372   C983    1.412   1_554 S
Cu373  O385    1.957   .     S
Cu373  O392    1.942   .     S
Cu373  O389    1.951   .     S
Cu373  O388    1.957   .     S
Cu373  N383    2.034   .     S
Cu374  O386    1.957   .     S
Cu374  O391    1.942   .     S
Cu374  O390    1.951   .     S
Cu374  N384    2.034   .     S
Cu374  O387    1.957   .     S
Cu374  Cu237   2.707   1_655 S
H377   C228    1.083   1_655 S
O386   C206    1.297   1_655 S
O390   C222    1.308   1_655 S
O395   H396    0.990   .     S
O397   H398    0.990   .     S
O399   H400    0.990   .     S
O401   H402    0.990   .     S
O405   H406    0.977   .     S
O407   H408    0.976   .     S
C409   C420    1.449   .     S
C409   O455    1.298   .     A
C409   O521    1.299   .     S
C410   C419    1.445   .     S
C410   O456    1.297   .     A
C410   O590    1.297   1_455 S
C411   C413    1.395   .     A
C411   C440    1.411   .     A
C411   H449    1.081   .     S
C412   C439    1.410   .     A
C412   H450    1.082   .     S
C412   C414    1.389   .     A
C413   H443    1.083   .     S
C413   C1049   1.399   1_554 S
C414   H444    1.084   .     S
C414   C1050   1.396   .     S
C415   O463    1.382   .     S
C415   C420    1.405   .     A
C416   O465    1.383   .     S
C416   C419    1.402   .     A
C416   C10     1.408   1_565 S
C417   O467    1.382   .     S
C417   C7      1.408   1_565 S
C417   C487    1.402   .     S
C418   O469    1.381   .     S
C418   C556    1.405   1_455 S
C419   C553    1.402   1_455 S
C420   C486    1.405   .     S
C421   C423    1.414   .     A
C421   N452    1.371   .     A
C421   Cl471   1.762   .     S
C422   Cl472   1.762   .     S
C422   C424    1.416   .     A
C422   N451    1.369   .     A
C423   N451    1.382   .     A
C423   O473    1.374   .     S
C424   N452    1.385   .     A
C424   O475    1.375   .     S
C425   O459    1.303   .     A
C425   C427    1.488   .     S
C425   O525    1.315   .     S
C426   C428    1.469   .     S
C426   O460    1.300   .     A
C426   O594    1.308   1_455 S
C427   C431    1.406   .     A
C427   C433    1.423   .     A
C428   C434    1.410   .     A
C428   C432    1.400   .     A
C429   C431    1.395   .     A
C429   C437    1.400   .     A
C429   H515    1.084   .     S
C430   C432    1.390   .     A
C430   H448    1.084   .     S
C430   C438    1.400   .     A
C431   H514    1.083   .     S
C432   H581    1.083   1_455 S
C433   C435    1.414   .     A
C433   Cl462   1.776   .     S
C434   C436    1.415   .     A
C434   Cl461   1.777   .     S
C435   C437    1.414   .     A
C435   C439    1.420   .     A
C436   C438    1.420   .     A
C436   C440    1.423   .     A
C437   C1025   1.399   .     S
C438   C1026   1.396   1_554 S
C439   C1052   1.412   .     S
C440   C1051   1.412   1_554 S
Cu441  O453    1.957   .     S
Cu441  O460    1.942   .     S
Cu441  O457    1.951   .     S
Cu441  O456    1.957   .     S
Cu441  N451    2.034   .     S
Cu441  Cu578   2.707   1_455 S
Cu442  O454    1.957   .     S
Cu442  O459    1.942   .     S
Cu442  O458    1.951   .     S
Cu442  N452    2.034   .     S
Cu442  O455    1.957   .     S
Cu442  Cu509   2.707   .     S
H445   C500    1.083   .     S
H446   C567    1.083   1_455 S
H447   C565    1.084   1_455 S
O453   C545    1.299   1_455 S
O454   C478    1.297   .     S
O457   C561    1.315   1_455 S
O458   C494    1.308   .     S
O463   H464    0.990   .     S
O465   H466    0.990   .     S
O467   H468    0.990   .     S
O469   H470    0.990   .     S
O473   H474    0.977   .     S
O475   H476    0.976   .     S
C477   C488    1.449   .     S
C477   O523    1.298   .     A
C477   O589    1.299   .     S
C478   C487    1.445   .     S
C478   O524    1.297   .     A
C479   C481    1.395   .     A
C479   C508    1.411   .     A
C479   H517    1.081   .     S
C480   C507    1.410   .     A
C480   H518    1.082   .     S
C480   C482    1.389   .     A
C481   H511    1.083   .     S
C481   C1117   1.399   1_554 S
C482   H512    1.084   .     S
C482   C1118   1.396   .     S
C483   O531    1.382   .     S
C483   C488    1.405   .     A
C484   O533    1.383   .     S
C484   C487    1.402   .     A
C484   C78     1.408   1_565 S
C485   O535    1.382   .     S
C485   C75     1.408   1_565 S
C485   C555    1.402   .     S
C486   O537    1.381   .     S
C488   C554    1.405   .     S
C489   C491    1.414   .     A
C489   N520    1.371   .     A
C489   Cl539   1.762   .     S
C490   Cl540   1.762   .     S
C490   C492    1.416   .     A
C490   N519    1.369   .     A
C491   N519    1.382   .     A
C491   O541    1.374   .     S
C492   N520    1.385   .     A
C492   O543    1.375   .     S
C493   O527    1.303   .     A
C493   C495    1.488   .     S
C493   O593    1.315   .     S
C494   C496    1.469   .     S
C494   O528    1.300   .     A
C495   C499    1.406   .     A
C495   C501    1.423   .     A
C496   C502    1.410   .     A
C496   C500    1.400   .     A
C497   C499    1.395   .     A
C497   C505    1.400   .     A
C497   H583    1.084   .     S
C498   C500    1.390   .     A
C498   H516    1.084   .     S
C498   C506    1.400   .     A
C499   H582    1.083   .     S
C501   C503    1.414   .     A
C501   Cl530   1.776   .     S
C502   C504    1.415   .     A
C502   Cl529   1.777   .     S
C503   C505    1.414   .     A
C503   C507    1.420   .     A
C504   C506    1.420   .     A
C504   C508    1.423   .     A
C505   C1093   1.399   .     S
C506   C1094   1.396   1_554 S
C507   C1120   1.412   .     S
C508   C1119   1.412   1_554 S
Cu509  O521    1.957   .     S
Cu509  O528    1.942   .     S
Cu509  O525    1.951   .     S
Cu509  O524    1.957   .     S
Cu509  N519    2.034   .     S
Cu510  O522    1.957   .     S
Cu510  O527    1.942   .     S
Cu510  O526    1.951   .     S
Cu510  N520    2.034   .     S
Cu510  O523    1.957   .     S
Cu510  Cu577   2.707   .     S
H513   C568    1.083   .     S
O522   C546    1.297   .     S
O526   C562    1.308   .     S
O531   H532    0.990   .     S
O533   H534    0.990   .     S
O535   H536    0.990   .     S
O537   H538    0.990   .     S
O541   H542    0.977   .     S
O543   H544    0.976   .     S
C545   C556    1.449   .     S
C545   O591    1.298   .     A
C545   O453    1.299   1_655 S
C546   C555    1.445   .     S
C546   O592    1.297   .     A
C547   C549    1.395   .     A
C547   C576    1.411   .     A
C547   H585    1.081   .     S
C548   C575    1.410   .     A
C548   H586    1.082   .     S
C548   C550    1.389   .     A
C549   H579    1.083   .     S
C549   C1185   1.399   1_554 S
C550   H580    1.084   .     S
C550   C1186   1.396   .     S
C551   O599    1.382   .     S
C551   C556    1.405   .     A
C552   O601    1.383   .     S
C552   C555    1.402   .     A
C552   C146    1.408   1_565 S
C553   O603    1.382   .     S
C553   C143    1.408   1_565 S
C553   C419    1.402   1_655 S
C554   O605    1.381   .     S
C556   C418    1.405   1_655 S
C557   C559    1.414   .     A
C557   N588    1.371   .     A
C557   Cl607   1.762   .     S
C558   Cl608   1.762   .     S
C558   C560    1.416   .     A
C558   N587    1.369   .     A
C559   N587    1.382   .     A
C559   O609    1.374   .     S
C560   N588    1.385   .     A
C560   O611    1.375   .     S
C561   O595    1.303   .     A
C561   C563    1.488   .     S
C561   O457    1.315   1_655 S
C562   C564    1.469   .     S
C562   O596    1.300   .     A
C563   C567    1.406   .     A
C563   C569    1.423   .     A
C564   C570    1.410   .     A
C564   C568    1.400   .     A
C565   C567    1.395   .     A
C565   C573    1.400   .     A
C565   H447    1.084   1_655 S
C566   C568    1.390   .     A
C566   H584    1.084   .     S
C566   C574    1.400   .     A
C567   H446    1.083   1_655 S
C569   C571    1.414   .     A
C569   Cl598   1.776   .     S
C570   C572    1.415   .     A
C570   Cl597   1.777   .     S
C571   C573    1.414   .     A
C571   C575    1.420   .     A
C572   C574    1.420   .     A
C572   C576    1.423   .     A
C573   C1161   1.399   .     S
C574   C1162   1.396   1_554 S
C575   C1188   1.412   .     S
C576   C1187   1.412   1_554 S
Cu577  O589    1.957   .     S
Cu577  O596    1.942   .     S
Cu577  O593    1.951   .     S
Cu577  O592    1.957   .     S
Cu577  N587    2.034   .     S
Cu578  O590    1.957   .     S
Cu578  O595    1.942   .     S
Cu578  O594    1.951   .     S
Cu578  N588    2.034   .     S
Cu578  O591    1.957   .     S
Cu578  Cu441   2.707   1_655 S
H581   C432    1.083   1_655 S
O590   C410    1.297   1_655 S
O594   C426    1.308   1_655 S
O599   H600    0.990   .     S
O601   H602    0.990   .     S
O603   H604    0.990   .     S
O605   H606    0.990   .     S
O609   H610    0.977   .     S
O611   H612    0.976   .     S
C613   C624    1.449   .     S
C613   O659    1.298   .     A
C613   O725    1.299   .     S
C614   C623    1.445   .     S
C614   O660    1.297   .     A
C614   O794    1.297   1_455 S
C615   C617    1.395   .     A
C615   C644    1.411   .     A
C615   H653    1.081   .     S
C616   C643    1.410   .     A
C616   H654    1.082   .     S
C616   C618    1.389   .     A
C617   H647    1.083   .     S
C618   H648    1.084   .     S
C618   C30     1.396   1_556 S
C619   O667    1.382   .     S
C619   C624    1.405   .     A
C619   C1029   1.408   1_545 S
C620   O669    1.383   .     S
C620   C623    1.402   .     A
C620   C826    1.408   .     S
C621   O671    1.382   .     S
C621   C823    1.408   .     S
C621   C691    1.402   .     S
C622   O673    1.381   .     S
C622   C1028   1.408   1_545 S
C622   C760    1.405   1_455 S
C623   C757    1.402   1_455 S
C624   C690    1.405   .     S
C625   C627    1.414   .     A
C625   N656    1.371   .     A
C625   Cl675   1.762   .     S
C626   Cl676   1.762   .     S
C626   C628    1.416   .     A
C626   N655    1.369   .     A
C627   N655    1.382   .     A
C627   O677    1.374   .     S
C628   N656    1.385   .     A
C628   O679    1.375   .     S
C629   O663    1.303   .     A
C629   C631    1.488   .     S
C629   O729    1.315   .     S
C630   C632    1.469   .     S
C630   O664    1.300   .     A
C630   O798    1.308   1_455 S
C631   C635    1.406   .     A
C631   C637    1.423   .     A
C632   C638    1.410   .     A
C632   C636    1.400   .     A
C633   C635    1.395   .     A
C633   C641    1.400   .     A
C633   H719    1.084   .     S
C634   C636    1.390   .     A
C634   H652    1.084   .     S
C634   C642    1.400   .     A
C635   H718    1.083   .     S
C636   H785    1.083   1_455 S
C637   C639    1.414   .     A
C637   Cl666   1.776   .     S
C638   C640    1.415   .     A
C638   Cl665   1.777   .     S
C639   C641    1.414   .     A
C639   C643    1.420   .     A
C640   C642    1.420   .     A
C640   C644    1.423   .     A
C641   C5      1.399   1_556 S
C643   C32     1.412   1_556 S
Cu645  O657    1.957   .     S
Cu645  O664    1.942   .     S
Cu645  O661    1.951   .     S
Cu645  O660    1.957   .     S
Cu645  N655    2.034   .     S
Cu645  Cu782   2.707   1_455 S
Cu646  O658    1.957   .     S
Cu646  O663    1.942   .     S
Cu646  O662    1.951   .     S
Cu646  N656    2.034   .     S
Cu646  O659    1.957   .     S
Cu646  Cu713   2.707   .     S
H649   C704    1.083   .     S
H650   C771    1.083   1_455 S
H651   C769    1.084   1_455 S
O657   C749    1.299   1_455 S
O658   C682    1.297   .     S
O661   C765    1.315   1_455 S
O662   C698    1.308   .     S
O667   H668    0.990   .     S
O669   H670    0.990   .     S
O671   H672    0.990   .     S
O673   H674    0.990   .     S
O677   H678    0.977   .     S
O679   H680    0.976   .     S
C681   C692    1.449   .     S
C681   O727    1.298   .     A
C681   O793    1.299   .     S
C682   C691    1.445   .     S
C682   O728    1.297   .     A
C683   C685    1.395   .     A
C683   C712    1.411   .     A
C683   H721    1.081   .     S
C684   C711    1.410   .     A
C684   H722    1.082   .     S
C684   C686    1.389   .     A
C685   H715    1.083   .     S
C686   H716    1.084   .     S
C686   C98     1.396   1_556 S
C687   O735    1.382   .     S
C687   C692    1.405   .     A
C687   C1097   1.408   1_545 S
C688   O737    1.383   .     S
C688   C691    1.402   .     A
C688   C894    1.408   .     S
C689   O739    1.382   .     S
C689   C891    1.408   .     S
C689   C759    1.402   .     S
C690   O741    1.381   .     S
C690   C1096   1.408   1_545 S
C692   C758    1.405   .     S
C693   C695    1.414   .     A
C693   N724    1.371   .     A
C693   Cl743   1.762   .     S
C694   Cl744   1.762   .     S
C694   C696    1.416   .     A
C694   N723    1.369   .     A
C695   N723    1.382   .     A
C695   O745    1.374   .     S
C696   N724    1.385   .     A
C696   O747    1.375   .     S
C697   O731    1.303   .     A
C697   C699    1.488   .     S
C697   O797    1.315   .     S
C698   C700    1.469   .     S
C698   O732    1.300   .     A
C699   C703    1.406   .     A
C699   C705    1.423   .     A
C700   C706    1.410   .     A
C700   C704    1.400   .     A
C701   C703    1.395   .     A
C701   C709    1.400   .     A
C701   H787    1.084   .     S
C702   C704    1.390   .     A
C702   H720    1.084   .     S
C702   C710    1.400   .     A
C703   H786    1.083   .     S
C705   C707    1.414   .     A
C705   Cl734   1.776   .     S
C706   C708    1.415   .     A
C706   Cl733   1.777   .     S
C707   C709    1.414   .     A
C707   C711    1.420   .     A
C708   C710    1.420   .     A
C708   C712    1.423   .     A
C709   C73     1.399   1_556 S
C711   C100    1.412   1_556 S
Cu713  O725    1.957   .     S
Cu713  O732    1.942   .     S
Cu713  O729    1.951   .     S
Cu713  O728    1.957   .     S
Cu713  N723    2.034   .     S
Cu714  O726    1.957   .     S
Cu714  O731    1.942   .     S
Cu714  O730    1.951   .     S
Cu714  N724    2.034   .     S
Cu714  O727    1.957   .     S
Cu714  Cu781   2.707   .     S
H717   C772    1.083   .     S
O726   C750    1.297   .     S
O730   C766    1.308   .     S
O735   H736    0.990   .     S
O737   H738    0.990   .     S
O739   H740    0.990   .     S
O741   H742    0.990   .     S
O745   H746    0.977   .     S
O747   H748    0.976   .     S
C749   C760    1.449   .     S
C749   O795    1.298   .     A
C749   O657    1.299   1_655 S
C750   C759    1.445   .     S
C750   O796    1.297   .     A
C751   C753    1.395   .     A
C751   C780    1.411   .     A
C751   H789    1.081   .     S
C752   C779    1.410   .     A
C752   H790    1.082   .     S
C752   C754    1.389   .     A
C753   H783    1.083   .     S
C754   H784    1.084   .     S
C754   C166    1.396   1_556 S
C755   O803    1.382   .     S
C755   C760    1.405   .     A
C755   C1165   1.408   1_545 S
C756   O805    1.383   .     S
C756   C759    1.402   .     A
C756   C962    1.408   .     S
C757   O807    1.382   .     S
C757   C959    1.408   .     S
C757   C623    1.402   1_655 S
C758   O809    1.381   .     S
C758   C1164   1.408   1_545 S
C760   C622    1.405   1_655 S
C761   C763    1.414   .     A
C761   N792    1.371   .     A
C761   Cl811   1.762   .     S
C762   Cl812   1.762   .     S
C762   C764    1.416   .     A
C762   N791    1.369   .     A
C763   N791    1.382   .     A
C763   O813    1.374   .     S
C764   N792    1.385   .     A
C764   O815    1.375   .     S
C765   O799    1.303   .     A
C765   C767    1.488   .     S
C765   O661    1.315   1_655 S
C766   C768    1.469   .     S
C766   O800    1.300   .     A
C767   C771    1.406   .     A
C767   C773    1.423   .     A
C768   C774    1.410   .     A
C768   C772    1.400   .     A
C769   C771    1.395   .     A
C769   C777    1.400   .     A
C769   H651    1.084   1_655 S
C770   C772    1.390   .     A
C770   H788    1.084   .     S
C770   C778    1.400   .     A
C771   H650    1.083   1_655 S
C773   C775    1.414   .     A
C773   Cl802   1.776   .     S
C774   C776    1.415   .     A
C774   Cl801   1.777   .     S
C775   C777    1.414   .     A
C775   C779    1.420   .     A
C776   C778    1.420   .     A
C776   C780    1.423   .     A
C777   C141    1.399   1_556 S
C779   C168    1.412   1_556 S
Cu781  O793    1.957   .     S
Cu781  O800    1.942   .     S
Cu781  O797    1.951   .     S
Cu781  O796    1.957   .     S
Cu781  N791    2.034   .     S
Cu782  O794    1.957   .     S
Cu782  O799    1.942   .     S
Cu782  O798    1.951   .     S
Cu782  N792    2.034   .     S
Cu782  O795    1.957   .     S
Cu782  Cu645   2.707   1_655 S
H785   C636    1.083   1_655 S
O794   C614    1.297   1_655 S
O798   C630    1.308   1_655 S
O803   H804    0.990   .     S
O805   H806    0.990   .     S
O807   H808    0.990   .     S
O809   H810    0.990   .     S
O813   H814    0.977   .     S
O815   H816    0.976   .     S
C817   C828    1.449   .     S
C817   O863    1.298   .     A
C817   O929    1.299   .     S
C818   C827    1.445   .     S
C818   O864    1.297   .     A
C818   O998    1.297   1_455 S
C819   C821    1.395   .     A
C819   C848    1.411   .     A
C819   H857    1.081   .     S
C820   C847    1.410   .     A
C820   H858    1.082   .     S
C820   C822    1.389   .     A
C821   H851    1.083   .     S
C822   H852    1.084   .     S
C822   C234    1.396   1_556 S
C823   O871    1.382   .     S
C823   C828    1.405   .     A
C824   O873    1.383   .     S
C824   C827    1.402   .     A
C824   C1030   1.408   .     S
C825   O875    1.382   .     S
C825   C1027   1.408   .     S
C825   C895    1.402   .     S
C826   O877    1.381   .     S
C826   C964    1.405   1_455 S
C827   C961    1.402   1_455 S
C828   C894    1.405   .     S
C829   C831    1.414   .     A
C829   N860    1.371   .     A
C829   Cl879   1.762   .     S
C830   Cl880   1.762   .     S
C830   C832    1.416   .     A
C830   N859    1.369   .     A
C831   N859    1.382   .     A
C831   O881    1.374   .     S
C832   N860    1.385   .     A
C832   O883    1.375   .     S
C833   O867    1.303   .     A
C833   C835    1.488   .     S
C833   O933    1.315   .     S
C834   C836    1.469   .     S
C834   O868    1.300   .     A
C834   O1002   1.308   1_455 S
C835   C839    1.406   .     A
C835   C841    1.423   .     A
C836   C842    1.410   .     A
C836   C840    1.400   .     A
C837   C839    1.395   .     A
C837   C845    1.400   .     A
C837   H923    1.084   .     S
C838   C840    1.390   .     A
C838   H856    1.084   .     S
C838   C846    1.400   .     A
C839   H922    1.083   .     S
C840   H989    1.083   1_455 S
C841   C843    1.414   .     A
C841   Cl870   1.776   .     S
C842   C844    1.415   .     A
C842   Cl869   1.777   .     S
C843   C845    1.414   .     A
C843   C847    1.420   .     A
C844   C846    1.420   .     A
C844   C848    1.423   .     A
C845   C209    1.399   1_556 S
C847   C236    1.412   1_556 S
Cu849  O861    1.957   .     S
Cu849  O868    1.942   .     S
Cu849  O865    1.951   .     S
Cu849  O864    1.957   .     S
Cu849  N859    2.034   .     S
Cu849  Cu986   2.707   1_455 S
Cu850  O862    1.957   .     S
Cu850  O867    1.942   .     S
Cu850  O866    1.951   .     S
Cu850  N860    2.034   .     S
Cu850  O863    1.957   .     S
Cu850  Cu917   2.707   .     S
H853   C908    1.083   .     S
H854   C975    1.083   1_455 S
H855   C973    1.084   1_455 S
O861   C953    1.299   1_455 S
O862   C886    1.297   .     S
O865   C969    1.315   1_455 S
O866   C902    1.308   .     S
O871   H872    0.990   .     S
O873   H874    0.990   .     S
O875   H876    0.990   .     S
O877   H878    0.990   .     S
O881   H882    0.977   .     S
O883   H884    0.976   .     S
C885   C896    1.449   .     S
C885   O931    1.298   .     A
C885   O997    1.299   .     S
C886   C895    1.445   .     S
C886   O932    1.297   .     A
C887   C889    1.395   .     A
C887   C916    1.411   .     A
C887   H925    1.081   .     S
C888   C915    1.410   .     A
C888   H926    1.082   .     S
C888   C890    1.389   .     A
C889   H919    1.083   .     S
C890   H920    1.084   .     S
C890   C302    1.396   1_556 S
C891   O939    1.382   .     S
C891   C896    1.405   .     A
C892   O941    1.383   .     S
C892   C895    1.402   .     A
C892   C1098   1.408   .     S
C893   O943    1.382   .     S
C893   C1095   1.408   .     S
C893   C963    1.402   .     S
C894   O945    1.381   .     S
C896   C962    1.405   .     S
C897   C899    1.414   .     A
C897   N928    1.371   .     A
C897   Cl947   1.762   .     S
C898   Cl948   1.762   .     S
C898   C900    1.416   .     A
C898   N927    1.369   .     A
C899   N927    1.382   .     A
C899   O949    1.374   .     S
C900   N928    1.385   .     A
C900   O951    1.375   .     S
C901   O935    1.303   .     A
C901   C903    1.488   .     S
C901   O1001   1.315   .     S
C902   C904    1.469   .     S
C902   O936    1.300   .     A
C903   C907    1.406   .     A
C903   C909    1.423   .     A
C904   C910    1.410   .     A
C904   C908    1.400   .     A
C905   C907    1.395   .     A
C905   C913    1.400   .     A
C905   H991    1.084   .     S
C906   C908    1.390   .     A
C906   H924    1.084   .     S
C906   C914    1.400   .     A
C907   H990    1.083   .     S
C909   C911    1.414   .     A
C909   Cl938   1.776   .     S
C910   C912    1.415   .     A
C910   Cl937   1.777   .     S
C911   C913    1.414   .     A
C911   C915    1.420   .     A
C912   C914    1.420   .     A
C912   C916    1.423   .     A
C913   C277    1.399   1_556 S
C915   C304    1.412   1_556 S
Cu917  O929    1.957   .     S
Cu917  O936    1.942   .     S
Cu917  O933    1.951   .     S
Cu917  O932    1.957   .     S
Cu917  N927    2.034   .     S
Cu918  O930    1.957   .     S
Cu918  O935    1.942   .     S
Cu918  O934    1.951   .     S
Cu918  N928    2.034   .     S
Cu918  O931    1.957   .     S
Cu918  Cu985   2.707   .     S
H921   C976    1.083   .     S
O930   C954    1.297   .     S
O934   C970    1.308   .     S
O939   H940    0.990   .     S
O941   H942    0.990   .     S
O943   H944    0.990   .     S
O945   H946    0.990   .     S
O949   H950    0.977   .     S
O951   H952    0.976   .     S
C953   C964    1.449   .     S
C953   O999    1.298   .     A
C953   O861    1.299   1_655 S
C954   C963    1.445   .     S
C954   O1000   1.297   .     A
C955   C957    1.395   .     A
C955   C984    1.411   .     A
C955   H993    1.081   .     S
C956   C983    1.410   .     A
C956   H994    1.082   .     S
C956   C958    1.389   .     A
C957   H987    1.083   .     S
C958   H988    1.084   .     S
C958   C370    1.396   1_556 S
C959   O1007   1.382   .     S
C959   C964    1.405   .     A
C960   O1009   1.383   .     S
C960   C963    1.402   .     A
C960   C1166   1.408   .     S
C961   O1011   1.382   .     S
C961   C1163   1.408   .     S
C961   C827    1.402   1_655 S
C962   O1013   1.381   .     S
C964   C826    1.405   1_655 S
C965   C967    1.414   .     A
C965   N996    1.371   .     A
C965   Cl1015  1.762   .     S
C966   Cl1016  1.762   .     S
C966   C968    1.416   .     A
C966   N995    1.369   .     A
C967   N995    1.382   .     A
C967   O1017   1.374   .     S
C968   N996    1.385   .     A
C968   O1019   1.375   .     S
C969   O1003   1.303   .     A
C969   C971    1.488   .     S
C969   O865    1.315   1_655 S
C970   C972    1.469   .     S
C970   O1004   1.300   .     A
C971   C975    1.406   .     A
C971   C977    1.423   .     A
C972   C978    1.410   .     A
C972   C976    1.400   .     A
C973   C975    1.395   .     A
C973   C981    1.400   .     A
C973   H855    1.084   1_655 S
C974   C976    1.390   .     A
C974   H992    1.084   .     S
C974   C982    1.400   .     A
C975   H854    1.083   1_655 S
C977   C979    1.414   .     A
C977   Cl1006  1.776   .     S
C978   C980    1.415   .     A
C978   Cl1005  1.777   .     S
C979   C981    1.414   .     A
C979   C983    1.420   .     A
C980   C982    1.420   .     A
C980   C984    1.423   .     A
C981   C345    1.399   1_556 S
C983   C372    1.412   1_556 S
Cu985  O997    1.957   .     S
Cu985  O1004   1.942   .     S
Cu985  O1001   1.951   .     S
Cu985  O1000   1.957   .     S
Cu985  N995    2.034   .     S
Cu986  O998    1.957   .     S
Cu986  O1003   1.942   .     S
Cu986  O1002   1.951   .     S
Cu986  N996    2.034   .     S
Cu986  O999    1.957   .     S
Cu986  Cu849   2.707   1_655 S
H989   C840    1.083   1_655 S
O998   C818    1.297   1_655 S
O1002  C834    1.308   1_655 S
O1007  H1008   0.990   .     S
O1009  H1010   0.990   .     S
O1011  H1012   0.990   .     S
O1013  H1014   0.990   .     S
O1017  H1018   0.977   .     S
O1019  H1020   0.976   .     S
C1021  C1032   1.449   .     S
C1021  O1067   1.298   .     A
C1021  O1133   1.299   .     S
C1022  C1031   1.445   .     S
C1022  O1068   1.297   .     A
C1022  O1202   1.297   1_455 S
C1023  C1025   1.395   .     A
C1023  C1052   1.411   .     A
C1023  H1061   1.081   .     S
C1024  C1051   1.410   .     A
C1024  H1062   1.082   .     S
C1024  C1026   1.389   .     A
C1025  H1055   1.083   .     S
C1026  H1056   1.084   .     S
C1026  C438    1.396   1_556 S
C1027  O1075   1.382   .     S
C1027  C1032   1.405   .     A
C1028  O1077   1.383   .     S
C1028  C1031   1.402   .     A
C1028  C622    1.408   1_565 S
C1029  O1079   1.382   .     S
C1029  C619    1.408   1_565 S
C1029  C1099   1.402   .     S
C1030  O1081   1.381   .     S
C1030  C1168   1.405   1_455 S
C1031  C1165   1.402   1_455 S
C1032  C1098   1.405   .     S
C1033  C1035   1.414   .     A
C1033  N1064   1.371   .     A
C1033  Cl1083  1.762   .     S
C1034  Cl1084  1.762   .     S
C1034  C1036   1.416   .     A
C1034  N1063   1.369   .     A
C1035  N1063   1.382   .     A
C1035  O1085   1.374   .     S
C1036  N1064   1.385   .     A
C1036  O1087   1.375   .     S
C1037  O1071   1.303   .     A
C1037  C1039   1.488   .     S
C1037  O1137   1.315   .     S
C1038  C1040   1.469   .     S
C1038  O1072   1.300   .     A
C1038  O1206   1.308   1_455 S
C1039  C1043   1.406   .     A
C1039  C1045   1.423   .     A
C1040  C1046   1.410   .     A
C1040  C1044   1.400   .     A
C1041  C1043   1.395   .     A
C1041  C1049   1.400   .     A
C1041  H1127   1.084   .     S
C1042  C1044   1.390   .     A
C1042  H1060   1.084   .     S
C1042  C1050   1.400   .     A
C1043  H1126   1.083   .     S
C1044  H1193   1.083   1_455 S
C1045  C1047   1.414   .     A
C1045  Cl1074  1.776   .     S
C1046  C1048   1.415   .     A
C1046  Cl1073  1.777   .     S
C1047  C1049   1.414   .     A
C1047  C1051   1.420   .     A
C1048  C1050   1.420   .     A
C1048  C1052   1.423   .     A
C1049  C413    1.399   1_556 S
C1051  C440    1.412   1_556 S
Cu1053 O1065   1.957   .     S
Cu1053 O1072   1.942   .     S
Cu1053 O1069   1.951   .     S
Cu1053 O1068   1.957   .     S
Cu1053 N1063   2.034   .     S
Cu1053 Cu1190  2.707   1_455 S
Cu1054 O1066   1.957   .     S
Cu1054 O1071   1.942   .     S
Cu1054 O1070   1.951   .     S
Cu1054 N1064   2.034   .     S
Cu1054 O1067   1.957   .     S
Cu1054 Cu1121  2.707   .     S
H1057  C1112   1.083   .     S
H1058  C1179   1.083   1_455 S
H1059  C1177   1.084   1_455 S
O1065  C1157   1.299   1_455 S
O1066  C1090   1.297   .     S
O1069  C1173   1.315   1_455 S
O1070  C1106   1.308   .     S
O1075  H1076   0.990   .     S
O1077  H1078   0.990   .     S
O1079  H1080   0.990   .     S
O1081  H1082   0.990   .     S
O1085  H1086   0.977   .     S
O1087  H1088   0.976   .     S
C1089  C1100   1.449   .     S
C1089  O1135   1.298   .     A
C1089  O1201   1.299   .     S
C1090  C1099   1.445   .     S
C1090  O1136   1.297   .     A
C1091  C1093   1.395   .     A
C1091  C1120   1.411   .     A
C1091  H1129   1.081   .     S
C1092  C1119   1.410   .     A
C1092  H1130   1.082   .     S
C1092  C1094   1.389   .     A
C1093  H1123   1.083   .     S
C1094  H1124   1.084   .     S
C1094  C506    1.396   1_556 S
C1095  O1143   1.382   .     S
C1095  C1100   1.405   .     A
C1096  O1145   1.383   .     S
C1096  C1099   1.402   .     A
C1096  C690    1.408   1_565 S
C1097  O1147   1.382   .     S
C1097  C687    1.408   1_565 S
C1097  C1167   1.402   .     S
C1098  O1149   1.381   .     S
C1100  C1166   1.405   .     S
C1101  C1103   1.414   .     A
C1101  N1132   1.371   .     A
C1101  Cl1151  1.762   .     S
C1102  Cl1152  1.762   .     S
C1102  C1104   1.416   .     A
C1102  N1131   1.369   .     A
C1103  N1131   1.382   .     A
C1103  O1153   1.374   .     S
C1104  N1132   1.385   .     A
C1104  O1155   1.375   .     S
C1105  O1139   1.303   .     A
C1105  C1107   1.488   .     S
C1105  O1205   1.315   .     S
C1106  C1108   1.469   .     S
C1106  O1140   1.300   .     A
C1107  C1111   1.406   .     A
C1107  C1113   1.423   .     A
C1108  C1114   1.410   .     A
C1108  C1112   1.400   .     A
C1109  C1111   1.395   .     A
C1109  C1117   1.400   .     A
C1109  H1195   1.084   .     S
C1110  C1112   1.390   .     A
C1110  H1128   1.084   .     S
C1110  C1118   1.400   .     A
C1111  H1194   1.083   .     S
C1113  C1115   1.414   .     A
C1113  Cl1142  1.776   .     S
C1114  C1116   1.415   .     A
C1114  Cl1141  1.777   .     S
C1115  C1117   1.414   .     A
C1115  C1119   1.420   .     A
C1116  C1118   1.420   .     A
C1116  C1120   1.423   .     A
C1117  C481    1.399   1_556 S
C1119  C508    1.412   1_556 S
Cu1121 O1133   1.957   .     S
Cu1121 O1140   1.942   .     S
Cu1121 O1137   1.951   .     S
Cu1121 O1136   1.957   .     S
Cu1121 N1131   2.034   .     S
Cu1122 O1134   1.957   .     S
Cu1122 O1139   1.942   .     S
Cu1122 O1138   1.951   .     S
Cu1122 N1132   2.034   .     S
Cu1122 O1135   1.957   .     S
Cu1122 Cu1189  2.707   .     S
H1125  C1180   1.083   .     S
O1134  C1158   1.297   .     S
O1138  C1174   1.308   .     S
O1143  H1144   0.990   .     S
O1145  H1146   0.990   .     S
O1147  H1148   0.990   .     S
O1149  H1150   0.990   .     S
O1153  H1154   0.977   .     S
O1155  H1156   0.976   .     S
C1157  C1168   1.449   .     S
C1157  O1203   1.298   .     A
C1157  O1065   1.299   1_655 S
C1158  C1167   1.445   .     S
C1158  O1204   1.297   .     A
C1159  C1161   1.395   .     A
C1159  C1188   1.411   .     A
C1159  H1197   1.081   .     S
C1160  C1187   1.410   .     A
C1160  H1198   1.082   .     S
C1160  C1162   1.389   .     A
C1161  H1191   1.083   .     S
C1162  H1192   1.084   .     S
C1162  C574    1.396   1_556 S
C1163  O1211   1.382   .     S
C1163  C1168   1.405   .     A
C1164  O1213   1.383   .     S
C1164  C1167   1.402   .     A
C1164  C758    1.408   1_565 S
C1165  O1215   1.382   .     S
C1165  C755    1.408   1_565 S
C1165  C1031   1.402   1_655 S
C1166  O1217   1.381   .     S
C1168  C1030   1.405   1_655 S
C1169  C1171   1.414   .     A
C1169  N1200   1.371   .     A
C1169  Cl1219  1.762   .     S
C1170  Cl1220  1.762   .     S
C1170  C1172   1.416   .     A
C1170  N1199   1.369   .     A
C1171  N1199   1.382   .     A
C1171  O1221   1.374   .     S
C1172  N1200   1.385   .     A
C1172  O1223   1.375   .     S
C1173  O1207   1.303   .     A
C1173  C1175   1.488   .     S
C1173  O1069   1.315   1_655 S
C1174  C1176   1.469   .     S
C1174  O1208   1.300   .     A
C1175  C1179   1.406   .     A
C1175  C1181   1.423   .     A
C1176  C1182   1.410   .     A
C1176  C1180   1.400   .     A
C1177  C1179   1.395   .     A
C1177  C1185   1.400   .     A
C1177  H1059   1.084   1_655 S
C1178  C1180   1.390   .     A
C1178  H1196   1.084   .     S
C1178  C1186   1.400   .     A
C1179  H1058   1.083   1_655 S
C1181  C1183   1.414   .     A
C1181  Cl1210  1.776   .     S
C1182  C1184   1.415   .     A
C1182  Cl1209  1.777   .     S
C1183  C1185   1.414   .     A
C1183  C1187   1.420   .     A
C1184  C1186   1.420   .     A
C1184  C1188   1.423   .     A
C1185  C549    1.399   1_556 S
C1187  C576    1.412   1_556 S
Cu1189 O1201   1.957   .     S
Cu1189 O1208   1.942   .     S
Cu1189 O1205   1.951   .     S
Cu1189 O1204   1.957   .     S
Cu1189 N1199   2.034   .     S
Cu1190 O1202   1.957   .     S
Cu1190 O1207   1.942   .     S
Cu1190 O1206   1.951   .     S
Cu1190 N1200   2.034   .     S
Cu1190 O1203   1.957   .     S
Cu1190 Cu1053  2.707   1_655 S
H1193  C1044   1.083   1_655 S
O1202  C1022   1.297   1_655 S
O1206  C1038   1.308   1_655 S
O1211  H1212   0.990   .     S
O1213  H1214   0.990   .     S
O1215  H1216   0.990   .     S
O1217  H1218   0.990   .     S
O1221  H1222   0.977   .     S
O1223  H1224   0.976   .     S
