data_str_m2_o1_o1_pcu_sym.59
_audit_creation_date              2020-01-03
_audit_creation_method            'Materials Studio'
_symmetry_space_group_name_H-M    'P1'
_symmetry_Int_Tables_number       1
_symmetry_cell_setting            triclinic
loop_
_symmetry_equiv_pos_as_xyz
  x,y,z
_cell_length_a                    31.8053
_cell_length_b                    29.7195
_cell_length_c                    28.7028
_cell_angle_alpha                 89.9998
_cell_angle_beta                  89.9999
_cell_angle_gamma                 90.0000
loop_
_atom_site_label
_atom_site_type_symbol
_atom_site_fract_x
_atom_site_fract_y
_atom_site_fract_z
_atom_site_U_iso_or_equiv
_atom_site_adp_type
_atom_site_occupancy
Br1    Br   -0.00000   0.15303   0.05645   0.00000  Uiso   1.00
Br2    Br    0.10973   0.32220   0.26714   0.00000  Uiso   1.00
Br3    Br    0.10973   0.32220   0.06619   0.00000  Uiso   1.00
Br4    Br    0.39027   0.17780   0.26714   0.00000  Uiso   1.00
Br5    Br    0.10973   0.17780   0.26714   0.00000  Uiso   1.00
Br6    Br    0.39027   0.32220   0.06619   0.00000  Uiso   1.00
Br7    Br    0.39027   0.32220   0.26714   0.00000  Uiso   1.00
Br8    Br    0.10973   0.17780   0.06619   0.00000  Uiso   1.00
Br9    Br    0.14027   0.42780   0.06619   0.00000  Uiso   1.00
Br10   Br    0.35973   0.07220   0.26714   0.00000  Uiso   1.00
Br11   Br    0.35973   0.07220   0.06619   0.00000  Uiso   1.00
Br12   Br    0.00000   0.34697   0.27689   0.00000  Uiso   1.00
Br13   Br    0.14027   0.42780   0.26714   0.00000  Uiso   1.00
Br14   Br    0.35973   0.42780   0.26714   0.00000  Uiso   1.00
Br15   Br    0.14027   0.07220   0.06619   0.00000  Uiso   1.00
Br16   Br    0.14027   0.07220   0.26714   0.00000  Uiso   1.00
Br17   Br    0.35973   0.42780   0.06619   0.00000  Uiso   1.00
Br18   Br    0.00000   0.34697   0.05645   0.00000  Uiso   1.00
Br19   Br    0.00000   0.15303   0.27689   0.00000  Uiso   1.00
Br20   Br    0.25000   0.40303   0.05645   0.00000  Uiso   1.00
Br21   Br    0.25000   0.09697   0.27689   0.00000  Uiso   1.00
Br22   Br    0.25000   0.09697   0.05645   0.00000  Uiso   1.00
Br23   Br    0.25000   0.40303   0.27689   0.00000  Uiso   1.00
Br24   Br    0.39027   0.17780   0.06619   0.00000  Uiso   1.00
C25    C     0.06187   0.19337   0.16667   0.00000  Uiso   1.00
C26    C     0.00000   0.28971   0.30860   0.00000  Uiso   1.00
C27    C     0.00000   0.28971   0.02473   0.00000  Uiso   1.00
C28    C     0.00000   0.21029   0.30860   0.00000  Uiso   1.00
C29    C     0.25000   0.46029   0.02473   0.00000  Uiso   1.00
C30    C     0.25000   0.03971   0.30860   0.00000  Uiso   1.00
C31    C     0.25000   0.03971   0.02473   0.00000  Uiso   1.00
C32    C     0.25000   0.46029   0.30860   0.00000  Uiso   1.00
C33    C     0.38690   0.14465   0.12418   0.00000  Uiso   1.00
C34    C     0.11310   0.35535   0.20916   0.00000  Uiso   1.00
C35    C     0.11310   0.35536   0.12418   0.00000  Uiso   1.00
C36    C     0.43813   0.30663   0.16667   0.00000  Uiso   1.00
C37    C     0.38690   0.14465   0.20916   0.00000  Uiso   1.00
C38    C     0.11310   0.14465   0.20916   0.00000  Uiso   1.00
C39    C     0.38690   0.35535   0.12418   0.00000  Uiso   1.00
C40    C     0.38690   0.35535   0.20916   0.00000  Uiso   1.00
C41    C     0.11310   0.14465   0.12418   0.00000  Uiso   1.00
C42    C     0.13690   0.39465   0.12418   0.00000  Uiso   1.00
C43    C     0.36310   0.10535   0.20916   0.00000  Uiso   1.00
C44    C     0.36310   0.10536   0.12418   0.00000  Uiso   1.00
C45    C     0.13690   0.39465   0.20916   0.00000  Uiso   1.00
C46    C     0.36310   0.39465   0.20916   0.00000  Uiso   1.00
C47    C     0.43813   0.19337   0.16667   0.00000  Uiso   1.00
C48    C     0.13690   0.10535   0.12418   0.00000  Uiso   1.00
C49    C     0.13690   0.10535   0.20916   0.00000  Uiso   1.00
C50    C     0.36310   0.39465   0.12418   0.00000  Uiso   1.00
C51    C     0.09767   0.33799   0.16667   0.00000  Uiso   1.00
C52    C     0.40233   0.16201   0.16667   0.00000  Uiso   1.00
C53    C     0.40233   0.33799   0.16667   0.00000  Uiso   1.00
C54    C     0.09767   0.16201   0.16667   0.00000  Uiso   1.00
C55    C     0.34767   0.08799   0.16667   0.00000  Uiso   1.00
C56    C     0.15233   0.41201   0.16667   0.00000  Uiso   1.00
C57    C     0.15233   0.08799   0.16667   0.00000  Uiso   1.00
C58    C     0.06187   0.30663   0.16667   0.00000  Uiso   1.00
C59    C     0.34767   0.41201   0.16667   0.00000  Uiso   1.00
C60    C     0.31187   0.44337   0.16667   0.00000  Uiso   1.00
C61    C     0.18813   0.05663   0.16667   0.00000  Uiso   1.00
C62    C     0.18813   0.44337   0.16667   0.00000  Uiso   1.00
C63    C     0.31187   0.05663   0.16667   0.00000  Uiso   1.00
C64    C     0.00000   0.21029   0.02473   0.00000  Uiso   1.00
Cu65   Cu    0.00000   0.25000   0.21355   0.00000  Uiso   1.00
Cu66   Cu    0.00000   0.25000   0.11978   0.00000  Uiso   1.00
Cu67   Cu    0.25000   0.00000   0.21355   0.00000  Uiso   1.00
Cu68   Cu    0.25000   0.00000   0.11978   0.00000  Uiso   1.00
N69    N     0.00000   0.25000   0.28402   0.00000  Uiso   1.00
N70    N     0.00000   0.25000   0.04931   0.00000  Uiso   1.00
N71    N     0.25000   0.00000   0.28402   0.00000  Uiso   1.00
N72    N     0.25000   0.00000   0.04931   0.00000  Uiso   1.00
O73    O     0.04509   0.20491   0.20625   0.00000  Uiso   1.00
O74    O     0.20492   0.04509   0.12709   0.00000  Uiso   1.00
O75    O     0.20492   0.04509   0.20625   0.00000  Uiso   1.00
O76    O     0.29509   0.45491   0.12709   0.00000  Uiso   1.00
O77    O     0.20492   0.45491   0.12709   0.00000  Uiso   1.00
O78    O     0.29509   0.04509   0.20625   0.00000  Uiso   1.00
O79    O     0.29509   0.04509   0.12709   0.00000  Uiso   1.00
O80    O     0.20492   0.45491   0.20625   0.00000  Uiso   1.00
O81    O     0.45492   0.29509   0.12709   0.00000  Uiso   1.00
O82    O     0.45492   0.29509   0.20625   0.00000  Uiso   1.00
O83    O     0.04509   0.20491   0.12709   0.00000  Uiso   1.00
O84    O     0.45492   0.20491   0.12709   0.00000  Uiso   1.00
O85    O     0.04509   0.29509   0.20625   0.00000  Uiso   1.00
O86    O     0.04509   0.29509   0.12709   0.00000  Uiso   1.00
O87    O     0.45492   0.20491   0.20625   0.00000  Uiso   1.00
O88    O     0.29509   0.45491   0.20625   0.00000  Uiso   1.00
Br89   Br    0.50000   0.15303   0.05645   0.00000  Uiso   1.00
Br90   Br    0.60973   0.32220   0.26714   0.00000  Uiso   1.00
Br91   Br    0.60973   0.32220   0.06619   0.00000  Uiso   1.00
Br92   Br    0.89027   0.17780   0.26714   0.00000  Uiso   1.00
Br93   Br    0.60973   0.17780   0.26714   0.00000  Uiso   1.00
Br94   Br    0.89027   0.32220   0.06619   0.00000  Uiso   1.00
Br95   Br    0.89027   0.32220   0.26714   0.00000  Uiso   1.00
Br96   Br    0.60973   0.17780   0.06619   0.00000  Uiso   1.00
Br97   Br    0.64027   0.42780   0.06619   0.00000  Uiso   1.00
Br98   Br    0.85973   0.07220   0.26714   0.00000  Uiso   1.00
Br99   Br    0.85973   0.07220   0.06619   0.00000  Uiso   1.00
Br100  Br    0.50000   0.34697   0.27689   0.00000  Uiso   1.00
Br101  Br    0.64027   0.42780   0.26714   0.00000  Uiso   1.00
Br102  Br    0.85973   0.42780   0.26714   0.00000  Uiso   1.00
Br103  Br    0.64027   0.07220   0.06619   0.00000  Uiso   1.00
Br104  Br    0.64027   0.07220   0.26714   0.00000  Uiso   1.00
Br105  Br    0.85973   0.42780   0.06619   0.00000  Uiso   1.00
Br106  Br    0.50000   0.34697   0.05645   0.00000  Uiso   1.00
Br107  Br    0.50000   0.15303   0.27689   0.00000  Uiso   1.00
Br108  Br    0.75000   0.40303   0.05645   0.00000  Uiso   1.00
Br109  Br    0.75000   0.09697   0.27689   0.00000  Uiso   1.00
Br110  Br    0.75000   0.09697   0.05645   0.00000  Uiso   1.00
Br111  Br    0.75000   0.40303   0.27689   0.00000  Uiso   1.00
Br112  Br    0.89027   0.17780   0.06619   0.00000  Uiso   1.00
C113   C     0.56187   0.19337   0.16667   0.00000  Uiso   1.00
C114   C     0.50000   0.28971   0.30860   0.00000  Uiso   1.00
C115   C     0.50000   0.28971   0.02473   0.00000  Uiso   1.00
C116   C     0.50000   0.21029   0.30860   0.00000  Uiso   1.00
C117   C     0.75000   0.46029   0.02473   0.00000  Uiso   1.00
C118   C     0.75000   0.03971   0.30860   0.00000  Uiso   1.00
C119   C     0.75000   0.03971   0.02473   0.00000  Uiso   1.00
C120   C     0.75000   0.46029   0.30860   0.00000  Uiso   1.00
C121   C     0.88690   0.14465   0.12418   0.00000  Uiso   1.00
C122   C     0.61310   0.35535   0.20916   0.00000  Uiso   1.00
C123   C     0.61310   0.35536   0.12418   0.00000  Uiso   1.00
C124   C     0.93813   0.30663   0.16667   0.00000  Uiso   1.00
C125   C     0.88690   0.14465   0.20916   0.00000  Uiso   1.00
C126   C     0.61310   0.14465   0.20916   0.00000  Uiso   1.00
C127   C     0.88690   0.35535   0.12418   0.00000  Uiso   1.00
C128   C     0.88690   0.35535   0.20916   0.00000  Uiso   1.00
C129   C     0.61310   0.14465   0.12418   0.00000  Uiso   1.00
C130   C     0.63690   0.39465   0.12418   0.00000  Uiso   1.00
C131   C     0.86310   0.10535   0.20916   0.00000  Uiso   1.00
C132   C     0.86310   0.10536   0.12418   0.00000  Uiso   1.00
C133   C     0.63690   0.39465   0.20916   0.00000  Uiso   1.00
C134   C     0.86310   0.39465   0.20916   0.00000  Uiso   1.00
C135   C     0.93813   0.19337   0.16667   0.00000  Uiso   1.00
C136   C     0.63690   0.10535   0.12418   0.00000  Uiso   1.00
C137   C     0.63690   0.10535   0.20916   0.00000  Uiso   1.00
C138   C     0.86310   0.39465   0.12418   0.00000  Uiso   1.00
C139   C     0.59767   0.33799   0.16667   0.00000  Uiso   1.00
C140   C     0.90233   0.16201   0.16667   0.00000  Uiso   1.00
C141   C     0.90233   0.33799   0.16667   0.00000  Uiso   1.00
C142   C     0.59767   0.16201   0.16667   0.00000  Uiso   1.00
C143   C     0.84767   0.08799   0.16667   0.00000  Uiso   1.00
C144   C     0.65233   0.41201   0.16667   0.00000  Uiso   1.00
C145   C     0.65233   0.08799   0.16667   0.00000  Uiso   1.00
C146   C     0.56187   0.30663   0.16667   0.00000  Uiso   1.00
C147   C     0.84767   0.41201   0.16667   0.00000  Uiso   1.00
C148   C     0.81187   0.44337   0.16667   0.00000  Uiso   1.00
C149   C     0.68813   0.05663   0.16667   0.00000  Uiso   1.00
C150   C     0.68813   0.44337   0.16667   0.00000  Uiso   1.00
C151   C     0.81187   0.05663   0.16667   0.00000  Uiso   1.00
C152   C     0.50000   0.21029   0.02473   0.00000  Uiso   1.00
Cu153  Cu    0.50000   0.25000   0.21355   0.00000  Uiso   1.00
Cu154  Cu    0.50000   0.25000   0.11978   0.00000  Uiso   1.00
Cu155  Cu    0.75000   0.00000   0.21355   0.00000  Uiso   1.00
Cu156  Cu    0.75000   0.00000   0.11978   0.00000  Uiso   1.00
N157   N     0.50000   0.25000   0.28402   0.00000  Uiso   1.00
N158   N     0.50000   0.25000   0.04931   0.00000  Uiso   1.00
N159   N     0.75000   0.00000   0.28402   0.00000  Uiso   1.00
N160   N     0.75000   0.00000   0.04931   0.00000  Uiso   1.00
O161   O     0.54509   0.20491   0.20625   0.00000  Uiso   1.00
O162   O     0.70492   0.04509   0.12709   0.00000  Uiso   1.00
O163   O     0.70492   0.04509   0.20625   0.00000  Uiso   1.00
O164   O     0.79509   0.45491   0.12709   0.00000  Uiso   1.00
O165   O     0.70492   0.45491   0.12709   0.00000  Uiso   1.00
O166   O     0.79509   0.04509   0.20625   0.00000  Uiso   1.00
O167   O     0.79509   0.04509   0.12709   0.00000  Uiso   1.00
O168   O     0.70492   0.45491   0.20625   0.00000  Uiso   1.00
O169   O     0.95492   0.29509   0.12709   0.00000  Uiso   1.00
O170   O     0.95492   0.29509   0.20625   0.00000  Uiso   1.00
O171   O     0.54509   0.20491   0.12709   0.00000  Uiso   1.00
O172   O     0.95492   0.20491   0.12709   0.00000  Uiso   1.00
O173   O     0.54509   0.29509   0.20625   0.00000  Uiso   1.00
O174   O     0.54509   0.29509   0.12709   0.00000  Uiso   1.00
O175   O     0.95492   0.20491   0.20625   0.00000  Uiso   1.00
O176   O     0.79509   0.45491   0.20625   0.00000  Uiso   1.00
Br177  Br   -0.00000   0.65303   0.05645   0.00000  Uiso   1.00
Br178  Br    0.10973   0.82220   0.26714   0.00000  Uiso   1.00
Br179  Br    0.10973   0.82220   0.06619   0.00000  Uiso   1.00
Br180  Br    0.39027   0.67780   0.26714   0.00000  Uiso   1.00
Br181  Br    0.10973   0.67780   0.26714   0.00000  Uiso   1.00
Br182  Br    0.39027   0.82220   0.06619   0.00000  Uiso   1.00
Br183  Br    0.39027   0.82220   0.26714   0.00000  Uiso   1.00
Br184  Br    0.10973   0.67780   0.06619   0.00000  Uiso   1.00
Br185  Br    0.14027   0.92780   0.06619   0.00000  Uiso   1.00
Br186  Br    0.35973   0.57220   0.26714   0.00000  Uiso   1.00
Br187  Br    0.35973   0.57220   0.06619   0.00000  Uiso   1.00
Br188  Br    0.00000   0.84697   0.27689   0.00000  Uiso   1.00
Br189  Br    0.14027   0.92780   0.26714   0.00000  Uiso   1.00
Br190  Br    0.35973   0.92780   0.26714   0.00000  Uiso   1.00
Br191  Br    0.14027   0.57220   0.06619   0.00000  Uiso   1.00
Br192  Br    0.14027   0.57220   0.26714   0.00000  Uiso   1.00
Br193  Br    0.35973   0.92780   0.06619   0.00000  Uiso   1.00
Br194  Br    0.00000   0.84697   0.05645   0.00000  Uiso   1.00
Br195  Br    0.00000   0.65303   0.27689   0.00000  Uiso   1.00
Br196  Br    0.25000   0.90303   0.05645   0.00000  Uiso   1.00
Br197  Br    0.25000   0.59697   0.27689   0.00000  Uiso   1.00
Br198  Br    0.25000   0.59697   0.05645   0.00000  Uiso   1.00
Br199  Br    0.25000   0.90303   0.27689   0.00000  Uiso   1.00
Br200  Br    0.39027   0.67780   0.06619   0.00000  Uiso   1.00
C201   C     0.06187   0.69337   0.16667   0.00000  Uiso   1.00
C202   C     0.00000   0.78971   0.30860   0.00000  Uiso   1.00
C203   C     0.00000   0.78971   0.02473   0.00000  Uiso   1.00
C204   C     0.00000   0.71029   0.30860   0.00000  Uiso   1.00
C205   C     0.25000   0.96029   0.02473   0.00000  Uiso   1.00
C206   C     0.25000   0.53971   0.30860   0.00000  Uiso   1.00
C207   C     0.25000   0.53971   0.02473   0.00000  Uiso   1.00
C208   C     0.25000   0.96029   0.30860   0.00000  Uiso   1.00
C209   C     0.38690   0.64465   0.12418   0.00000  Uiso   1.00
C210   C     0.11310   0.85535   0.20916   0.00000  Uiso   1.00
C211   C     0.11310   0.85536   0.12418   0.00000  Uiso   1.00
C212   C     0.43813   0.80663   0.16667   0.00000  Uiso   1.00
C213   C     0.38690   0.64465   0.20916   0.00000  Uiso   1.00
C214   C     0.11310   0.64465   0.20916   0.00000  Uiso   1.00
C215   C     0.38690   0.85535   0.12418   0.00000  Uiso   1.00
C216   C     0.38690   0.85535   0.20916   0.00000  Uiso   1.00
C217   C     0.11310   0.64465   0.12418   0.00000  Uiso   1.00
C218   C     0.13690   0.89465   0.12418   0.00000  Uiso   1.00
C219   C     0.36310   0.60535   0.20916   0.00000  Uiso   1.00
C220   C     0.36310   0.60536   0.12418   0.00000  Uiso   1.00
C221   C     0.13690   0.89465   0.20916   0.00000  Uiso   1.00
C222   C     0.36310   0.89465   0.20916   0.00000  Uiso   1.00
C223   C     0.43813   0.69337   0.16667   0.00000  Uiso   1.00
C224   C     0.13690   0.60535   0.12418   0.00000  Uiso   1.00
C225   C     0.13690   0.60535   0.20916   0.00000  Uiso   1.00
C226   C     0.36310   0.89465   0.12418   0.00000  Uiso   1.00
C227   C     0.09767   0.83799   0.16667   0.00000  Uiso   1.00
C228   C     0.40233   0.66201   0.16667   0.00000  Uiso   1.00
C229   C     0.40233   0.83799   0.16667   0.00000  Uiso   1.00
C230   C     0.09767   0.66201   0.16667   0.00000  Uiso   1.00
C231   C     0.34767   0.58799   0.16667   0.00000  Uiso   1.00
C232   C     0.15233   0.91201   0.16667   0.00000  Uiso   1.00
C233   C     0.15233   0.58799   0.16667   0.00000  Uiso   1.00
C234   C     0.06187   0.80663   0.16667   0.00000  Uiso   1.00
C235   C     0.34767   0.91201   0.16667   0.00000  Uiso   1.00
C236   C     0.31187   0.94337   0.16667   0.00000  Uiso   1.00
C237   C     0.18813   0.55663   0.16667   0.00000  Uiso   1.00
C238   C     0.18813   0.94337   0.16667   0.00000  Uiso   1.00
C239   C     0.31187   0.55663   0.16667   0.00000  Uiso   1.00
C240   C     0.00000   0.71029   0.02473   0.00000  Uiso   1.00
Cu241  Cu    0.00000   0.75000   0.21355   0.00000  Uiso   1.00
Cu242  Cu    0.00000   0.75000   0.11978   0.00000  Uiso   1.00
Cu243  Cu    0.25000   0.50000   0.21355   0.00000  Uiso   1.00
Cu244  Cu    0.25000   0.50000   0.11978   0.00000  Uiso   1.00
N245   N     0.00000   0.75000   0.28402   0.00000  Uiso   1.00
N246   N     0.00000   0.75000   0.04931   0.00000  Uiso   1.00
N247   N     0.25000   0.50000   0.28402   0.00000  Uiso   1.00
N248   N     0.25000   0.50000   0.04931   0.00000  Uiso   1.00
O249   O     0.04509   0.70491   0.20625   0.00000  Uiso   1.00
O250   O     0.20492   0.54509   0.12709   0.00000  Uiso   1.00
O251   O     0.20492   0.54509   0.20625   0.00000  Uiso   1.00
O252   O     0.29509   0.95491   0.12709   0.00000  Uiso   1.00
O253   O     0.20492   0.95491   0.12709   0.00000  Uiso   1.00
O254   O     0.29509   0.54509   0.20625   0.00000  Uiso   1.00
O255   O     0.29509   0.54509   0.12709   0.00000  Uiso   1.00
O256   O     0.20492   0.95491   0.20625   0.00000  Uiso   1.00
O257   O     0.45492   0.79509   0.12709   0.00000  Uiso   1.00
O258   O     0.45492   0.79509   0.20625   0.00000  Uiso   1.00
O259   O     0.04509   0.70491   0.12709   0.00000  Uiso   1.00
O260   O     0.45492   0.70491   0.12709   0.00000  Uiso   1.00
O261   O     0.04509   0.79509   0.20625   0.00000  Uiso   1.00
O262   O     0.04509   0.79509   0.12709   0.00000  Uiso   1.00
O263   O     0.45492   0.70491   0.20625   0.00000  Uiso   1.00
O264   O     0.29509   0.95491   0.20625   0.00000  Uiso   1.00
Br265  Br    0.50000   0.65303   0.05645   0.00000  Uiso   1.00
Br266  Br    0.60973   0.82220   0.26714   0.00000  Uiso   1.00
Br267  Br    0.60973   0.82220   0.06619   0.00000  Uiso   1.00
Br268  Br    0.89027   0.67780   0.26714   0.00000  Uiso   1.00
Br269  Br    0.60973   0.67780   0.26714   0.00000  Uiso   1.00
Br270  Br    0.89027   0.82220   0.06619   0.00000  Uiso   1.00
Br271  Br    0.89027   0.82220   0.26714   0.00000  Uiso   1.00
Br272  Br    0.60973   0.67780   0.06619   0.00000  Uiso   1.00
Br273  Br    0.64027   0.92780   0.06619   0.00000  Uiso   1.00
Br274  Br    0.85973   0.57220   0.26714   0.00000  Uiso   1.00
Br275  Br    0.85973   0.57220   0.06619   0.00000  Uiso   1.00
Br276  Br    0.50000   0.84697   0.27689   0.00000  Uiso   1.00
Br277  Br    0.64027   0.92780   0.26714   0.00000  Uiso   1.00
Br278  Br    0.85973   0.92780   0.26714   0.00000  Uiso   1.00
Br279  Br    0.64027   0.57220   0.06619   0.00000  Uiso   1.00
Br280  Br    0.64027   0.57220   0.26714   0.00000  Uiso   1.00
Br281  Br    0.85973   0.92780   0.06619   0.00000  Uiso   1.00
Br282  Br    0.50000   0.84697   0.05645   0.00000  Uiso   1.00
Br283  Br    0.50000   0.65303   0.27689   0.00000  Uiso   1.00
Br284  Br    0.75000   0.90303   0.05645   0.00000  Uiso   1.00
Br285  Br    0.75000   0.59697   0.27689   0.00000  Uiso   1.00
Br286  Br    0.75000   0.59697   0.05645   0.00000  Uiso   1.00
Br287  Br    0.75000   0.90303   0.27689   0.00000  Uiso   1.00
Br288  Br    0.89027   0.67780   0.06619   0.00000  Uiso   1.00
C289   C     0.56187   0.69337   0.16667   0.00000  Uiso   1.00
C290   C     0.50000   0.78971   0.30860   0.00000  Uiso   1.00
C291   C     0.50000   0.78971   0.02473   0.00000  Uiso   1.00
C292   C     0.50000   0.71029   0.30860   0.00000  Uiso   1.00
C293   C     0.75000   0.96029   0.02473   0.00000  Uiso   1.00
C294   C     0.75000   0.53971   0.30860   0.00000  Uiso   1.00
C295   C     0.75000   0.53971   0.02473   0.00000  Uiso   1.00
C296   C     0.75000   0.96029   0.30860   0.00000  Uiso   1.00
C297   C     0.88690   0.64465   0.12418   0.00000  Uiso   1.00
C298   C     0.61310   0.85535   0.20916   0.00000  Uiso   1.00
C299   C     0.61310   0.85536   0.12418   0.00000  Uiso   1.00
C300   C     0.93813   0.80663   0.16667   0.00000  Uiso   1.00
C301   C     0.88690   0.64465   0.20916   0.00000  Uiso   1.00
C302   C     0.61310   0.64465   0.20916   0.00000  Uiso   1.00
C303   C     0.88690   0.85535   0.12418   0.00000  Uiso   1.00
C304   C     0.88690   0.85535   0.20916   0.00000  Uiso   1.00
C305   C     0.61310   0.64465   0.12418   0.00000  Uiso   1.00
C306   C     0.63690   0.89465   0.12418   0.00000  Uiso   1.00
C307   C     0.86310   0.60535   0.20916   0.00000  Uiso   1.00
C308   C     0.86310   0.60536   0.12418   0.00000  Uiso   1.00
C309   C     0.63690   0.89465   0.20916   0.00000  Uiso   1.00
C310   C     0.86310   0.89465   0.20916   0.00000  Uiso   1.00
C311   C     0.93813   0.69337   0.16667   0.00000  Uiso   1.00
C312   C     0.63690   0.60535   0.12418   0.00000  Uiso   1.00
C313   C     0.63690   0.60535   0.20916   0.00000  Uiso   1.00
C314   C     0.86310   0.89465   0.12418   0.00000  Uiso   1.00
C315   C     0.59767   0.83799   0.16667   0.00000  Uiso   1.00
C316   C     0.90233   0.66201   0.16667   0.00000  Uiso   1.00
C317   C     0.90233   0.83799   0.16667   0.00000  Uiso   1.00
C318   C     0.59767   0.66201   0.16667   0.00000  Uiso   1.00
C319   C     0.84767   0.58799   0.16667   0.00000  Uiso   1.00
C320   C     0.65233   0.91201   0.16667   0.00000  Uiso   1.00
C321   C     0.65233   0.58799   0.16667   0.00000  Uiso   1.00
C322   C     0.56187   0.80663   0.16667   0.00000  Uiso   1.00
C323   C     0.84767   0.91201   0.16667   0.00000  Uiso   1.00
C324   C     0.81187   0.94337   0.16667   0.00000  Uiso   1.00
C325   C     0.68813   0.55663   0.16667   0.00000  Uiso   1.00
C326   C     0.68813   0.94337   0.16667   0.00000  Uiso   1.00
C327   C     0.81187   0.55663   0.16667   0.00000  Uiso   1.00
C328   C     0.50000   0.71029   0.02473   0.00000  Uiso   1.00
Cu329  Cu    0.50000   0.75000   0.21355   0.00000  Uiso   1.00
Cu330  Cu    0.50000   0.75000   0.11978   0.00000  Uiso   1.00
Cu331  Cu    0.75000   0.50000   0.21355   0.00000  Uiso   1.00
Cu332  Cu    0.75000   0.50000   0.11978   0.00000  Uiso   1.00
N333   N     0.50000   0.75000   0.28402   0.00000  Uiso   1.00
N334   N     0.50000   0.75000   0.04931   0.00000  Uiso   1.00
N335   N     0.75000   0.50000   0.28402   0.00000  Uiso   1.00
N336   N     0.75000   0.50000   0.04931   0.00000  Uiso   1.00
O337   O     0.54509   0.70491   0.20625   0.00000  Uiso   1.00
O338   O     0.70492   0.54509   0.12709   0.00000  Uiso   1.00
O339   O     0.70492   0.54509   0.20625   0.00000  Uiso   1.00
O340   O     0.79509   0.95491   0.12709   0.00000  Uiso   1.00
O341   O     0.70492   0.95491   0.12709   0.00000  Uiso   1.00
O342   O     0.79509   0.54509   0.20625   0.00000  Uiso   1.00
O343   O     0.79509   0.54509   0.12709   0.00000  Uiso   1.00
O344   O     0.70492   0.95491   0.20625   0.00000  Uiso   1.00
O345   O     0.95492   0.79509   0.12709   0.00000  Uiso   1.00
O346   O     0.95492   0.79509   0.20625   0.00000  Uiso   1.00
O347   O     0.54509   0.70491   0.12709   0.00000  Uiso   1.00
O348   O     0.95492   0.70491   0.12709   0.00000  Uiso   1.00
O349   O     0.54509   0.79509   0.20625   0.00000  Uiso   1.00
O350   O     0.54509   0.79509   0.12709   0.00000  Uiso   1.00
O351   O     0.95492   0.70491   0.20625   0.00000  Uiso   1.00
O352   O     0.79509   0.95491   0.20625   0.00000  Uiso   1.00
Br353  Br   -0.00000   0.15303   0.38978   0.00000  Uiso   1.00
Br354  Br    0.10973   0.32220   0.60048   0.00000  Uiso   1.00
Br355  Br    0.10973   0.32220   0.39952   0.00000  Uiso   1.00
Br356  Br    0.39027   0.17780   0.60048   0.00000  Uiso   1.00
Br357  Br    0.10973   0.17780   0.60048   0.00000  Uiso   1.00
Br358  Br    0.39027   0.32220   0.39952   0.00000  Uiso   1.00
Br359  Br    0.39027   0.32220   0.60048   0.00000  Uiso   1.00
Br360  Br    0.10973   0.17780   0.39952   0.00000  Uiso   1.00
Br361  Br    0.14027   0.42780   0.39952   0.00000  Uiso   1.00
Br362  Br    0.35973   0.07220   0.60048   0.00000  Uiso   1.00
Br363  Br    0.35973   0.07220   0.39952   0.00000  Uiso   1.00
Br364  Br    0.00000   0.34697   0.61022   0.00000  Uiso   1.00
Br365  Br    0.14027   0.42780   0.60048   0.00000  Uiso   1.00
Br366  Br    0.35973   0.42780   0.60048   0.00000  Uiso   1.00
Br367  Br    0.14027   0.07220   0.39952   0.00000  Uiso   1.00
Br368  Br    0.14027   0.07220   0.60048   0.00000  Uiso   1.00
Br369  Br    0.35973   0.42780   0.39952   0.00000  Uiso   1.00
Br370  Br    0.00000   0.34697   0.38978   0.00000  Uiso   1.00
Br371  Br    0.00000   0.15303   0.61022   0.00000  Uiso   1.00
Br372  Br    0.25000   0.40303   0.38978   0.00000  Uiso   1.00
Br373  Br    0.25000   0.09697   0.61022   0.00000  Uiso   1.00
Br374  Br    0.25000   0.09697   0.38978   0.00000  Uiso   1.00
Br375  Br    0.25000   0.40303   0.61022   0.00000  Uiso   1.00
Br376  Br    0.39027   0.17780   0.39952   0.00000  Uiso   1.00
C377   C     0.06187   0.19337   0.50000   0.00000  Uiso   1.00
C378   C     0.00000   0.28971   0.64193   0.00000  Uiso   1.00
C379   C     0.00000   0.28971   0.35807   0.00000  Uiso   1.00
C380   C     0.00000   0.21029   0.64193   0.00000  Uiso   1.00
C381   C     0.25000   0.46029   0.35807   0.00000  Uiso   1.00
C382   C     0.25000   0.03971   0.64193   0.00000  Uiso   1.00
C383   C     0.25000   0.03971   0.35807   0.00000  Uiso   1.00
C384   C     0.25000   0.46029   0.64193   0.00000  Uiso   1.00
C385   C     0.38690   0.14465   0.45751   0.00000  Uiso   1.00
C386   C     0.11310   0.35535   0.54249   0.00000  Uiso   1.00
C387   C     0.11310   0.35536   0.45751   0.00000  Uiso   1.00
C388   C     0.43813   0.30663   0.50000   0.00000  Uiso   1.00
C389   C     0.38690   0.14465   0.54249   0.00000  Uiso   1.00
C390   C     0.11310   0.14465   0.54249   0.00000  Uiso   1.00
C391   C     0.38690   0.35535   0.45751   0.00000  Uiso   1.00
C392   C     0.38690   0.35535   0.54249   0.00000  Uiso   1.00
C393   C     0.11310   0.14465   0.45751   0.00000  Uiso   1.00
C394   C     0.13690   0.39465   0.45751   0.00000  Uiso   1.00
C395   C     0.36310   0.10535   0.54249   0.00000  Uiso   1.00
C396   C     0.36310   0.10536   0.45751   0.00000  Uiso   1.00
C397   C     0.13690   0.39465   0.54249   0.00000  Uiso   1.00
C398   C     0.36310   0.39465   0.54249   0.00000  Uiso   1.00
C399   C     0.43813   0.19337   0.50000   0.00000  Uiso   1.00
C400   C     0.13690   0.10535   0.45751   0.00000  Uiso   1.00
C401   C     0.13690   0.10535   0.54249   0.00000  Uiso   1.00
C402   C     0.36310   0.39465   0.45751   0.00000  Uiso   1.00
C403   C     0.09767   0.33799   0.50000   0.00000  Uiso   1.00
C404   C     0.40233   0.16201   0.50000   0.00000  Uiso   1.00
C405   C     0.40233   0.33799   0.50000   0.00000  Uiso   1.00
C406   C     0.09767   0.16201   0.50000   0.00000  Uiso   1.00
C407   C     0.34767   0.08799   0.50000   0.00000  Uiso   1.00
C408   C     0.15233   0.41201   0.50000   0.00000  Uiso   1.00
C409   C     0.15233   0.08799   0.50000   0.00000  Uiso   1.00
C410   C     0.06187   0.30663   0.50000   0.00000  Uiso   1.00
C411   C     0.34767   0.41201   0.50000   0.00000  Uiso   1.00
C412   C     0.31187   0.44337   0.50000   0.00000  Uiso   1.00
C413   C     0.18813   0.05663   0.50000   0.00000  Uiso   1.00
C414   C     0.18813   0.44337   0.50000   0.00000  Uiso   1.00
C415   C     0.31187   0.05663   0.50000   0.00000  Uiso   1.00
C416   C     0.00000   0.21029   0.35807   0.00000  Uiso   1.00
Cu417  Cu    0.00000   0.25000   0.54689   0.00000  Uiso   1.00
Cu418  Cu    0.00000   0.25000   0.45311   0.00000  Uiso   1.00
Cu419  Cu    0.25000   0.00000   0.54689   0.00000  Uiso   1.00
Cu420  Cu    0.25000   0.00000   0.45311   0.00000  Uiso   1.00
N421   N     0.00000   0.25000   0.61736   0.00000  Uiso   1.00
N422   N     0.00000   0.25000   0.38264   0.00000  Uiso   1.00
N423   N     0.25000   0.00000   0.61736   0.00000  Uiso   1.00
N424   N     0.25000   0.00000   0.38264   0.00000  Uiso   1.00
O425   O     0.04509   0.20491   0.53958   0.00000  Uiso   1.00
O426   O     0.20492   0.04509   0.46042   0.00000  Uiso   1.00
O427   O     0.20492   0.04509   0.53958   0.00000  Uiso   1.00
O428   O     0.29509   0.45491   0.46042   0.00000  Uiso   1.00
O429   O     0.20492   0.45491   0.46042   0.00000  Uiso   1.00
O430   O     0.29509   0.04509   0.53958   0.00000  Uiso   1.00
O431   O     0.29509   0.04509   0.46042   0.00000  Uiso   1.00
O432   O     0.20492   0.45491   0.53958   0.00000  Uiso   1.00
O433   O     0.45492   0.29509   0.46042   0.00000  Uiso   1.00
O434   O     0.45492   0.29509   0.53958   0.00000  Uiso   1.00
O435   O     0.04509   0.20491   0.46042   0.00000  Uiso   1.00
O436   O     0.45492   0.20491   0.46042   0.00000  Uiso   1.00
O437   O     0.04509   0.29509   0.53958   0.00000  Uiso   1.00
O438   O     0.04509   0.29509   0.46042   0.00000  Uiso   1.00
O439   O     0.45492   0.20491   0.53958   0.00000  Uiso   1.00
O440   O     0.29509   0.45491   0.53958   0.00000  Uiso   1.00
Br441  Br    0.50000   0.15303   0.38978   0.00000  Uiso   1.00
Br442  Br    0.60973   0.32220   0.60048   0.00000  Uiso   1.00
Br443  Br    0.60973   0.32220   0.39952   0.00000  Uiso   1.00
Br444  Br    0.89027   0.17780   0.60048   0.00000  Uiso   1.00
Br445  Br    0.60973   0.17780   0.60048   0.00000  Uiso   1.00
Br446  Br    0.89027   0.32220   0.39952   0.00000  Uiso   1.00
Br447  Br    0.89027   0.32220   0.60048   0.00000  Uiso   1.00
Br448  Br    0.60973   0.17780   0.39952   0.00000  Uiso   1.00
Br449  Br    0.64027   0.42780   0.39952   0.00000  Uiso   1.00
Br450  Br    0.85973   0.07220   0.60048   0.00000  Uiso   1.00
Br451  Br    0.85973   0.07220   0.39952   0.00000  Uiso   1.00
Br452  Br    0.50000   0.34697   0.61022   0.00000  Uiso   1.00
Br453  Br    0.64027   0.42780   0.60048   0.00000  Uiso   1.00
Br454  Br    0.85973   0.42780   0.60048   0.00000  Uiso   1.00
Br455  Br    0.64027   0.07220   0.39952   0.00000  Uiso   1.00
Br456  Br    0.64027   0.07220   0.60048   0.00000  Uiso   1.00
Br457  Br    0.85973   0.42780   0.39952   0.00000  Uiso   1.00
Br458  Br    0.50000   0.34697   0.38978   0.00000  Uiso   1.00
Br459  Br    0.50000   0.15303   0.61022   0.00000  Uiso   1.00
Br460  Br    0.75000   0.40303   0.38978   0.00000  Uiso   1.00
Br461  Br    0.75000   0.09697   0.61022   0.00000  Uiso   1.00
Br462  Br    0.75000   0.09697   0.38978   0.00000  Uiso   1.00
Br463  Br    0.75000   0.40303   0.61022   0.00000  Uiso   1.00
Br464  Br    0.89027   0.17780   0.39952   0.00000  Uiso   1.00
C465   C     0.56187   0.19337   0.50000   0.00000  Uiso   1.00
C466   C     0.50000   0.28971   0.64193   0.00000  Uiso   1.00
C467   C     0.50000   0.28971   0.35807   0.00000  Uiso   1.00
C468   C     0.50000   0.21029   0.64193   0.00000  Uiso   1.00
C469   C     0.75000   0.46029   0.35807   0.00000  Uiso   1.00
C470   C     0.75000   0.03971   0.64193   0.00000  Uiso   1.00
C471   C     0.75000   0.03971   0.35807   0.00000  Uiso   1.00
C472   C     0.75000   0.46029   0.64193   0.00000  Uiso   1.00
C473   C     0.88690   0.14465   0.45751   0.00000  Uiso   1.00
C474   C     0.61310   0.35535   0.54249   0.00000  Uiso   1.00
C475   C     0.61310   0.35536   0.45751   0.00000  Uiso   1.00
C476   C     0.93813   0.30663   0.50000   0.00000  Uiso   1.00
C477   C     0.88690   0.14465   0.54249   0.00000  Uiso   1.00
C478   C     0.61310   0.14465   0.54249   0.00000  Uiso   1.00
C479   C     0.88690   0.35535   0.45751   0.00000  Uiso   1.00
C480   C     0.88690   0.35535   0.54249   0.00000  Uiso   1.00
C481   C     0.61310   0.14465   0.45751   0.00000  Uiso   1.00
C482   C     0.63690   0.39465   0.45751   0.00000  Uiso   1.00
C483   C     0.86310   0.10535   0.54249   0.00000  Uiso   1.00
C484   C     0.86310   0.10536   0.45751   0.00000  Uiso   1.00
C485   C     0.63690   0.39465   0.54249   0.00000  Uiso   1.00
C486   C     0.86310   0.39465   0.54249   0.00000  Uiso   1.00
C487   C     0.93813   0.19337   0.50000   0.00000  Uiso   1.00
C488   C     0.63690   0.10535   0.45751   0.00000  Uiso   1.00
C489   C     0.63690   0.10535   0.54249   0.00000  Uiso   1.00
C490   C     0.86310   0.39465   0.45751   0.00000  Uiso   1.00
C491   C     0.59767   0.33799   0.50000   0.00000  Uiso   1.00
C492   C     0.90233   0.16201   0.50000   0.00000  Uiso   1.00
C493   C     0.90233   0.33799   0.50000   0.00000  Uiso   1.00
C494   C     0.59767   0.16201   0.50000   0.00000  Uiso   1.00
C495   C     0.84767   0.08799   0.50000   0.00000  Uiso   1.00
C496   C     0.65233   0.41201   0.50000   0.00000  Uiso   1.00
C497   C     0.65233   0.08799   0.50000   0.00000  Uiso   1.00
C498   C     0.56187   0.30663   0.50000   0.00000  Uiso   1.00
C499   C     0.84767   0.41201   0.50000   0.00000  Uiso   1.00
C500   C     0.81187   0.44337   0.50000   0.00000  Uiso   1.00
C501   C     0.68813   0.05663   0.50000   0.00000  Uiso   1.00
C502   C     0.68813   0.44337   0.50000   0.00000  Uiso   1.00
C503   C     0.81187   0.05663   0.50000   0.00000  Uiso   1.00
C504   C     0.50000   0.21029   0.35807   0.00000  Uiso   1.00
Cu505  Cu    0.50000   0.25000   0.54689   0.00000  Uiso   1.00
Cu506  Cu    0.50000   0.25000   0.45311   0.00000  Uiso   1.00
Cu507  Cu    0.75000   0.00000   0.54689   0.00000  Uiso   1.00
Cu508  Cu    0.75000   0.00000   0.45311   0.00000  Uiso   1.00
N509   N     0.50000   0.25000   0.61736   0.00000  Uiso   1.00
N510   N     0.50000   0.25000   0.38264   0.00000  Uiso   1.00
N511   N     0.75000   0.00000   0.61736   0.00000  Uiso   1.00
N512   N     0.75000   0.00000   0.38264   0.00000  Uiso   1.00
O513   O     0.54509   0.20491   0.53958   0.00000  Uiso   1.00
O514   O     0.70492   0.04509   0.46042   0.00000  Uiso   1.00
O515   O     0.70492   0.04509   0.53958   0.00000  Uiso   1.00
O516   O     0.79509   0.45491   0.46042   0.00000  Uiso   1.00
O517   O     0.70492   0.45491   0.46042   0.00000  Uiso   1.00
O518   O     0.79509   0.04509   0.53958   0.00000  Uiso   1.00
O519   O     0.79509   0.04509   0.46042   0.00000  Uiso   1.00
O520   O     0.70492   0.45491   0.53958   0.00000  Uiso   1.00
O521   O     0.95492   0.29509   0.46042   0.00000  Uiso   1.00
O522   O     0.95492   0.29509   0.53958   0.00000  Uiso   1.00
O523   O     0.54509   0.20491   0.46042   0.00000  Uiso   1.00
O524   O     0.95492   0.20491   0.46042   0.00000  Uiso   1.00
O525   O     0.54509   0.29509   0.53958   0.00000  Uiso   1.00
O526   O     0.54509   0.29509   0.46042   0.00000  Uiso   1.00
O527   O     0.95492   0.20491   0.53958   0.00000  Uiso   1.00
O528   O     0.79509   0.45491   0.53958   0.00000  Uiso   1.00
Br529  Br   -0.00000   0.65303   0.38978   0.00000  Uiso   1.00
Br530  Br    0.10973   0.82220   0.60048   0.00000  Uiso   1.00
Br531  Br    0.10973   0.82220   0.39952   0.00000  Uiso   1.00
Br532  Br    0.39027   0.67780   0.60048   0.00000  Uiso   1.00
Br533  Br    0.10973   0.67780   0.60048   0.00000  Uiso   1.00
Br534  Br    0.39027   0.82220   0.39952   0.00000  Uiso   1.00
Br535  Br    0.39027   0.82220   0.60048   0.00000  Uiso   1.00
Br536  Br    0.10973   0.67780   0.39952   0.00000  Uiso   1.00
Br537  Br    0.14027   0.92780   0.39952   0.00000  Uiso   1.00
Br538  Br    0.35973   0.57220   0.60048   0.00000  Uiso   1.00
Br539  Br    0.35973   0.57220   0.39952   0.00000  Uiso   1.00
Br540  Br    0.00000   0.84697   0.61022   0.00000  Uiso   1.00
Br541  Br    0.14027   0.92780   0.60048   0.00000  Uiso   1.00
Br542  Br    0.35973   0.92780   0.60048   0.00000  Uiso   1.00
Br543  Br    0.14027   0.57220   0.39952   0.00000  Uiso   1.00
Br544  Br    0.14027   0.57220   0.60048   0.00000  Uiso   1.00
Br545  Br    0.35973   0.92780   0.39952   0.00000  Uiso   1.00
Br546  Br    0.00000   0.84697   0.38978   0.00000  Uiso   1.00
Br547  Br    0.00000   0.65303   0.61022   0.00000  Uiso   1.00
Br548  Br    0.25000   0.90303   0.38978   0.00000  Uiso   1.00
Br549  Br    0.25000   0.59697   0.61022   0.00000  Uiso   1.00
Br550  Br    0.25000   0.59697   0.38978   0.00000  Uiso   1.00
Br551  Br    0.25000   0.90303   0.61022   0.00000  Uiso   1.00
Br552  Br    0.39027   0.67780   0.39952   0.00000  Uiso   1.00
C553   C     0.06187   0.69337   0.50000   0.00000  Uiso   1.00
C554   C     0.00000   0.78971   0.64193   0.00000  Uiso   1.00
C555   C     0.00000   0.78971   0.35807   0.00000  Uiso   1.00
C556   C     0.00000   0.71029   0.64193   0.00000  Uiso   1.00
C557   C     0.25000   0.96029   0.35807   0.00000  Uiso   1.00
C558   C     0.25000   0.53971   0.64193   0.00000  Uiso   1.00
C559   C     0.25000   0.53971   0.35807   0.00000  Uiso   1.00
C560   C     0.25000   0.96029   0.64193   0.00000  Uiso   1.00
C561   C     0.38690   0.64465   0.45751   0.00000  Uiso   1.00
C562   C     0.11310   0.85535   0.54249   0.00000  Uiso   1.00
C563   C     0.11310   0.85536   0.45751   0.00000  Uiso   1.00
C564   C     0.43813   0.80663   0.50000   0.00000  Uiso   1.00
C565   C     0.38690   0.64465   0.54249   0.00000  Uiso   1.00
C566   C     0.11310   0.64465   0.54249   0.00000  Uiso   1.00
C567   C     0.38690   0.85535   0.45751   0.00000  Uiso   1.00
C568   C     0.38690   0.85535   0.54249   0.00000  Uiso   1.00
C569   C     0.11310   0.64465   0.45751   0.00000  Uiso   1.00
C570   C     0.13690   0.89465   0.45751   0.00000  Uiso   1.00
C571   C     0.36310   0.60535   0.54249   0.00000  Uiso   1.00
C572   C     0.36310   0.60536   0.45751   0.00000  Uiso   1.00
C573   C     0.13690   0.89465   0.54249   0.00000  Uiso   1.00
C574   C     0.36310   0.89465   0.54249   0.00000  Uiso   1.00
C575   C     0.43813   0.69337   0.50000   0.00000  Uiso   1.00
C576   C     0.13690   0.60535   0.45751   0.00000  Uiso   1.00
C577   C     0.13690   0.60535   0.54249   0.00000  Uiso   1.00
C578   C     0.36310   0.89465   0.45751   0.00000  Uiso   1.00
C579   C     0.09767   0.83799   0.50000   0.00000  Uiso   1.00
C580   C     0.40233   0.66201   0.50000   0.00000  Uiso   1.00
C581   C     0.40233   0.83799   0.50000   0.00000  Uiso   1.00
C582   C     0.09767   0.66201   0.50000   0.00000  Uiso   1.00
C583   C     0.34767   0.58799   0.50000   0.00000  Uiso   1.00
C584   C     0.15233   0.91201   0.50000   0.00000  Uiso   1.00
C585   C     0.15233   0.58799   0.50000   0.00000  Uiso   1.00
C586   C     0.06187   0.80663   0.50000   0.00000  Uiso   1.00
C587   C     0.34767   0.91201   0.50000   0.00000  Uiso   1.00
C588   C     0.31187   0.94337   0.50000   0.00000  Uiso   1.00
C589   C     0.18813   0.55663   0.50000   0.00000  Uiso   1.00
C590   C     0.18813   0.94337   0.50000   0.00000  Uiso   1.00
C591   C     0.31187   0.55663   0.50000   0.00000  Uiso   1.00
C592   C     0.00000   0.71029   0.35807   0.00000  Uiso   1.00
Cu593  Cu    0.00000   0.75000   0.54689   0.00000  Uiso   1.00
Cu594  Cu    0.00000   0.75000   0.45311   0.00000  Uiso   1.00
Cu595  Cu    0.25000   0.50000   0.54689   0.00000  Uiso   1.00
Cu596  Cu    0.25000   0.50000   0.45311   0.00000  Uiso   1.00
N597   N     0.00000   0.75000   0.61736   0.00000  Uiso   1.00
N598   N     0.00000   0.75000   0.38264   0.00000  Uiso   1.00
N599   N     0.25000   0.50000   0.61736   0.00000  Uiso   1.00
N600   N     0.25000   0.50000   0.38264   0.00000  Uiso   1.00
O601   O     0.04509   0.70491   0.53958   0.00000  Uiso   1.00
O602   O     0.20492   0.54509   0.46042   0.00000  Uiso   1.00
O603   O     0.20492   0.54509   0.53958   0.00000  Uiso   1.00
O604   O     0.29509   0.95491   0.46042   0.00000  Uiso   1.00
O605   O     0.20492   0.95491   0.46042   0.00000  Uiso   1.00
O606   O     0.29509   0.54509   0.53958   0.00000  Uiso   1.00
O607   O     0.29509   0.54509   0.46042   0.00000  Uiso   1.00
O608   O     0.20492   0.95491   0.53958   0.00000  Uiso   1.00
O609   O     0.45492   0.79509   0.46042   0.00000  Uiso   1.00
O610   O     0.45492   0.79509   0.53958   0.00000  Uiso   1.00
O611   O     0.04509   0.70491   0.46042   0.00000  Uiso   1.00
O612   O     0.45492   0.70491   0.46042   0.00000  Uiso   1.00
O613   O     0.04509   0.79509   0.53958   0.00000  Uiso   1.00
O614   O     0.04509   0.79509   0.46042   0.00000  Uiso   1.00
O615   O     0.45492   0.70491   0.53958   0.00000  Uiso   1.00
O616   O     0.29509   0.95491   0.53958   0.00000  Uiso   1.00
Br617  Br    0.50000   0.65303   0.38978   0.00000  Uiso   1.00
Br618  Br    0.60973   0.82220   0.60048   0.00000  Uiso   1.00
Br619  Br    0.60973   0.82220   0.39952   0.00000  Uiso   1.00
Br620  Br    0.89027   0.67780   0.60048   0.00000  Uiso   1.00
Br621  Br    0.60973   0.67780   0.60048   0.00000  Uiso   1.00
Br622  Br    0.89027   0.82220   0.39952   0.00000  Uiso   1.00
Br623  Br    0.89027   0.82220   0.60048   0.00000  Uiso   1.00
Br624  Br    0.60973   0.67780   0.39952   0.00000  Uiso   1.00
Br625  Br    0.64027   0.92780   0.39952   0.00000  Uiso   1.00
Br626  Br    0.85973   0.57220   0.60048   0.00000  Uiso   1.00
Br627  Br    0.85973   0.57220   0.39952   0.00000  Uiso   1.00
Br628  Br    0.50000   0.84697   0.61022   0.00000  Uiso   1.00
Br629  Br    0.64027   0.92780   0.60048   0.00000  Uiso   1.00
Br630  Br    0.85973   0.92780   0.60048   0.00000  Uiso   1.00
Br631  Br    0.64027   0.57220   0.39952   0.00000  Uiso   1.00
Br632  Br    0.64027   0.57220   0.60048   0.00000  Uiso   1.00
Br633  Br    0.85973   0.92780   0.39952   0.00000  Uiso   1.00
Br634  Br    0.50000   0.84697   0.38978   0.00000  Uiso   1.00
Br635  Br    0.50000   0.65303   0.61022   0.00000  Uiso   1.00
Br636  Br    0.75000   0.90303   0.38978   0.00000  Uiso   1.00
Br637  Br    0.75000   0.59697   0.61022   0.00000  Uiso   1.00
Br638  Br    0.75000   0.59697   0.38978   0.00000  Uiso   1.00
Br639  Br    0.75000   0.90303   0.61022   0.00000  Uiso   1.00
Br640  Br    0.89027   0.67780   0.39952   0.00000  Uiso   1.00
C641   C     0.56187   0.69337   0.50000   0.00000  Uiso   1.00
C642   C     0.50000   0.78971   0.64193   0.00000  Uiso   1.00
C643   C     0.50000   0.78971   0.35807   0.00000  Uiso   1.00
C644   C     0.50000   0.71029   0.64193   0.00000  Uiso   1.00
C645   C     0.75000   0.96029   0.35807   0.00000  Uiso   1.00
C646   C     0.75000   0.53971   0.64193   0.00000  Uiso   1.00
C647   C     0.75000   0.53971   0.35807   0.00000  Uiso   1.00
C648   C     0.75000   0.96029   0.64193   0.00000  Uiso   1.00
C649   C     0.88690   0.64465   0.45751   0.00000  Uiso   1.00
C650   C     0.61310   0.85535   0.54249   0.00000  Uiso   1.00
C651   C     0.61310   0.85536   0.45751   0.00000  Uiso   1.00
C652   C     0.93813   0.80663   0.50000   0.00000  Uiso   1.00
C653   C     0.88690   0.64465   0.54249   0.00000  Uiso   1.00
C654   C     0.61310   0.64465   0.54249   0.00000  Uiso   1.00
C655   C     0.88690   0.85535   0.45751   0.00000  Uiso   1.00
C656   C     0.88690   0.85535   0.54249   0.00000  Uiso   1.00
C657   C     0.61310   0.64465   0.45751   0.00000  Uiso   1.00
C658   C     0.63690   0.89465   0.45751   0.00000  Uiso   1.00
C659   C     0.86310   0.60535   0.54249   0.00000  Uiso   1.00
C660   C     0.86310   0.60536   0.45751   0.00000  Uiso   1.00
C661   C     0.63690   0.89465   0.54249   0.00000  Uiso   1.00
C662   C     0.86310   0.89465   0.54249   0.00000  Uiso   1.00
C663   C     0.93813   0.69337   0.50000   0.00000  Uiso   1.00
C664   C     0.63690   0.60535   0.45751   0.00000  Uiso   1.00
C665   C     0.63690   0.60535   0.54249   0.00000  Uiso   1.00
C666   C     0.86310   0.89465   0.45751   0.00000  Uiso   1.00
C667   C     0.59767   0.83799   0.50000   0.00000  Uiso   1.00
C668   C     0.90233   0.66201   0.50000   0.00000  Uiso   1.00
C669   C     0.90233   0.83799   0.50000   0.00000  Uiso   1.00
C670   C     0.59767   0.66201   0.50000   0.00000  Uiso   1.00
C671   C     0.84767   0.58799   0.50000   0.00000  Uiso   1.00
C672   C     0.65233   0.91201   0.50000   0.00000  Uiso   1.00
C673   C     0.65233   0.58799   0.50000   0.00000  Uiso   1.00
C674   C     0.56187   0.80663   0.50000   0.00000  Uiso   1.00
C675   C     0.84767   0.91201   0.50000   0.00000  Uiso   1.00
C676   C     0.81187   0.94337   0.50000   0.00000  Uiso   1.00
C677   C     0.68813   0.55663   0.50000   0.00000  Uiso   1.00
C678   C     0.68813   0.94337   0.50000   0.00000  Uiso   1.00
C679   C     0.81187   0.55663   0.50000   0.00000  Uiso   1.00
C680   C     0.50000   0.71029   0.35807   0.00000  Uiso   1.00
Cu681  Cu    0.50000   0.75000   0.54689   0.00000  Uiso   1.00
Cu682  Cu    0.50000   0.75000   0.45311   0.00000  Uiso   1.00
Cu683  Cu    0.75000   0.50000   0.54689   0.00000  Uiso   1.00
Cu684  Cu    0.75000   0.50000   0.45311   0.00000  Uiso   1.00
N685   N     0.50000   0.75000   0.61736   0.00000  Uiso   1.00
N686   N     0.50000   0.75000   0.38264   0.00000  Uiso   1.00
N687   N     0.75000   0.50000   0.61736   0.00000  Uiso   1.00
N688   N     0.75000   0.50000   0.38264   0.00000  Uiso   1.00
O689   O     0.54509   0.70491   0.53958   0.00000  Uiso   1.00
O690   O     0.70492   0.54509   0.46042   0.00000  Uiso   1.00
O691   O     0.70492   0.54509   0.53958   0.00000  Uiso   1.00
O692   O     0.79509   0.95491   0.46042   0.00000  Uiso   1.00
O693   O     0.70492   0.95491   0.46042   0.00000  Uiso   1.00
O694   O     0.79509   0.54509   0.53958   0.00000  Uiso   1.00
O695   O     0.79509   0.54509   0.46042   0.00000  Uiso   1.00
O696   O     0.70492   0.95491   0.53958   0.00000  Uiso   1.00
O697   O     0.95492   0.79509   0.46042   0.00000  Uiso   1.00
O698   O     0.95492   0.79509   0.53958   0.00000  Uiso   1.00
O699   O     0.54509   0.70491   0.46042   0.00000  Uiso   1.00
O700   O     0.95492   0.70491   0.46042   0.00000  Uiso   1.00
O701   O     0.54509   0.79509   0.53958   0.00000  Uiso   1.00
O702   O     0.54509   0.79509   0.46042   0.00000  Uiso   1.00
O703   O     0.95492   0.70491   0.53958   0.00000  Uiso   1.00
O704   O     0.79509   0.95491   0.53958   0.00000  Uiso   1.00
Br705  Br   -0.00000   0.15303   0.72311   0.00000  Uiso   1.00
Br706  Br    0.10973   0.32220   0.93381   0.00000  Uiso   1.00
Br707  Br    0.10973   0.32220   0.73286   0.00000  Uiso   1.00
Br708  Br    0.39027   0.17780   0.93381   0.00000  Uiso   1.00
Br709  Br    0.10973   0.17780   0.93381   0.00000  Uiso   1.00
Br710  Br    0.39027   0.32220   0.73286   0.00000  Uiso   1.00
Br711  Br    0.39027   0.32220   0.93381   0.00000  Uiso   1.00
Br712  Br    0.10973   0.17780   0.73286   0.00000  Uiso   1.00
Br713  Br    0.14027   0.42780   0.73286   0.00000  Uiso   1.00
Br714  Br    0.35973   0.07220   0.93381   0.00000  Uiso   1.00
Br715  Br    0.35973   0.07220   0.73286   0.00000  Uiso   1.00
Br716  Br    0.00000   0.34697   0.94355   0.00000  Uiso   1.00
Br717  Br    0.14027   0.42780   0.93381   0.00000  Uiso   1.00
Br718  Br    0.35973   0.42780   0.93381   0.00000  Uiso   1.00
Br719  Br    0.14027   0.07220   0.73286   0.00000  Uiso   1.00
Br720  Br    0.14027   0.07220   0.93381   0.00000  Uiso   1.00
Br721  Br    0.35973   0.42780   0.73286   0.00000  Uiso   1.00
Br722  Br    0.00000   0.34697   0.72311   0.00000  Uiso   1.00
Br723  Br    0.00000   0.15303   0.94355   0.00000  Uiso   1.00
Br724  Br    0.25000   0.40303   0.72311   0.00000  Uiso   1.00
Br725  Br    0.25000   0.09697   0.94355   0.00000  Uiso   1.00
Br726  Br    0.25000   0.09697   0.72311   0.00000  Uiso   1.00
Br727  Br    0.25000   0.40303   0.94355   0.00000  Uiso   1.00
Br728  Br    0.39027   0.17780   0.73286   0.00000  Uiso   1.00
C729   C     0.06187   0.19337   0.83333   0.00000  Uiso   1.00
C730   C     0.00000   0.28971   0.97527   0.00000  Uiso   1.00
C731   C     0.00000   0.28971   0.69140   0.00000  Uiso   1.00
C732   C     0.00000   0.21029   0.97527   0.00000  Uiso   1.00
C733   C     0.25000   0.46029   0.69140   0.00000  Uiso   1.00
C734   C     0.25000   0.03971   0.97527   0.00000  Uiso   1.00
C735   C     0.25000   0.03971   0.69140   0.00000  Uiso   1.00
C736   C     0.25000   0.46029   0.97527   0.00000  Uiso   1.00
C737   C     0.38690   0.14465   0.79084   0.00000  Uiso   1.00
C738   C     0.11310   0.35535   0.87582   0.00000  Uiso   1.00
C739   C     0.11310   0.35536   0.79084   0.00000  Uiso   1.00
C740   C     0.43813   0.30663   0.83333   0.00000  Uiso   1.00
C741   C     0.38690   0.14465   0.87582   0.00000  Uiso   1.00
C742   C     0.11310   0.14465   0.87582   0.00000  Uiso   1.00
C743   C     0.38690   0.35535   0.79084   0.00000  Uiso   1.00
C744   C     0.38690   0.35535   0.87582   0.00000  Uiso   1.00
C745   C     0.11310   0.14465   0.79084   0.00000  Uiso   1.00
C746   C     0.13690   0.39465   0.79084   0.00000  Uiso   1.00
C747   C     0.36310   0.10535   0.87582   0.00000  Uiso   1.00
C748   C     0.36310   0.10536   0.79084   0.00000  Uiso   1.00
C749   C     0.13690   0.39465   0.87582   0.00000  Uiso   1.00
C750   C     0.36310   0.39465   0.87582   0.00000  Uiso   1.00
C751   C     0.43813   0.19337   0.83333   0.00000  Uiso   1.00
C752   C     0.13690   0.10535   0.79084   0.00000  Uiso   1.00
C753   C     0.13690   0.10535   0.87582   0.00000  Uiso   1.00
C754   C     0.36310   0.39465   0.79084   0.00000  Uiso   1.00
C755   C     0.09767   0.33799   0.83333   0.00000  Uiso   1.00
C756   C     0.40233   0.16201   0.83333   0.00000  Uiso   1.00
C757   C     0.40233   0.33799   0.83333   0.00000  Uiso   1.00
C758   C     0.09767   0.16201   0.83333   0.00000  Uiso   1.00
C759   C     0.34767   0.08799   0.83333   0.00000  Uiso   1.00
C760   C     0.15233   0.41201   0.83333   0.00000  Uiso   1.00
C761   C     0.15233   0.08799   0.83333   0.00000  Uiso   1.00
C762   C     0.06187   0.30663   0.83333   0.00000  Uiso   1.00
C763   C     0.34767   0.41201   0.83333   0.00000  Uiso   1.00
C764   C     0.31187   0.44337   0.83333   0.00000  Uiso   1.00
C765   C     0.18813   0.05663   0.83333   0.00000  Uiso   1.00
C766   C     0.18813   0.44337   0.83333   0.00000  Uiso   1.00
C767   C     0.31187   0.05663   0.83333   0.00000  Uiso   1.00
C768   C     0.00000   0.21029   0.69140   0.00000  Uiso   1.00
Cu769  Cu    0.00000   0.25000   0.88022   0.00000  Uiso   1.00
Cu770  Cu    0.00000   0.25000   0.78645   0.00000  Uiso   1.00
Cu771  Cu    0.25000   0.00000   0.88022   0.00000  Uiso   1.00
Cu772  Cu    0.25000   0.00000   0.78645   0.00000  Uiso   1.00
N773   N     0.00000   0.25000   0.95069   0.00000  Uiso   1.00
N774   N     0.00000   0.25000   0.71598   0.00000  Uiso   1.00
N775   N     0.25000   0.00000   0.95069   0.00000  Uiso   1.00
N776   N     0.25000   0.00000   0.71598   0.00000  Uiso   1.00
O777   O     0.04509   0.20491   0.87291   0.00000  Uiso   1.00
O778   O     0.20492   0.04509   0.79375   0.00000  Uiso   1.00
O779   O     0.20492   0.04509   0.87291   0.00000  Uiso   1.00
O780   O     0.29509   0.45491   0.79375   0.00000  Uiso   1.00
O781   O     0.20492   0.45491   0.79375   0.00000  Uiso   1.00
O782   O     0.29509   0.04509   0.87291   0.00000  Uiso   1.00
O783   O     0.29509   0.04509   0.79375   0.00000  Uiso   1.00
O784   O     0.20492   0.45491   0.87291   0.00000  Uiso   1.00
O785   O     0.45492   0.29509   0.79375   0.00000  Uiso   1.00
O786   O     0.45492   0.29509   0.87291   0.00000  Uiso   1.00
O787   O     0.04509   0.20491   0.79375   0.00000  Uiso   1.00
O788   O     0.45492   0.20491   0.79375   0.00000  Uiso   1.00
O789   O     0.04509   0.29509   0.87291   0.00000  Uiso   1.00
O790   O     0.04509   0.29509   0.79375   0.00000  Uiso   1.00
O791   O     0.45492   0.20491   0.87291   0.00000  Uiso   1.00
O792   O     0.29509   0.45491   0.87291   0.00000  Uiso   1.00
Br793  Br    0.50000   0.15303   0.72311   0.00000  Uiso   1.00
Br794  Br    0.60973   0.32220   0.93381   0.00000  Uiso   1.00
Br795  Br    0.60973   0.32220   0.73286   0.00000  Uiso   1.00
Br796  Br    0.89027   0.17780   0.93381   0.00000  Uiso   1.00
Br797  Br    0.60973   0.17780   0.93381   0.00000  Uiso   1.00
Br798  Br    0.89027   0.32220   0.73286   0.00000  Uiso   1.00
Br799  Br    0.89027   0.32220   0.93381   0.00000  Uiso   1.00
Br800  Br    0.60973   0.17780   0.73286   0.00000  Uiso   1.00
Br801  Br    0.64027   0.42780   0.73286   0.00000  Uiso   1.00
Br802  Br    0.85973   0.07220   0.93381   0.00000  Uiso   1.00
Br803  Br    0.85973   0.07220   0.73286   0.00000  Uiso   1.00
Br804  Br    0.50000   0.34697   0.94355   0.00000  Uiso   1.00
Br805  Br    0.64027   0.42780   0.93381   0.00000  Uiso   1.00
Br806  Br    0.85973   0.42780   0.93381   0.00000  Uiso   1.00
Br807  Br    0.64027   0.07220   0.73286   0.00000  Uiso   1.00
Br808  Br    0.64027   0.07220   0.93381   0.00000  Uiso   1.00
Br809  Br    0.85973   0.42780   0.73286   0.00000  Uiso   1.00
Br810  Br    0.50000   0.34697   0.72311   0.00000  Uiso   1.00
Br811  Br    0.50000   0.15303   0.94355   0.00000  Uiso   1.00
Br812  Br    0.75000   0.40303   0.72311   0.00000  Uiso   1.00
Br813  Br    0.75000   0.09697   0.94355   0.00000  Uiso   1.00
Br814  Br    0.75000   0.09697   0.72311   0.00000  Uiso   1.00
Br815  Br    0.75000   0.40303   0.94355   0.00000  Uiso   1.00
Br816  Br    0.89027   0.17780   0.73286   0.00000  Uiso   1.00
C817   C     0.56187   0.19337   0.83333   0.00000  Uiso   1.00
C818   C     0.50000   0.28971   0.97527   0.00000  Uiso   1.00
C819   C     0.50000   0.28971   0.69140   0.00000  Uiso   1.00
C820   C     0.50000   0.21029   0.97527   0.00000  Uiso   1.00
C821   C     0.75000   0.46029   0.69140   0.00000  Uiso   1.00
C822   C     0.75000   0.03971   0.97527   0.00000  Uiso   1.00
C823   C     0.75000   0.03971   0.69140   0.00000  Uiso   1.00
C824   C     0.75000   0.46029   0.97527   0.00000  Uiso   1.00
C825   C     0.88690   0.14465   0.79084   0.00000  Uiso   1.00
C826   C     0.61310   0.35535   0.87582   0.00000  Uiso   1.00
C827   C     0.61310   0.35536   0.79084   0.00000  Uiso   1.00
C828   C     0.93813   0.30663   0.83333   0.00000  Uiso   1.00
C829   C     0.88690   0.14465   0.87582   0.00000  Uiso   1.00
C830   C     0.61310   0.14465   0.87582   0.00000  Uiso   1.00
C831   C     0.88690   0.35535   0.79084   0.00000  Uiso   1.00
C832   C     0.88690   0.35535   0.87582   0.00000  Uiso   1.00
C833   C     0.61310   0.14465   0.79084   0.00000  Uiso   1.00
C834   C     0.63690   0.39465   0.79084   0.00000  Uiso   1.00
C835   C     0.86310   0.10535   0.87582   0.00000  Uiso   1.00
C836   C     0.86310   0.10536   0.79084   0.00000  Uiso   1.00
C837   C     0.63690   0.39465   0.87582   0.00000  Uiso   1.00
C838   C     0.86310   0.39465   0.87582   0.00000  Uiso   1.00
C839   C     0.93813   0.19337   0.83333   0.00000  Uiso   1.00
C840   C     0.63690   0.10535   0.79084   0.00000  Uiso   1.00
C841   C     0.63690   0.10535   0.87582   0.00000  Uiso   1.00
C842   C     0.86310   0.39465   0.79084   0.00000  Uiso   1.00
C843   C     0.59767   0.33799   0.83333   0.00000  Uiso   1.00
C844   C     0.90233   0.16201   0.83333   0.00000  Uiso   1.00
C845   C     0.90233   0.33799   0.83333   0.00000  Uiso   1.00
C846   C     0.59767   0.16201   0.83333   0.00000  Uiso   1.00
C847   C     0.84767   0.08799   0.83333   0.00000  Uiso   1.00
C848   C     0.65233   0.41201   0.83333   0.00000  Uiso   1.00
C849   C     0.65233   0.08799   0.83333   0.00000  Uiso   1.00
C850   C     0.56187   0.30663   0.83333   0.00000  Uiso   1.00
C851   C     0.84767   0.41201   0.83333   0.00000  Uiso   1.00
C852   C     0.81187   0.44337   0.83333   0.00000  Uiso   1.00
C853   C     0.68813   0.05663   0.83333   0.00000  Uiso   1.00
C854   C     0.68813   0.44337   0.83333   0.00000  Uiso   1.00
C855   C     0.81187   0.05663   0.83333   0.00000  Uiso   1.00
C856   C     0.50000   0.21029   0.69140   0.00000  Uiso   1.00
Cu857  Cu    0.50000   0.25000   0.88022   0.00000  Uiso   1.00
Cu858  Cu    0.50000   0.25000   0.78645   0.00000  Uiso   1.00
Cu859  Cu    0.75000   0.00000   0.88022   0.00000  Uiso   1.00
Cu860  Cu    0.75000   0.00000   0.78645   0.00000  Uiso   1.00
N861   N     0.50000   0.25000   0.95069   0.00000  Uiso   1.00
N862   N     0.50000   0.25000   0.71598   0.00000  Uiso   1.00
N863   N     0.75000   0.00000   0.95069   0.00000  Uiso   1.00
N864   N     0.75000   0.00000   0.71598   0.00000  Uiso   1.00
O865   O     0.54509   0.20491   0.87291   0.00000  Uiso   1.00
O866   O     0.70492   0.04509   0.79375   0.00000  Uiso   1.00
O867   O     0.70492   0.04509   0.87291   0.00000  Uiso   1.00
O868   O     0.79509   0.45491   0.79375   0.00000  Uiso   1.00
O869   O     0.70492   0.45491   0.79375   0.00000  Uiso   1.00
O870   O     0.79509   0.04509   0.87291   0.00000  Uiso   1.00
O871   O     0.79509   0.04509   0.79375   0.00000  Uiso   1.00
O872   O     0.70492   0.45491   0.87291   0.00000  Uiso   1.00
O873   O     0.95492   0.29509   0.79375   0.00000  Uiso   1.00
O874   O     0.95492   0.29509   0.87291   0.00000  Uiso   1.00
O875   O     0.54509   0.20491   0.79375   0.00000  Uiso   1.00
O876   O     0.95492   0.20491   0.79375   0.00000  Uiso   1.00
O877   O     0.54509   0.29509   0.87291   0.00000  Uiso   1.00
O878   O     0.54509   0.29509   0.79375   0.00000  Uiso   1.00
O879   O     0.95492   0.20491   0.87291   0.00000  Uiso   1.00
O880   O     0.79509   0.45491   0.87291   0.00000  Uiso   1.00
Br881  Br   -0.00000   0.65303   0.72311   0.00000  Uiso   1.00
Br882  Br    0.10973   0.82220   0.93381   0.00000  Uiso   1.00
Br883  Br    0.10973   0.82220   0.73286   0.00000  Uiso   1.00
Br884  Br    0.39027   0.67780   0.93381   0.00000  Uiso   1.00
Br885  Br    0.10973   0.67780   0.93381   0.00000  Uiso   1.00
Br886  Br    0.39027   0.82220   0.73286   0.00000  Uiso   1.00
Br887  Br    0.39027   0.82220   0.93381   0.00000  Uiso   1.00
Br888  Br    0.10973   0.67780   0.73286   0.00000  Uiso   1.00
Br889  Br    0.14027   0.92780   0.73286   0.00000  Uiso   1.00
Br890  Br    0.35973   0.57220   0.93381   0.00000  Uiso   1.00
Br891  Br    0.35973   0.57220   0.73286   0.00000  Uiso   1.00
Br892  Br    0.00000   0.84697   0.94355   0.00000  Uiso   1.00
Br893  Br    0.14027   0.92780   0.93381   0.00000  Uiso   1.00
Br894  Br    0.35973   0.92780   0.93381   0.00000  Uiso   1.00
Br895  Br    0.14027   0.57220   0.73286   0.00000  Uiso   1.00
Br896  Br    0.14027   0.57220   0.93381   0.00000  Uiso   1.00
Br897  Br    0.35973   0.92780   0.73286   0.00000  Uiso   1.00
Br898  Br    0.00000   0.84697   0.72311   0.00000  Uiso   1.00
Br899  Br    0.00000   0.65303   0.94355   0.00000  Uiso   1.00
Br900  Br    0.25000   0.90303   0.72311   0.00000  Uiso   1.00
Br901  Br    0.25000   0.59697   0.94355   0.00000  Uiso   1.00
Br902  Br    0.25000   0.59697   0.72311   0.00000  Uiso   1.00
Br903  Br    0.25000   0.90303   0.94355   0.00000  Uiso   1.00
Br904  Br    0.39027   0.67780   0.73286   0.00000  Uiso   1.00
C905   C     0.06187   0.69337   0.83333   0.00000  Uiso   1.00
C906   C     0.00000   0.78971   0.97527   0.00000  Uiso   1.00
C907   C     0.00000   0.78971   0.69140   0.00000  Uiso   1.00
C908   C     0.00000   0.71029   0.97527   0.00000  Uiso   1.00
C909   C     0.25000   0.96029   0.69140   0.00000  Uiso   1.00
C910   C     0.25000   0.53971   0.97527   0.00000  Uiso   1.00
C911   C     0.25000   0.53971   0.69140   0.00000  Uiso   1.00
C912   C     0.25000   0.96029   0.97527   0.00000  Uiso   1.00
C913   C     0.38690   0.64465   0.79084   0.00000  Uiso   1.00
C914   C     0.11310   0.85535   0.87582   0.00000  Uiso   1.00
C915   C     0.11310   0.85536   0.79084   0.00000  Uiso   1.00
C916   C     0.43813   0.80663   0.83333   0.00000  Uiso   1.00
C917   C     0.38690   0.64465   0.87582   0.00000  Uiso   1.00
C918   C     0.11310   0.64465   0.87582   0.00000  Uiso   1.00
C919   C     0.38690   0.85535   0.79084   0.00000  Uiso   1.00
C920   C     0.38690   0.85535   0.87582   0.00000  Uiso   1.00
C921   C     0.11310   0.64465   0.79084   0.00000  Uiso   1.00
C922   C     0.13690   0.89465   0.79084   0.00000  Uiso   1.00
C923   C     0.36310   0.60535   0.87582   0.00000  Uiso   1.00
C924   C     0.36310   0.60536   0.79084   0.00000  Uiso   1.00
C925   C     0.13690   0.89465   0.87582   0.00000  Uiso   1.00
C926   C     0.36310   0.89465   0.87582   0.00000  Uiso   1.00
C927   C     0.43813   0.69337   0.83333   0.00000  Uiso   1.00
C928   C     0.13690   0.60535   0.79084   0.00000  Uiso   1.00
C929   C     0.13690   0.60535   0.87582   0.00000  Uiso   1.00
C930   C     0.36310   0.89465   0.79084   0.00000  Uiso   1.00
C931   C     0.09767   0.83799   0.83333   0.00000  Uiso   1.00
C932   C     0.40233   0.66201   0.83333   0.00000  Uiso   1.00
C933   C     0.40233   0.83799   0.83333   0.00000  Uiso   1.00
C934   C     0.09767   0.66201   0.83333   0.00000  Uiso   1.00
C935   C     0.34767   0.58799   0.83333   0.00000  Uiso   1.00
C936   C     0.15233   0.91201   0.83333   0.00000  Uiso   1.00
C937   C     0.15233   0.58799   0.83333   0.00000  Uiso   1.00
C938   C     0.06187   0.80663   0.83333   0.00000  Uiso   1.00
C939   C     0.34767   0.91201   0.83333   0.00000  Uiso   1.00
C940   C     0.31187   0.94337   0.83333   0.00000  Uiso   1.00
C941   C     0.18813   0.55663   0.83333   0.00000  Uiso   1.00
C942   C     0.18813   0.94337   0.83333   0.00000  Uiso   1.00
C943   C     0.31187   0.55663   0.83333   0.00000  Uiso   1.00
C944   C     0.00000   0.71029   0.69140   0.00000  Uiso   1.00
Cu945  Cu    0.00000   0.75000   0.88022   0.00000  Uiso   1.00
Cu946  Cu    0.00000   0.75000   0.78645   0.00000  Uiso   1.00
Cu947  Cu    0.25000   0.50000   0.88022   0.00000  Uiso   1.00
Cu948  Cu    0.25000   0.50000   0.78645   0.00000  Uiso   1.00
N949   N     0.00000   0.75000   0.95069   0.00000  Uiso   1.00
N950   N     0.00000   0.75000   0.71598   0.00000  Uiso   1.00
N951   N     0.25000   0.50000   0.95069   0.00000  Uiso   1.00
N952   N     0.25000   0.50000   0.71598   0.00000  Uiso   1.00
O953   O     0.04509   0.70491   0.87291   0.00000  Uiso   1.00
O954   O     0.20492   0.54509   0.79375   0.00000  Uiso   1.00
O955   O     0.20492   0.54509   0.87291   0.00000  Uiso   1.00
O956   O     0.29509   0.95491   0.79375   0.00000  Uiso   1.00
O957   O     0.20492   0.95491   0.79375   0.00000  Uiso   1.00
O958   O     0.29509   0.54509   0.87291   0.00000  Uiso   1.00
O959   O     0.29509   0.54509   0.79375   0.00000  Uiso   1.00
O960   O     0.20492   0.95491   0.87291   0.00000  Uiso   1.00
O961   O     0.45492   0.79509   0.79375   0.00000  Uiso   1.00
O962   O     0.45492   0.79509   0.87291   0.00000  Uiso   1.00
O963   O     0.04509   0.70491   0.79375   0.00000  Uiso   1.00
O964   O     0.45492   0.70491   0.79375   0.00000  Uiso   1.00
O965   O     0.04509   0.79509   0.87291   0.00000  Uiso   1.00
O966   O     0.04509   0.79509   0.79375   0.00000  Uiso   1.00
O967   O     0.45492   0.70491   0.87291   0.00000  Uiso   1.00
O968   O     0.29509   0.95491   0.87291   0.00000  Uiso   1.00
Br969  Br    0.50000   0.65303   0.72311   0.00000  Uiso   1.00
Br970  Br    0.60973   0.82220   0.93381   0.00000  Uiso   1.00
Br971  Br    0.60973   0.82220   0.73286   0.00000  Uiso   1.00
Br972  Br    0.89027   0.67780   0.93381   0.00000  Uiso   1.00
Br973  Br    0.60973   0.67780   0.93381   0.00000  Uiso   1.00
Br974  Br    0.89027   0.82220   0.73286   0.00000  Uiso   1.00
Br975  Br    0.89027   0.82220   0.93381   0.00000  Uiso   1.00
Br976  Br    0.60973   0.67780   0.73286   0.00000  Uiso   1.00
Br977  Br    0.64027   0.92780   0.73286   0.00000  Uiso   1.00
Br978  Br    0.85973   0.57220   0.93381   0.00000  Uiso   1.00
Br979  Br    0.85973   0.57220   0.73286   0.00000  Uiso   1.00
Br980  Br    0.50000   0.84697   0.94355   0.00000  Uiso   1.00
Br981  Br    0.64027   0.92780   0.93381   0.00000  Uiso   1.00
Br982  Br    0.85973   0.92780   0.93381   0.00000  Uiso   1.00
Br983  Br    0.64027   0.57220   0.73286   0.00000  Uiso   1.00
Br984  Br    0.64027   0.57220   0.93381   0.00000  Uiso   1.00
Br985  Br    0.85973   0.92780   0.73286   0.00000  Uiso   1.00
Br986  Br    0.50000   0.84697   0.72311   0.00000  Uiso   1.00
Br987  Br    0.50000   0.65303   0.94355   0.00000  Uiso   1.00
Br988  Br    0.75000   0.90303   0.72311   0.00000  Uiso   1.00
Br989  Br    0.75000   0.59697   0.94355   0.00000  Uiso   1.00
Br990  Br    0.75000   0.59697   0.72311   0.00000  Uiso   1.00
Br991  Br    0.75000   0.90303   0.94355   0.00000  Uiso   1.00
Br992  Br    0.89027   0.67780   0.73286   0.00000  Uiso   1.00
C993   C     0.56187   0.69337   0.83333   0.00000  Uiso   1.00
C994   C     0.50000   0.78971   0.97527   0.00000  Uiso   1.00
C995   C     0.50000   0.78971   0.69140   0.00000  Uiso   1.00
C996   C     0.50000   0.71029   0.97527   0.00000  Uiso   1.00
C997   C     0.75000   0.96029   0.69140   0.00000  Uiso   1.00
C998   C     0.75000   0.53971   0.97527   0.00000  Uiso   1.00
C999   C     0.75000   0.53971   0.69140   0.00000  Uiso   1.00
C1000  C     0.75000   0.96029   0.97527   0.00000  Uiso   1.00
C1001  C     0.88690   0.64465   0.79084   0.00000  Uiso   1.00
C1002  C     0.61310   0.85535   0.87582   0.00000  Uiso   1.00
C1003  C     0.61310   0.85536   0.79084   0.00000  Uiso   1.00
C1004  C     0.93813   0.80663   0.83333   0.00000  Uiso   1.00
C1005  C     0.88690   0.64465   0.87582   0.00000  Uiso   1.00
C1006  C     0.61310   0.64465   0.87582   0.00000  Uiso   1.00
C1007  C     0.88690   0.85535   0.79084   0.00000  Uiso   1.00
C1008  C     0.88690   0.85535   0.87582   0.00000  Uiso   1.00
C1009  C     0.61310   0.64465   0.79084   0.00000  Uiso   1.00
C1010  C     0.63690   0.89465   0.79084   0.00000  Uiso   1.00
C1011  C     0.86310   0.60535   0.87582   0.00000  Uiso   1.00
C1012  C     0.86310   0.60536   0.79084   0.00000  Uiso   1.00
C1013  C     0.63690   0.89465   0.87582   0.00000  Uiso   1.00
C1014  C     0.86310   0.89465   0.87582   0.00000  Uiso   1.00
C1015  C     0.93813   0.69337   0.83333   0.00000  Uiso   1.00
C1016  C     0.63690   0.60535   0.79084   0.00000  Uiso   1.00
C1017  C     0.63690   0.60535   0.87582   0.00000  Uiso   1.00
C1018  C     0.86310   0.89465   0.79084   0.00000  Uiso   1.00
C1019  C     0.59767   0.83799   0.83333   0.00000  Uiso   1.00
C1020  C     0.90233   0.66201   0.83333   0.00000  Uiso   1.00
C1021  C     0.90233   0.83799   0.83333   0.00000  Uiso   1.00
C1022  C     0.59767   0.66201   0.83333   0.00000  Uiso   1.00
C1023  C     0.84767   0.58799   0.83333   0.00000  Uiso   1.00
C1024  C     0.65233   0.91201   0.83333   0.00000  Uiso   1.00
C1025  C     0.65233   0.58799   0.83333   0.00000  Uiso   1.00
C1026  C     0.56187   0.80663   0.83333   0.00000  Uiso   1.00
C1027  C     0.84767   0.91201   0.83333   0.00000  Uiso   1.00
C1028  C     0.81187   0.94337   0.83333   0.00000  Uiso   1.00
C1029  C     0.68813   0.55663   0.83333   0.00000  Uiso   1.00
C1030  C     0.68813   0.94337   0.83333   0.00000  Uiso   1.00
C1031  C     0.81187   0.55663   0.83333   0.00000  Uiso   1.00
C1032  C     0.50000   0.71029   0.69140   0.00000  Uiso   1.00
Cu1033 Cu    0.50000   0.75000   0.88022   0.00000  Uiso   1.00
Cu1034 Cu    0.50000   0.75000   0.78645   0.00000  Uiso   1.00
Cu1035 Cu    0.75000   0.50000   0.88022   0.00000  Uiso   1.00
Cu1036 Cu    0.75000   0.50000   0.78645   0.00000  Uiso   1.00
N1037  N     0.50000   0.75000   0.95069   0.00000  Uiso   1.00
N1038  N     0.50000   0.75000   0.71598   0.00000  Uiso   1.00
N1039  N     0.75000   0.50000   0.95069   0.00000  Uiso   1.00
N1040  N     0.75000   0.50000   0.71598   0.00000  Uiso   1.00
O1041  O     0.54509   0.70491   0.87291   0.00000  Uiso   1.00
O1042  O     0.70492   0.54509   0.79375   0.00000  Uiso   1.00
O1043  O     0.70492   0.54509   0.87291   0.00000  Uiso   1.00
O1044  O     0.79509   0.95491   0.79375   0.00000  Uiso   1.00
O1045  O     0.70492   0.95491   0.79375   0.00000  Uiso   1.00
O1046  O     0.79509   0.54509   0.87291   0.00000  Uiso   1.00
O1047  O     0.79509   0.54509   0.79375   0.00000  Uiso   1.00
O1048  O     0.70492   0.95491   0.87291   0.00000  Uiso   1.00
O1049  O     0.95492   0.79509   0.79375   0.00000  Uiso   1.00
O1050  O     0.95492   0.79509   0.87291   0.00000  Uiso   1.00
O1051  O     0.54509   0.70491   0.79375   0.00000  Uiso   1.00
O1052  O     0.95492   0.70491   0.79375   0.00000  Uiso   1.00
O1053  O     0.54509   0.79509   0.87291   0.00000  Uiso   1.00
O1054  O     0.54509   0.79509   0.79375   0.00000  Uiso   1.00
O1055  O     0.95492   0.70491   0.87291   0.00000  Uiso   1.00
O1056  O     0.79509   0.95491   0.87291   0.00000  Uiso   1.00
loop_
_geom_bond_atom_site_label_1
_geom_bond_atom_site_label_2
_geom_bond_distance
_geom_bond_site_symmetry_2
_ccdc_geom_bond_type
Br1    C64     1.930   .     S
Br2    C34     1.937   .     S
Br3    C35     1.937   .     S
Br4    C37     1.937   .     S
Br5    C38     1.937   .     S
Br6    C39     1.937   .     S
Br7    C40     1.937   .     S
Br8    C41     1.937   .     S
Br9    C42     1.937   .     S
Br10   C43     1.937   .     S
Br11   C44     1.937   .     S
Br12   C26     1.930   .     S
Br13   C45     1.937   .     S
Br14   C46     1.937   .     S
Br15   C48     1.937   .     S
Br16   C49     1.937   .     S
Br17   C50     1.937   .     S
Br18   C27     1.930   .     S
Br19   C28     1.930   .     S
Br20   C29     1.930   .     S
Br21   C30     1.930   .     S
Br22   C31     1.930   .     S
Br23   C32     1.930   .     S
Br24   C33     1.937   .     S
C25    O73     1.301   .     A
C25    C54     1.471   .     S
C25    O83     1.301   .     A
C26    C379    1.420   .     S
C26    N69     1.375   .     S
C27    N70     1.375   .     A
C27    C730    1.420   1_554 S
C28    N69     1.375   .     A
C28    C416    1.420   .     S
C29    C736    1.420   1_554 S
C29    N248    1.375   .     S
C30    C383    1.420   .     S
C30    N71     1.375   .     S
C31    N72     1.375   .     A
C31    C734    1.420   1_554 S
C32    N247    1.375   .     A
C32    C381    1.420   .     S
C33    C52     1.412   .     A
C33    C44     1.392   .     A
C34    C45     1.392   .     A
C34    C51     1.412   .     A
C35    C42     1.392   .     A
C35    C51     1.412   .     A
C36    C53     1.471   .     S
C36    O82     1.301   .     A
C36    O81     1.301   .     A
C37    C52     1.412   .     A
C37    C43     1.392   .     A
C38    C49     1.392   .     A
C38    C54     1.412   .     A
C39    C53     1.412   .     A
C39    C50     1.392   .     A
C40    C46     1.392   .     A
C40    C53     1.412   .     A
C41    C48     1.392   .     A
C41    C54     1.412   .     A
C42    C56     1.412   .     A
C43    C55     1.412   .     A
C44    C55     1.412   .     A
C45    C56     1.412   .     A
C46    C59     1.412   .     A
C47    O87     1.301   .     A
C47    O84     1.301   .     A
C47    C52     1.471   .     S
C48    C57     1.412   .     A
C49    C57     1.412   .     A
C50    C59     1.412   .     A
C51    C58     1.471   .     S
C55    C63     1.471   .     S
C56    C62     1.471   .     S
C57    C61     1.471   .     S
C58    O85     1.301   .     A
C58    O86     1.301   .     A
C59    C60     1.471   .     S
C60    O88     1.301   .     A
C60    O76     1.301   .     A
C61    O75     1.301   .     A
C61    O74     1.301   .     A
C62    O77     1.301   .     A
C62    O80     1.301   .     A
C63    O79     1.301   .     A
C63    O78     1.301   .     A
C64    N70     1.375   .     A
C64    C732    1.420   1_554 S
Cu65   O73     1.974   .     S
Cu65   O85     1.974   .     S
Cu65   Cu66    2.692   .     S
Cu65   N69     2.023   .     S
Cu65   O170    1.974   1_455 S
Cu65   O175    1.974   1_455 S
Cu66   O169    1.974   1_455 S
Cu66   N70     2.023   .     S
Cu66   O172    1.974   1_455 S
Cu66   O83     1.974   .     S
Cu66   O86     1.974   .     S
Cu67   O78     1.974   .     S
Cu67   O75     1.974   .     S
Cu67   Cu68    2.692   .     S
Cu67   N71     2.023   .     S
Cu67   O256    1.974   1_545 S
Cu67   O264    1.974   1_545 S
Cu68   O253    1.974   1_545 S
Cu68   O252    1.974   1_545 S
Cu68   N72     2.023   .     S
Cu68   O74     1.974   .     S
Cu68   O79     1.974   .     S
N71    C208    1.375   1_545 A
N72    C205    1.375   1_545 S
O76    Cu244   1.974   .     S
O77    Cu244   1.974   .     S
O80    Cu243   1.974   .     S
O81    Cu154   1.974   .     S
O82    Cu153   1.974   .     S
O84    Cu154   1.974   .     S
O87    Cu153   1.974   .     S
O88    Cu243   1.974   .     S
Br89   C152    1.930   .     S
Br90   C122    1.937   .     S
Br91   C123    1.937   .     S
Br92   C125    1.937   .     S
Br93   C126    1.937   .     S
Br94   C127    1.937   .     S
Br95   C128    1.937   .     S
Br96   C129    1.937   .     S
Br97   C130    1.937   .     S
Br98   C131    1.937   .     S
Br99   C132    1.937   .     S
Br100  C114    1.930   .     S
Br101  C133    1.937   .     S
Br102  C134    1.937   .     S
Br103  C136    1.937   .     S
Br104  C137    1.937   .     S
Br105  C138    1.937   .     S
Br106  C115    1.930   .     S
Br107  C116    1.930   .     S
Br108  C117    1.930   .     S
Br109  C118    1.930   .     S
Br110  C119    1.930   .     S
Br111  C120    1.930   .     S
Br112  C121    1.937   .     S
C113   O161    1.301   .     A
C113   C142    1.471   .     S
C113   O171    1.301   .     A
C114   C467    1.420   .     S
C114   N157    1.375   .     S
C115   N158    1.375   .     A
C115   C818    1.420   1_554 S
C116   N157    1.375   .     A
C116   C504    1.420   .     S
C117   C824    1.420   1_554 S
C117   N336    1.375   .     S
C118   C471    1.420   .     S
C118   N159    1.375   .     S
C119   N160    1.375   .     A
C119   C822    1.420   1_554 S
C120   N335    1.375   .     A
C120   C469    1.420   .     S
C121   C140    1.412   .     A
C121   C132    1.392   .     A
C122   C133    1.392   .     A
C122   C139    1.412   .     A
C123   C130    1.392   .     A
C123   C139    1.412   .     A
C124   C141    1.471   .     S
C124   O170    1.301   .     A
C124   O169    1.301   .     A
C125   C140    1.412   .     A
C125   C131    1.392   .     A
C126   C137    1.392   .     A
C126   C142    1.412   .     A
C127   C141    1.412   .     A
C127   C138    1.392   .     A
C128   C134    1.392   .     A
C128   C141    1.412   .     A
C129   C136    1.392   .     A
C129   C142    1.412   .     A
C130   C144    1.412   .     A
C131   C143    1.412   .     A
C132   C143    1.412   .     A
C133   C144    1.412   .     A
C134   C147    1.412   .     A
C135   O175    1.301   .     A
C135   O172    1.301   .     A
C135   C140    1.471   .     S
C136   C145    1.412   .     A
C137   C145    1.412   .     A
C138   C147    1.412   .     A
C139   C146    1.471   .     S
C143   C151    1.471   .     S
C144   C150    1.471   .     S
C145   C149    1.471   .     S
C146   O173    1.301   .     A
C146   O174    1.301   .     A
C147   C148    1.471   .     S
C148   O176    1.301   .     A
C148   O164    1.301   .     A
C149   O163    1.301   .     A
C149   O162    1.301   .     A
C150   O165    1.301   .     A
C150   O168    1.301   .     A
C151   O167    1.301   .     A
C151   O166    1.301   .     A
C152   N158    1.375   .     A
C152   C820    1.420   1_554 S
Cu153  O161    1.974   .     S
Cu153  O173    1.974   .     S
Cu153  Cu154   2.692   .     S
Cu153  N157    2.023   .     S
Cu154  N158    2.023   .     S
Cu154  O171    1.974   .     S
Cu154  O174    1.974   .     S
Cu155  O166    1.974   .     S
Cu155  O163    1.974   .     S
Cu155  Cu156   2.692   .     S
Cu155  N159    2.023   .     S
Cu155  O344    1.974   1_545 S
Cu155  O352    1.974   1_545 S
Cu156  O341    1.974   1_545 S
Cu156  O340    1.974   1_545 S
Cu156  N160    2.023   .     S
Cu156  O162    1.974   .     S
Cu156  O167    1.974   .     S
N159   C296    1.375   1_545 A
N160   C293    1.375   1_545 S
O164   Cu332   1.974   .     S
O165   Cu332   1.974   .     S
O168   Cu331   1.974   .     S
O169   Cu66    1.974   1_655 S
O170   Cu65    1.974   1_655 S
O172   Cu66    1.974   1_655 S
O175   Cu65    1.974   1_655 S
O176   Cu331   1.974   .     S
Br177  C240    1.930   .     S
Br178  C210    1.937   .     S
Br179  C211    1.937   .     S
Br180  C213    1.937   .     S
Br181  C214    1.937   .     S
Br182  C215    1.937   .     S
Br183  C216    1.937   .     S
Br184  C217    1.937   .     S
Br185  C218    1.937   .     S
Br186  C219    1.937   .     S
Br187  C220    1.937   .     S
Br188  C202    1.930   .     S
Br189  C221    1.937   .     S
Br190  C222    1.937   .     S
Br191  C224    1.937   .     S
Br192  C225    1.937   .     S
Br193  C226    1.937   .     S
Br194  C203    1.930   .     S
Br195  C204    1.930   .     S
Br196  C205    1.930   .     S
Br197  C206    1.930   .     S
Br198  C207    1.930   .     S
Br199  C208    1.930   .     S
Br200  C209    1.937   .     S
C201   O249    1.301   .     A
C201   C230    1.471   .     S
C201   O259    1.301   .     A
C202   C555    1.420   .     S
C202   N245    1.375   .     S
C203   N246    1.375   .     A
C203   C906    1.420   1_554 S
C204   N245    1.375   .     A
C204   C592    1.420   .     S
C205   C912    1.420   1_554 S
C205   N72     1.375   1_565 S
C206   C559    1.420   .     S
C206   N247    1.375   .     S
C207   N248    1.375   .     A
C207   C910    1.420   1_554 S
C208   N71     1.375   1_565 A
C208   C557    1.420   .     S
C209   C228    1.412   .     A
C209   C220    1.392   .     A
C210   C221    1.392   .     A
C210   C227    1.412   .     A
C211   C218    1.392   .     A
C211   C227    1.412   .     A
C212   C229    1.471   .     S
C212   O258    1.301   .     A
C212   O257    1.301   .     A
C213   C228    1.412   .     A
C213   C219    1.392   .     A
C214   C225    1.392   .     A
C214   C230    1.412   .     A
C215   C229    1.412   .     A
C215   C226    1.392   .     A
C216   C222    1.392   .     A
C216   C229    1.412   .     A
C217   C224    1.392   .     A
C217   C230    1.412   .     A
C218   C232    1.412   .     A
C219   C231    1.412   .     A
C220   C231    1.412   .     A
C221   C232    1.412   .     A
C222   C235    1.412   .     A
C223   O263    1.301   .     A
C223   O260    1.301   .     A
C223   C228    1.471   .     S
C224   C233    1.412   .     A
C225   C233    1.412   .     A
C226   C235    1.412   .     A
C227   C234    1.471   .     S
C231   C239    1.471   .     S
C232   C238    1.471   .     S
C233   C237    1.471   .     S
C234   O261    1.301   .     A
C234   O262    1.301   .     A
C235   C236    1.471   .     S
C236   O264    1.301   .     A
C236   O252    1.301   .     A
C237   O251    1.301   .     A
C237   O250    1.301   .     A
C238   O253    1.301   .     A
C238   O256    1.301   .     A
C239   O255    1.301   .     A
C239   O254    1.301   .     A
C240   N246    1.375   .     A
C240   C908    1.420   1_554 S
Cu241  O249    1.974   .     S
Cu241  O261    1.974   .     S
Cu241  Cu242   2.692   .     S
Cu241  N245    2.023   .     S
Cu241  O346    1.974   1_455 S
Cu241  O351    1.974   1_455 S
Cu242  O345    1.974   1_455 S
Cu242  N246    2.023   .     S
Cu242  O348    1.974   1_455 S
Cu242  O259    1.974   .     S
Cu242  O262    1.974   .     S
Cu243  O254    1.974   .     S
Cu243  O251    1.974   .     S
Cu243  Cu244   2.692   .     S
Cu243  N247    2.023   .     S
Cu244  N248    2.023   .     S
Cu244  O250    1.974   .     S
Cu244  O255    1.974   .     S
O252   Cu68    1.974   1_565 S
O253   Cu68    1.974   1_565 S
O256   Cu67    1.974   1_565 S
O257   Cu330   1.974   .     S
O258   Cu329   1.974   .     S
O260   Cu330   1.974   .     S
O263   Cu329   1.974   .     S
O264   Cu67    1.974   1_565 S
Br265  C328    1.930   .     S
Br266  C298    1.937   .     S
Br267  C299    1.937   .     S
Br268  C301    1.937   .     S
Br269  C302    1.937   .     S
Br270  C303    1.937   .     S
Br271  C304    1.937   .     S
Br272  C305    1.937   .     S
Br273  C306    1.937   .     S
Br274  C307    1.937   .     S
Br275  C308    1.937   .     S
Br276  C290    1.930   .     S
Br277  C309    1.937   .     S
Br278  C310    1.937   .     S
Br279  C312    1.937   .     S
Br280  C313    1.937   .     S
Br281  C314    1.937   .     S
Br282  C291    1.930   .     S
Br283  C292    1.930   .     S
Br284  C293    1.930   .     S
Br285  C294    1.930   .     S
Br286  C295    1.930   .     S
Br287  C296    1.930   .     S
Br288  C297    1.937   .     S
C289   O337    1.301   .     A
C289   C318    1.471   .     S
C289   O347    1.301   .     A
C290   C643    1.420   .     S
C290   N333    1.375   .     S
C291   N334    1.375   .     A
C291   C994    1.420   1_554 S
C292   N333    1.375   .     A
C292   C680    1.420   .     S
C293   C1000   1.420   1_554 S
C293   N160    1.375   1_565 S
C294   C647    1.420   .     S
C294   N335    1.375   .     S
C295   N336    1.375   .     A
C295   C998    1.420   1_554 S
C296   N159    1.375   1_565 A
C296   C645    1.420   .     S
C297   C316    1.412   .     A
C297   C308    1.392   .     A
C298   C309    1.392   .     A
C298   C315    1.412   .     A
C299   C306    1.392   .     A
C299   C315    1.412   .     A
C300   C317    1.471   .     S
C300   O346    1.301   .     A
C300   O345    1.301   .     A
C301   C316    1.412   .     A
C301   C307    1.392   .     A
C302   C313    1.392   .     A
C302   C318    1.412   .     A
C303   C317    1.412   .     A
C303   C314    1.392   .     A
C304   C310    1.392   .     A
C304   C317    1.412   .     A
C305   C312    1.392   .     A
C305   C318    1.412   .     A
C306   C320    1.412   .     A
C307   C319    1.412   .     A
C308   C319    1.412   .     A
C309   C320    1.412   .     A
C310   C323    1.412   .     A
C311   O351    1.301   .     A
C311   O348    1.301   .     A
C311   C316    1.471   .     S
C312   C321    1.412   .     A
C313   C321    1.412   .     A
C314   C323    1.412   .     A
C315   C322    1.471   .     S
C319   C327    1.471   .     S
C320   C326    1.471   .     S
C321   C325    1.471   .     S
C322   O349    1.301   .     A
C322   O350    1.301   .     A
C323   C324    1.471   .     S
C324   O352    1.301   .     A
C324   O340    1.301   .     A
C325   O339    1.301   .     A
C325   O338    1.301   .     A
C326   O341    1.301   .     A
C326   O344    1.301   .     A
C327   O343    1.301   .     A
C327   O342    1.301   .     A
C328   N334    1.375   .     A
C328   C996    1.420   1_554 S
Cu329  O337    1.974   .     S
Cu329  O349    1.974   .     S
Cu329  Cu330   2.692   .     S
Cu329  N333    2.023   .     S
Cu330  N334    2.023   .     S
Cu330  O347    1.974   .     S
Cu330  O350    1.974   .     S
Cu331  O342    1.974   .     S
Cu331  O339    1.974   .     S
Cu331  Cu332   2.692   .     S
Cu331  N335    2.023   .     S
Cu332  N336    2.023   .     S
Cu332  O338    1.974   .     S
Cu332  O343    1.974   .     S
O340   Cu156   1.974   1_565 S
O341   Cu156   1.974   1_565 S
O344   Cu155   1.974   1_565 S
O345   Cu242   1.974   1_655 S
O346   Cu241   1.974   1_655 S
O348   Cu242   1.974   1_655 S
O351   Cu241   1.974   1_655 S
O352   Cu155   1.974   1_565 S
Br353  C416    1.930   .     S
Br354  C386    1.937   .     S
Br355  C387    1.937   .     S
Br356  C389    1.937   .     S
Br357  C390    1.937   .     S
Br358  C391    1.937   .     S
Br359  C392    1.937   .     S
Br360  C393    1.937   .     S
Br361  C394    1.937   .     S
Br362  C395    1.937   .     S
Br363  C396    1.937   .     S
Br364  C378    1.930   .     S
Br365  C397    1.937   .     S
Br366  C398    1.937   .     S
Br367  C400    1.937   .     S
Br368  C401    1.937   .     S
Br369  C402    1.937   .     S
Br370  C379    1.930   .     S
Br371  C380    1.930   .     S
Br372  C381    1.930   .     S
Br373  C382    1.930   .     S
Br374  C383    1.930   .     S
Br375  C384    1.930   .     S
Br376  C385    1.937   .     S
C377   O425    1.301   .     A
C377   C406    1.471   .     S
C377   O435    1.301   .     A
C378   C731    1.420   .     S
C378   N421    1.375   .     S
C379   N422    1.375   .     A
C380   N421    1.375   .     A
C380   C768    1.420   .     S
C381   N600    1.375   .     S
C382   C735    1.420   .     S
C382   N423    1.375   .     S
C383   N424    1.375   .     A
C384   N599    1.375   .     A
C384   C733    1.420   .     S
C385   C404    1.412   .     A
C385   C396    1.392   .     A
C386   C397    1.392   .     A
C386   C403    1.412   .     A
C387   C394    1.392   .     A
C387   C403    1.412   .     A
C388   C405    1.471   .     S
C388   O434    1.301   .     A
C388   O433    1.301   .     A
C389   C404    1.412   .     A
C389   C395    1.392   .     A
C390   C401    1.392   .     A
C390   C406    1.412   .     A
C391   C405    1.412   .     A
C391   C402    1.392   .     A
C392   C398    1.392   .     A
C392   C405    1.412   .     A
C393   C400    1.392   .     A
C393   C406    1.412   .     A
C394   C408    1.412   .     A
C395   C407    1.412   .     A
C396   C407    1.412   .     A
C397   C408    1.412   .     A
C398   C411    1.412   .     A
C399   O439    1.301   .     A
C399   O436    1.301   .     A
C399   C404    1.471   .     S
C400   C409    1.412   .     A
C401   C409    1.412   .     A
C402   C411    1.412   .     A
C403   C410    1.471   .     S
C407   C415    1.471   .     S
C408   C414    1.471   .     S
C409   C413    1.471   .     S
C410   O437    1.301   .     A
C410   O438    1.301   .     A
C411   C412    1.471   .     S
C412   O440    1.301   .     A
C412   O428    1.301   .     A
C413   O427    1.301   .     A
C413   O426    1.301   .     A
C414   O429    1.301   .     A
C414   O432    1.301   .     A
C415   O431    1.301   .     A
C415   O430    1.301   .     A
C416   N422    1.375   .     A
Cu417  O425    1.974   .     S
Cu417  O437    1.974   .     S
Cu417  Cu418   2.692   .     S
Cu417  N421    2.023   .     S
Cu417  O522    1.974   1_455 S
Cu417  O527    1.974   1_455 S
Cu418  O521    1.974   1_455 S
Cu418  N422    2.023   .     S
Cu418  O524    1.974   1_455 S
Cu418  O435    1.974   .     S
Cu418  O438    1.974   .     S
Cu419  O430    1.974   .     S
Cu419  O427    1.974   .     S
Cu419  Cu420   2.692   .     S
Cu419  N423    2.023   .     S
Cu419  O608    1.974   1_545 S
Cu419  O616    1.974   1_545 S
Cu420  O605    1.974   1_545 S
Cu420  O604    1.974   1_545 S
Cu420  N424    2.023   .     S
Cu420  O426    1.974   .     S
Cu420  O431    1.974   .     S
N423   C560    1.375   1_545 A
N424   C557    1.375   1_545 S
O428   Cu596   1.974   .     S
O429   Cu596   1.974   .     S
O432   Cu595   1.974   .     S
O433   Cu506   1.974   .     S
O434   Cu505   1.974   .     S
O436   Cu506   1.974   .     S
O439   Cu505   1.974   .     S
O440   Cu595   1.974   .     S
Br441  C504    1.930   .     S
Br442  C474    1.937   .     S
Br443  C475    1.937   .     S
Br444  C477    1.937   .     S
Br445  C478    1.937   .     S
Br446  C479    1.937   .     S
Br447  C480    1.937   .     S
Br448  C481    1.937   .     S
Br449  C482    1.937   .     S
Br450  C483    1.937   .     S
Br451  C484    1.937   .     S
Br452  C466    1.930   .     S
Br453  C485    1.937   .     S
Br454  C486    1.937   .     S
Br455  C488    1.937   .     S
Br456  C489    1.937   .     S
Br457  C490    1.937   .     S
Br458  C467    1.930   .     S
Br459  C468    1.930   .     S
Br460  C469    1.930   .     S
Br461  C470    1.930   .     S
Br462  C471    1.930   .     S
Br463  C472    1.930   .     S
Br464  C473    1.937   .     S
C465   O513    1.301   .     A
C465   C494    1.471   .     S
C465   O523    1.301   .     A
C466   C819    1.420   .     S
C466   N509    1.375   .     S
C467   N510    1.375   .     A
C468   N509    1.375   .     A
C468   C856    1.420   .     S
C469   N688    1.375   .     S
C470   C823    1.420   .     S
C470   N511    1.375   .     S
C471   N512    1.375   .     A
C472   N687    1.375   .     A
C472   C821    1.420   .     S
C473   C492    1.412   .     A
C473   C484    1.392   .     A
C474   C485    1.392   .     A
C474   C491    1.412   .     A
C475   C482    1.392   .     A
C475   C491    1.412   .     A
C476   C493    1.471   .     S
C476   O522    1.301   .     A
C476   O521    1.301   .     A
C477   C492    1.412   .     A
C477   C483    1.392   .     A
C478   C489    1.392   .     A
C478   C494    1.412   .     A
C479   C493    1.412   .     A
C479   C490    1.392   .     A
C480   C486    1.392   .     A
C480   C493    1.412   .     A
C481   C488    1.392   .     A
C481   C494    1.412   .     A
C482   C496    1.412   .     A
C483   C495    1.412   .     A
C484   C495    1.412   .     A
C485   C496    1.412   .     A
C486   C499    1.412   .     A
C487   O527    1.301   .     A
C487   O524    1.301   .     A
C487   C492    1.471   .     S
C488   C497    1.412   .     A
C489   C497    1.412   .     A
C490   C499    1.412   .     A
C491   C498    1.471   .     S
C495   C503    1.471   .     S
C496   C502    1.471   .     S
C497   C501    1.471   .     S
C498   O525    1.301   .     A
C498   O526    1.301   .     A
C499   C500    1.471   .     S
C500   O528    1.301   .     A
C500   O516    1.301   .     A
C501   O515    1.301   .     A
C501   O514    1.301   .     A
C502   O517    1.301   .     A
C502   O520    1.301   .     A
C503   O519    1.301   .     A
C503   O518    1.301   .     A
C504   N510    1.375   .     A
Cu505  O513    1.974   .     S
Cu505  O525    1.974   .     S
Cu505  Cu506   2.692   .     S
Cu505  N509    2.023   .     S
Cu506  N510    2.023   .     S
Cu506  O523    1.974   .     S
Cu506  O526    1.974   .     S
Cu507  O518    1.974   .     S
Cu507  O515    1.974   .     S
Cu507  Cu508   2.692   .     S
Cu507  N511    2.023   .     S
Cu507  O696    1.974   1_545 S
Cu507  O704    1.974   1_545 S
Cu508  O693    1.974   1_545 S
Cu508  O692    1.974   1_545 S
Cu508  N512    2.023   .     S
Cu508  O514    1.974   .     S
Cu508  O519    1.974   .     S
N511   C648    1.375   1_545 A
N512   C645    1.375   1_545 S
O516   Cu684   1.974   .     S
O517   Cu684   1.974   .     S
O520   Cu683   1.974   .     S
O521   Cu418   1.974   1_655 S
O522   Cu417   1.974   1_655 S
O524   Cu418   1.974   1_655 S
O527   Cu417   1.974   1_655 S
O528   Cu683   1.974   .     S
Br529  C592    1.930   .     S
Br530  C562    1.937   .     S
Br531  C563    1.937   .     S
Br532  C565    1.937   .     S
Br533  C566    1.937   .     S
Br534  C567    1.937   .     S
Br535  C568    1.937   .     S
Br536  C569    1.937   .     S
Br537  C570    1.937   .     S
Br538  C571    1.937   .     S
Br539  C572    1.937   .     S
Br540  C554    1.930   .     S
Br541  C573    1.937   .     S
Br542  C574    1.937   .     S
Br543  C576    1.937   .     S
Br544  C577    1.937   .     S
Br545  C578    1.937   .     S
Br546  C555    1.930   .     S
Br547  C556    1.930   .     S
Br548  C557    1.930   .     S
Br549  C558    1.930   .     S
Br550  C559    1.930   .     S
Br551  C560    1.930   .     S
Br552  C561    1.937   .     S
C553   O601    1.301   .     A
C553   C582    1.471   .     S
C553   O611    1.301   .     A
C554   C907    1.420   .     S
C554   N597    1.375   .     S
C555   N598    1.375   .     A
C556   N597    1.375   .     A
C556   C944    1.420   .     S
C557   N424    1.375   1_565 S
C558   C911    1.420   .     S
C558   N599    1.375   .     S
C559   N600    1.375   .     A
C560   N423    1.375   1_565 A
C560   C909    1.420   .     S
C561   C580    1.412   .     A
C561   C572    1.392   .     A
C562   C573    1.392   .     A
C562   C579    1.412   .     A
C563   C570    1.392   .     A
C563   C579    1.412   .     A
C564   C581    1.471   .     S
C564   O610    1.301   .     A
C564   O609    1.301   .     A
C565   C580    1.412   .     A
C565   C571    1.392   .     A
C566   C577    1.392   .     A
C566   C582    1.412   .     A
C567   C581    1.412   .     A
C567   C578    1.392   .     A
C568   C574    1.392   .     A
C568   C581    1.412   .     A
C569   C576    1.392   .     A
C569   C582    1.412   .     A
C570   C584    1.412   .     A
C571   C583    1.412   .     A
C572   C583    1.412   .     A
C573   C584    1.412   .     A
C574   C587    1.412   .     A
C575   O615    1.301   .     A
C575   O612    1.301   .     A
C575   C580    1.471   .     S
C576   C585    1.412   .     A
C577   C585    1.412   .     A
C578   C587    1.412   .     A
C579   C586    1.471   .     S
C583   C591    1.471   .     S
C584   C590    1.471   .     S
C585   C589    1.471   .     S
C586   O613    1.301   .     A
C586   O614    1.301   .     A
C587   C588    1.471   .     S
C588   O616    1.301   .     A
C588   O604    1.301   .     A
C589   O603    1.301   .     A
C589   O602    1.301   .     A
C590   O605    1.301   .     A
C590   O608    1.301   .     A
C591   O607    1.301   .     A
C591   O606    1.301   .     A
C592   N598    1.375   .     A
Cu593  O601    1.974   .     S
Cu593  O613    1.974   .     S
Cu593  Cu594   2.692   .     S
Cu593  N597    2.023   .     S
Cu593  O698    1.974   1_455 S
Cu593  O703    1.974   1_455 S
Cu594  O697    1.974   1_455 S
Cu594  N598    2.023   .     S
Cu594  O700    1.974   1_455 S
Cu594  O611    1.974   .     S
Cu594  O614    1.974   .     S
Cu595  O606    1.974   .     S
Cu595  O603    1.974   .     S
Cu595  Cu596   2.692   .     S
Cu595  N599    2.023   .     S
Cu596  N600    2.023   .     S
Cu596  O602    1.974   .     S
Cu596  O607    1.974   .     S
O604   Cu420   1.974   1_565 S
O605   Cu420   1.974   1_565 S
O608   Cu419   1.974   1_565 S
O609   Cu682   1.974   .     S
O610   Cu681   1.974   .     S
O612   Cu682   1.974   .     S
O615   Cu681   1.974   .     S
O616   Cu419   1.974   1_565 S
Br617  C680    1.930   .     S
Br618  C650    1.937   .     S
Br619  C651    1.937   .     S
Br620  C653    1.937   .     S
Br621  C654    1.937   .     S
Br622  C655    1.937   .     S
Br623  C656    1.937   .     S
Br624  C657    1.937   .     S
Br625  C658    1.937   .     S
Br626  C659    1.937   .     S
Br627  C660    1.937   .     S
Br628  C642    1.930   .     S
Br629  C661    1.937   .     S
Br630  C662    1.937   .     S
Br631  C664    1.937   .     S
Br632  C665    1.937   .     S
Br633  C666    1.937   .     S
Br634  C643    1.930   .     S
Br635  C644    1.930   .     S
Br636  C645    1.930   .     S
Br637  C646    1.930   .     S
Br638  C647    1.930   .     S
Br639  C648    1.930   .     S
Br640  C649    1.937   .     S
C641   O689    1.301   .     A
C641   C670    1.471   .     S
C641   O699    1.301   .     A
C642   C995    1.420   .     S
C642   N685    1.375   .     S
C643   N686    1.375   .     A
C644   N685    1.375   .     A
C644   C1032   1.420   .     S
C645   N512    1.375   1_565 S
C646   C999    1.420   .     S
C646   N687    1.375   .     S
C647   N688    1.375   .     A
C648   N511    1.375   1_565 A
C648   C997    1.420   .     S
C649   C668    1.412   .     A
C649   C660    1.392   .     A
C650   C661    1.392   .     A
C650   C667    1.412   .     A
C651   C658    1.392   .     A
C651   C667    1.412   .     A
C652   C669    1.471   .     S
C652   O698    1.301   .     A
C652   O697    1.301   .     A
C653   C668    1.412   .     A
C653   C659    1.392   .     A
C654   C665    1.392   .     A
C654   C670    1.412   .     A
C655   C669    1.412   .     A
C655   C666    1.392   .     A
C656   C662    1.392   .     A
C656   C669    1.412   .     A
C657   C664    1.392   .     A
C657   C670    1.412   .     A
C658   C672    1.412   .     A
C659   C671    1.412   .     A
C660   C671    1.412   .     A
C661   C672    1.412   .     A
C662   C675    1.412   .     A
C663   O703    1.301   .     A
C663   O700    1.301   .     A
C663   C668    1.471   .     S
C664   C673    1.412   .     A
C665   C673    1.412   .     A
C666   C675    1.412   .     A
C667   C674    1.471   .     S
C671   C679    1.471   .     S
C672   C678    1.471   .     S
C673   C677    1.471   .     S
C674   O701    1.301   .     A
C674   O702    1.301   .     A
C675   C676    1.471   .     S
C676   O704    1.301   .     A
C676   O692    1.301   .     A
C677   O691    1.301   .     A
C677   O690    1.301   .     A
C678   O693    1.301   .     A
C678   O696    1.301   .     A
C679   O695    1.301   .     A
C679   O694    1.301   .     A
C680   N686    1.375   .     A
Cu681  O689    1.974   .     S
Cu681  O701    1.974   .     S
Cu681  Cu682   2.692   .     S
Cu681  N685    2.023   .     S
Cu682  N686    2.023   .     S
Cu682  O699    1.974   .     S
Cu682  O702    1.974   .     S
Cu683  O694    1.974   .     S
Cu683  O691    1.974   .     S
Cu683  Cu684   2.692   .     S
Cu683  N687    2.023   .     S
Cu684  N688    2.023   .     S
Cu684  O690    1.974   .     S
Cu684  O695    1.974   .     S
O692   Cu508   1.974   1_565 S
O693   Cu508   1.974   1_565 S
O696   Cu507   1.974   1_565 S
O697   Cu594   1.974   1_655 S
O698   Cu593   1.974   1_655 S
O700   Cu594   1.974   1_655 S
O703   Cu593   1.974   1_655 S
O704   Cu507   1.974   1_565 S
Br705  C768    1.930   .     S
Br706  C738    1.937   .     S
Br707  C739    1.937   .     S
Br708  C741    1.937   .     S
Br709  C742    1.937   .     S
Br710  C743    1.937   .     S
Br711  C744    1.937   .     S
Br712  C745    1.937   .     S
Br713  C746    1.937   .     S
Br714  C747    1.937   .     S
Br715  C748    1.937   .     S
Br716  C730    1.930   .     S
Br717  C749    1.937   .     S
Br718  C750    1.937   .     S
Br719  C752    1.937   .     S
Br720  C753    1.937   .     S
Br721  C754    1.937   .     S
Br722  C731    1.930   .     S
Br723  C732    1.930   .     S
Br724  C733    1.930   .     S
Br725  C734    1.930   .     S
Br726  C735    1.930   .     S
Br727  C736    1.930   .     S
Br728  C737    1.937   .     S
C729   O777    1.301   .     A
C729   C758    1.471   .     S
C729   O787    1.301   .     A
C730   C27     1.420   1_556 S
C730   N773    1.375   .     S
C731   N774    1.375   .     A
C732   N773    1.375   .     A
C732   C64     1.420   1_556 S
C733   N952    1.375   .     S
C734   C31     1.420   1_556 S
C734   N775    1.375   .     S
C735   N776    1.375   .     A
C736   N951    1.375   .     A
C736   C29     1.420   1_556 S
C737   C756    1.412   .     A
C737   C748    1.392   .     A
C738   C749    1.392   .     A
C738   C755    1.412   .     A
C739   C746    1.392   .     A
C739   C755    1.412   .     A
C740   C757    1.471   .     S
C740   O786    1.301   .     A
C740   O785    1.301   .     A
C741   C756    1.412   .     A
C741   C747    1.392   .     A
C742   C753    1.392   .     A
C742   C758    1.412   .     A
C743   C757    1.412   .     A
C743   C754    1.392   .     A
C744   C750    1.392   .     A
C744   C757    1.412   .     A
C745   C752    1.392   .     A
C745   C758    1.412   .     A
C746   C760    1.412   .     A
C747   C759    1.412   .     A
C748   C759    1.412   .     A
C749   C760    1.412   .     A
C750   C763    1.412   .     A
C751   O791    1.301   .     A
C751   O788    1.301   .     A
C751   C756    1.471   .     S
C752   C761    1.412   .     A
C753   C761    1.412   .     A
C754   C763    1.412   .     A
C755   C762    1.471   .     S
C759   C767    1.471   .     S
C760   C766    1.471   .     S
C761   C765    1.471   .     S
C762   O789    1.301   .     A
C762   O790    1.301   .     A
C763   C764    1.471   .     S
C764   O792    1.301   .     A
C764   O780    1.301   .     A
C765   O779    1.301   .     A
C765   O778    1.301   .     A
C766   O781    1.301   .     A
C766   O784    1.301   .     A
C767   O783    1.301   .     A
C767   O782    1.301   .     A
C768   N774    1.375   .     A
Cu769  O777    1.974   .     S
Cu769  O789    1.974   .     S
Cu769  Cu770   2.692   .     S
Cu769  N773    2.023   .     S
Cu769  O874    1.974   1_455 S
Cu769  O879    1.974   1_455 S
Cu770  O873    1.974   1_455 S
Cu770  N774    2.023   .     S
Cu770  O876    1.974   1_455 S
Cu770  O787    1.974   .     S
Cu770  O790    1.974   .     S
Cu771  O782    1.974   .     S
Cu771  O779    1.974   .     S
Cu771  Cu772   2.692   .     S
Cu771  N775    2.023   .     S
Cu771  O960    1.974   1_545 S
Cu771  O968    1.974   1_545 S
Cu772  O957    1.974   1_545 S
Cu772  O956    1.974   1_545 S
Cu772  N776    2.023   .     S
Cu772  O778    1.974   .     S
Cu772  O783    1.974   .     S
N775   C912    1.375   1_545 A
N776   C909    1.375   1_545 S
O780   Cu948   1.974   .     S
O781   Cu948   1.974   .     S
O784   Cu947   1.974   .     S
O785   Cu858   1.974   .     S
O786   Cu857   1.974   .     S
O788   Cu858   1.974   .     S
O791   Cu857   1.974   .     S
O792   Cu947   1.974   .     S
Br793  C856    1.930   .     S
Br794  C826    1.937   .     S
Br795  C827    1.937   .     S
Br796  C829    1.937   .     S
Br797  C830    1.937   .     S
Br798  C831    1.937   .     S
Br799  C832    1.937   .     S
Br800  C833    1.937   .     S
Br801  C834    1.937   .     S
Br802  C835    1.937   .     S
Br803  C836    1.937   .     S
Br804  C818    1.930   .     S
Br805  C837    1.937   .     S
Br806  C838    1.937   .     S
Br807  C840    1.937   .     S
Br808  C841    1.937   .     S
Br809  C842    1.937   .     S
Br810  C819    1.930   .     S
Br811  C820    1.930   .     S
Br812  C821    1.930   .     S
Br813  C822    1.930   .     S
Br814  C823    1.930   .     S
Br815  C824    1.930   .     S
Br816  C825    1.937   .     S
C817   O865    1.301   .     A
C817   C846    1.471   .     S
C817   O875    1.301   .     A
C818   C115    1.420   1_556 S
C818   N861    1.375   .     S
C819   N862    1.375   .     A
C820   N861    1.375   .     A
C820   C152    1.420   1_556 S
C821   N1040   1.375   .     S
C822   C119    1.420   1_556 S
C822   N863    1.375   .     S
C823   N864    1.375   .     A
C824   N1039   1.375   .     A
C824   C117    1.420   1_556 S
C825   C844    1.412   .     A
C825   C836    1.392   .     A
C826   C837    1.392   .     A
C826   C843    1.412   .     A
C827   C834    1.392   .     A
C827   C843    1.412   .     A
C828   C845    1.471   .     S
C828   O874    1.301   .     A
C828   O873    1.301   .     A
C829   C844    1.412   .     A
C829   C835    1.392   .     A
C830   C841    1.392   .     A
C830   C846    1.412   .     A
C831   C845    1.412   .     A
C831   C842    1.392   .     A
C832   C838    1.392   .     A
C832   C845    1.412   .     A
C833   C840    1.392   .     A
C833   C846    1.412   .     A
C834   C848    1.412   .     A
C835   C847    1.412   .     A
C836   C847    1.412   .     A
C837   C848    1.412   .     A
C838   C851    1.412   .     A
C839   O879    1.301   .     A
C839   O876    1.301   .     A
C839   C844    1.471   .     S
C840   C849    1.412   .     A
C841   C849    1.412   .     A
C842   C851    1.412   .     A
C843   C850    1.471   .     S
C847   C855    1.471   .     S
C848   C854    1.471   .     S
C849   C853    1.471   .     S
C850   O877    1.301   .     A
C850   O878    1.301   .     A
C851   C852    1.471   .     S
C852   O880    1.301   .     A
C852   O868    1.301   .     A
C853   O867    1.301   .     A
C853   O866    1.301   .     A
C854   O869    1.301   .     A
C854   O872    1.301   .     A
C855   O871    1.301   .     A
C855   O870    1.301   .     A
C856   N862    1.375   .     A
Cu857  O865    1.974   .     S
Cu857  O877    1.974   .     S
Cu857  Cu858   2.692   .     S
Cu857  N861    2.023   .     S
Cu858  N862    2.023   .     S
Cu858  O875    1.974   .     S
Cu858  O878    1.974   .     S
Cu859  O870    1.974   .     S
Cu859  O867    1.974   .     S
Cu859  Cu860   2.692   .     S
Cu859  N863    2.023   .     S
Cu859  O1048   1.974   1_545 S
Cu859  O1056   1.974   1_545 S
Cu860  O1045   1.974   1_545 S
Cu860  O1044   1.974   1_545 S
Cu860  N864    2.023   .     S
Cu860  O866    1.974   .     S
Cu860  O871    1.974   .     S
N863   C1000   1.375   1_545 A
N864   C997    1.375   1_545 S
O868   Cu1036  1.974   .     S
O869   Cu1036  1.974   .     S
O872   Cu1035  1.974   .     S
O873   Cu770   1.974   1_655 S
O874   Cu769   1.974   1_655 S
O876   Cu770   1.974   1_655 S
O879   Cu769   1.974   1_655 S
O880   Cu1035  1.974   .     S
Br881  C944    1.930   .     S
Br882  C914    1.937   .     S
Br883  C915    1.937   .     S
Br884  C917    1.937   .     S
Br885  C918    1.937   .     S
Br886  C919    1.937   .     S
Br887  C920    1.937   .     S
Br888  C921    1.937   .     S
Br889  C922    1.937   .     S
Br890  C923    1.937   .     S
Br891  C924    1.937   .     S
Br892  C906    1.930   .     S
Br893  C925    1.937   .     S
Br894  C926    1.937   .     S
Br895  C928    1.937   .     S
Br896  C929    1.937   .     S
Br897  C930    1.937   .     S
Br898  C907    1.930   .     S
Br899  C908    1.930   .     S
Br900  C909    1.930   .     S
Br901  C910    1.930   .     S
Br902  C911    1.930   .     S
Br903  C912    1.930   .     S
Br904  C913    1.937   .     S
C905   O953    1.301   .     A
C905   C934    1.471   .     S
C905   O963    1.301   .     A
C906   C203    1.420   1_556 S
C906   N949    1.375   .     S
C907   N950    1.375   .     A
C908   N949    1.375   .     A
C908   C240    1.420   1_556 S
C909   N776    1.375   1_565 S
C910   C207    1.420   1_556 S
C910   N951    1.375   .     S
C911   N952    1.375   .     A
C912   N775    1.375   1_565 A
C912   C205    1.420   1_556 S
C913   C932    1.412   .     A
C913   C924    1.392   .     A
C914   C925    1.392   .     A
C914   C931    1.412   .     A
C915   C922    1.392   .     A
C915   C931    1.412   .     A
C916   C933    1.471   .     S
C916   O962    1.301   .     A
C916   O961    1.301   .     A
C917   C932    1.412   .     A
C917   C923    1.392   .     A
C918   C929    1.392   .     A
C918   C934    1.412   .     A
C919   C933    1.412   .     A
C919   C930    1.392   .     A
C920   C926    1.392   .     A
C920   C933    1.412   .     A
C921   C928    1.392   .     A
C921   C934    1.412   .     A
C922   C936    1.412   .     A
C923   C935    1.412   .     A
C924   C935    1.412   .     A
C925   C936    1.412   .     A
C926   C939    1.412   .     A
C927   O967    1.301   .     A
C927   O964    1.301   .     A
C927   C932    1.471   .     S
C928   C937    1.412   .     A
C929   C937    1.412   .     A
C930   C939    1.412   .     A
C931   C938    1.471   .     S
C935   C943    1.471   .     S
C936   C942    1.471   .     S
C937   C941    1.471   .     S
C938   O965    1.301   .     A
C938   O966    1.301   .     A
C939   C940    1.471   .     S
C940   O968    1.301   .     A
C940   O956    1.301   .     A
C941   O955    1.301   .     A
C941   O954    1.301   .     A
C942   O957    1.301   .     A
C942   O960    1.301   .     A
C943   O959    1.301   .     A
C943   O958    1.301   .     A
C944   N950    1.375   .     A
Cu945  O953    1.974   .     S
Cu945  O965    1.974   .     S
Cu945  Cu946   2.692   .     S
Cu945  N949    2.023   .     S
Cu945  O1050   1.974   1_455 S
Cu945  O1055   1.974   1_455 S
Cu946  O1049   1.974   1_455 S
Cu946  N950    2.023   .     S
Cu946  O1052   1.974   1_455 S
Cu946  O963    1.974   .     S
Cu946  O966    1.974   .     S
Cu947  O958    1.974   .     S
Cu947  O955    1.974   .     S
Cu947  Cu948   2.692   .     S
Cu947  N951    2.023   .     S
Cu948  N952    2.023   .     S
Cu948  O954    1.974   .     S
Cu948  O959    1.974   .     S
O956   Cu772   1.974   1_565 S
O957   Cu772   1.974   1_565 S
O960   Cu771   1.974   1_565 S
O961   Cu1034  1.974   .     S
O962   Cu1033  1.974   .     S
O964   Cu1034  1.974   .     S
O967   Cu1033  1.974   .     S
O968   Cu771   1.974   1_565 S
Br969  C1032   1.930   .     S
Br970  C1002   1.937   .     S
Br971  C1003   1.937   .     S
Br972  C1005   1.937   .     S
Br973  C1006   1.937   .     S
Br974  C1007   1.937   .     S
Br975  C1008   1.937   .     S
Br976  C1009   1.937   .     S
Br977  C1010   1.937   .     S
Br978  C1011   1.937   .     S
Br979  C1012   1.937   .     S
Br980  C994    1.930   .     S
Br981  C1013   1.937   .     S
Br982  C1014   1.937   .     S
Br983  C1016   1.937   .     S
Br984  C1017   1.937   .     S
Br985  C1018   1.937   .     S
Br986  C995    1.930   .     S
Br987  C996    1.930   .     S
Br988  C997    1.930   .     S
Br989  C998    1.930   .     S
Br990  C999    1.930   .     S
Br991  C1000   1.930   .     S
Br992  C1001   1.937   .     S
C993   O1041   1.301   .     A
C993   C1022   1.471   .     S
C993   O1051   1.301   .     A
C994   C291    1.420   1_556 S
C994   N1037   1.375   .     S
C995   N1038   1.375   .     A
C996   N1037   1.375   .     A
C996   C328    1.420   1_556 S
C997   N864    1.375   1_565 S
C998   C295    1.420   1_556 S
C998   N1039   1.375   .     S
C999   N1040   1.375   .     A
C1000  N863    1.375   1_565 A
C1000  C293    1.420   1_556 S
C1001  C1020   1.412   .     A
C1001  C1012   1.392   .     A
C1002  C1013   1.392   .     A
C1002  C1019   1.412   .     A
C1003  C1010   1.392   .     A
C1003  C1019   1.412   .     A
C1004  C1021   1.471   .     S
C1004  O1050   1.301   .     A
C1004  O1049   1.301   .     A
C1005  C1020   1.412   .     A
C1005  C1011   1.392   .     A
C1006  C1017   1.392   .     A
C1006  C1022   1.412   .     A
C1007  C1021   1.412   .     A
C1007  C1018   1.392   .     A
C1008  C1014   1.392   .     A
C1008  C1021   1.412   .     A
C1009  C1016   1.392   .     A
C1009  C1022   1.412   .     A
C1010  C1024   1.412   .     A
C1011  C1023   1.412   .     A
C1012  C1023   1.412   .     A
C1013  C1024   1.412   .     A
C1014  C1027   1.412   .     A
C1015  O1055   1.301   .     A
C1015  O1052   1.301   .     A
C1015  C1020   1.471   .     S
C1016  C1025   1.412   .     A
C1017  C1025   1.412   .     A
C1018  C1027   1.412   .     A
C1019  C1026   1.471   .     S
C1023  C1031   1.471   .     S
C1024  C1030   1.471   .     S
C1025  C1029   1.471   .     S
C1026  O1053   1.301   .     A
C1026  O1054   1.301   .     A
C1027  C1028   1.471   .     S
C1028  O1056   1.301   .     A
C1028  O1044   1.301   .     A
C1029  O1043   1.301   .     A
C1029  O1042   1.301   .     A
C1030  O1045   1.301   .     A
C1030  O1048   1.301   .     A
C1031  O1047   1.301   .     A
C1031  O1046   1.301   .     A
C1032  N1038   1.375   .     A
Cu1033 O1041   1.974   .     S
Cu1033 O1053   1.974   .     S
Cu1033 Cu1034  2.692   .     S
Cu1033 N1037   2.023   .     S
Cu1034 N1038   2.023   .     S
Cu1034 O1051   1.974   .     S
Cu1034 O1054   1.974   .     S
Cu1035 O1046   1.974   .     S
Cu1035 O1043   1.974   .     S
Cu1035 Cu1036  2.692   .     S
Cu1035 N1039   2.023   .     S
Cu1036 N1040   2.023   .     S
Cu1036 O1042   1.974   .     S
Cu1036 O1047   1.974   .     S
O1044  Cu860   1.974   1_565 S
O1045  Cu860   1.974   1_565 S
O1048  Cu859   1.974   1_565 S
O1049  Cu946   1.974   1_655 S
O1050  Cu945   1.974   1_655 S
O1052  Cu946   1.974   1_655 S
O1055  Cu945   1.974   1_655 S
O1056  Cu859   1.974   1_565 S
