data_str_m2_o10_o17_pcu_sym.196
_audit_creation_date              2020-01-03
_audit_creation_method            'Materials Studio'
_symmetry_space_group_name_H-M    'P1'
_symmetry_Int_Tables_number       1
_symmetry_cell_setting            triclinic
loop_
_symmetry_equiv_pos_as_xyz
  x,y,z
_cell_length_a                    30.0592
_cell_length_b                    26.0575
_cell_length_c                    22.4742
_cell_angle_alpha                 103.2215
_cell_angle_beta                  94.4547
_cell_angle_gamma                 93.1837
loop_
_atom_site_label
_atom_site_type_symbol
_atom_site_fract_x
_atom_site_fract_y
_atom_site_fract_z
_atom_site_U_iso_or_equiv
_atom_site_adp_type
_atom_site_occupancy
C1     C     0.24837   0.06657   0.15104   0.00000  Uiso   1.00
C2     C     0.25163   0.26676   0.18229   0.00000  Uiso   1.00
C3     C     0.01526   0.12983   0.05627   0.00000  Uiso   1.00
C4     C     0.48474   0.20351   0.27706   0.00000  Uiso   1.00
C5     C     0.24668   0.01046   0.14248   0.00000  Uiso   1.00
C6     C     0.25332   0.32287   0.19085   0.00000  Uiso   1.00
C7     C     0.16441   0.16605   0.16715   0.00000  Uiso   1.00
C8     C     0.33559   0.16729   0.16618   0.00000  Uiso   1.00
C9     C     0.41120   0.18596   0.22106   0.00000  Uiso   1.00
C10    C     0.08880   0.14738   0.11227   0.00000  Uiso   1.00
C11    C     0.38402   0.16819   0.16563   0.00000  Uiso   1.00
C12    C     0.11598   0.16515   0.16770   0.00000  Uiso   1.00
C13    C     0.40318   0.15058   0.11041   0.00000  Uiso   1.00
C14    C     0.09682   0.18275   0.22292   0.00000  Uiso   1.00
C15    C     0.44947   0.14959   0.11047   0.00000  Uiso   1.00
C16    C     0.05053   0.18375   0.22286   0.00000  Uiso   1.00
C17    C     0.47673   0.16718   0.16640   0.00000  Uiso   1.00
C18    C     0.02328   0.16616   0.16694   0.00000  Uiso   1.00
C19    C     0.45747   0.18574   0.22182   0.00000  Uiso   1.00
C20    C     0.04253   0.14760   0.11152   0.00000  Uiso   1.00
C21    C     0.46893   0.13089   0.05574   0.00000  Uiso   1.00
C22    C     0.03107   0.20244   0.27760   0.00000  Uiso   1.00
Cu23   Cu    0.25501   0.17246   0.22813   0.00000  Uiso   1.00
Cu24   Cu    0.24500   0.16087   0.10521   0.00000  Uiso   1.00
H25    H     0.39640   0.20001   0.26376   0.00000  Uiso   1.00
H26    H     0.10360   0.13333   0.06958   0.00000  Uiso   1.00
H27    H     0.38210   0.13681   0.06764   0.00000  Uiso   1.00
H28    H     0.11790   0.19652   0.26569   0.00000  Uiso   1.00
H29    H     0.44836   0.11718   0.01257   0.00000  Uiso   1.00
H30    H     0.05164   0.21615   0.32076   0.00000  Uiso   1.00
H31    H     0.02977   0.11528   0.01351   0.00000  Uiso   1.00
H32    H     0.47023   0.21804   0.31983   0.00000  Uiso   1.00
H33    H     0.23955   0.31961   0.09609   0.00000  Uiso   1.00
H34    H     0.26045   0.01372   0.23724   0.00000  Uiso   1.00
N35    N     0.23745   0.15214   0.01284   0.00000  Uiso   1.00
N36    N     0.26256   0.18119   0.32049   0.00000  Uiso   1.00
O37    O     0.25326   0.09538   0.20659   0.00000  Uiso   1.00
O38    O     0.24675   0.23796   0.12674   0.00000  Uiso   1.00
O39    O     0.24480   0.08559   0.10279   0.00000  Uiso   1.00
O40    O     0.25520   0.24774   0.23055   0.00000  Uiso   1.00
O41    O     0.18936   0.17155   0.21857   0.00000  Uiso   1.00
O42    O     0.31065   0.16179   0.11476   0.00000  Uiso   1.00
O43    O     0.18090   0.16176   0.11477   0.00000  Uiso   1.00
O44    O     0.31910   0.17157   0.21857   0.00000  Uiso   1.00
O45    O     0.19802   0.13427   0.31349   0.00000  Uiso   1.00
C46    C     0.18769   0.08250   0.31955   0.00000  Uiso   1.00
H47    H     0.17412   0.08303   0.03076   0.00000  Uiso   1.00
H48    H     0.21747   0.05876   0.31541   0.00000  Uiso   1.00
C49    C     0.15188   0.05535   0.26881   0.00000  Uiso   1.00
H50    H     0.16418   0.05396   0.22318   0.00000  Uiso   1.00
H51    H     0.14346   0.01432   0.27284   0.00000  Uiso   1.00
H52    H     0.12119   0.07734   0.27255   0.00000  Uiso   1.00
O53    O     0.30198   0.19906   0.01984   0.00000  Uiso   1.00
C54    C     0.31232   0.25083   0.01379   0.00000  Uiso   1.00
H55    H     0.28254   0.27457   0.01793   0.00000  Uiso   1.00
H56    H     0.32589   0.25030   0.30258   0.00000  Uiso   1.00
C57    C     0.34813   0.27797   0.06452   0.00000  Uiso   1.00
H58    H     0.37879   0.25597   0.06081   0.00000  Uiso   1.00
H59    H     0.35657   0.31900   0.06047   0.00000  Uiso   1.00
H60    H     0.33581   0.27940   0.11015   0.00000  Uiso   1.00
C61    C     0.74837   0.06657   0.15104   0.00000  Uiso   1.00
C62    C     0.75163   0.26676   0.18229   0.00000  Uiso   1.00
C63    C     0.51526   0.12983   0.05627   0.00000  Uiso   1.00
C64    C     0.98474   0.20351   0.27706   0.00000  Uiso   1.00
C65    C     0.74668   0.01046   0.14248   0.00000  Uiso   1.00
C66    C     0.75332   0.32287   0.19085   0.00000  Uiso   1.00
C67    C     0.66441   0.16605   0.16715   0.00000  Uiso   1.00
C68    C     0.83559   0.16729   0.16618   0.00000  Uiso   1.00
C69    C     0.91120   0.18596   0.22106   0.00000  Uiso   1.00
C70    C     0.58880   0.14738   0.11227   0.00000  Uiso   1.00
C71    C     0.88402   0.16819   0.16563   0.00000  Uiso   1.00
C72    C     0.61598   0.16515   0.16770   0.00000  Uiso   1.00
C73    C     0.90318   0.15058   0.11041   0.00000  Uiso   1.00
C74    C     0.59682   0.18275   0.22292   0.00000  Uiso   1.00
C75    C     0.94947   0.14959   0.11047   0.00000  Uiso   1.00
C76    C     0.55053   0.18375   0.22286   0.00000  Uiso   1.00
C77    C     0.97673   0.16718   0.16640   0.00000  Uiso   1.00
C78    C     0.52328   0.16616   0.16694   0.00000  Uiso   1.00
C79    C     0.95747   0.18574   0.22182   0.00000  Uiso   1.00
C80    C     0.54253   0.14760   0.11152   0.00000  Uiso   1.00
C81    C     0.96893   0.13089   0.05574   0.00000  Uiso   1.00
C82    C     0.53107   0.20244   0.27760   0.00000  Uiso   1.00
Cu83   Cu    0.75501   0.17246   0.22813   0.00000  Uiso   1.00
Cu84   Cu    0.74500   0.16087   0.10521   0.00000  Uiso   1.00
H85    H     0.89640   0.20001   0.26376   0.00000  Uiso   1.00
H86    H     0.60360   0.13333   0.06958   0.00000  Uiso   1.00
H87    H     0.88210   0.13681   0.06764   0.00000  Uiso   1.00
H88    H     0.61790   0.19652   0.26569   0.00000  Uiso   1.00
H89    H     0.94836   0.11718   0.01257   0.00000  Uiso   1.00
H90    H     0.55164   0.21615   0.32076   0.00000  Uiso   1.00
H91    H     0.52977   0.11528   0.01351   0.00000  Uiso   1.00
H92    H     0.97023   0.21804   0.31983   0.00000  Uiso   1.00
H93    H     0.73955   0.31961   0.09609   0.00000  Uiso   1.00
H94    H     0.76045   0.01372   0.23724   0.00000  Uiso   1.00
N95    N     0.73745   0.15214   0.01284   0.00000  Uiso   1.00
N96    N     0.76256   0.18119   0.32049   0.00000  Uiso   1.00
O97    O     0.75326   0.09538   0.20659   0.00000  Uiso   1.00
O98    O     0.74675   0.23796   0.12674   0.00000  Uiso   1.00
O99    O     0.74480   0.08559   0.10279   0.00000  Uiso   1.00
O100   O     0.75520   0.24774   0.23055   0.00000  Uiso   1.00
O101   O     0.68936   0.17155   0.21857   0.00000  Uiso   1.00
O102   O     0.81065   0.16179   0.11476   0.00000  Uiso   1.00
O103   O     0.68090   0.16176   0.11477   0.00000  Uiso   1.00
O104   O     0.81910   0.17157   0.21857   0.00000  Uiso   1.00
O105   O     0.69802   0.13427   0.31349   0.00000  Uiso   1.00
C106   C     0.68769   0.08250   0.31955   0.00000  Uiso   1.00
H107   H     0.67412   0.08303   0.03076   0.00000  Uiso   1.00
H108   H     0.71747   0.05876   0.31541   0.00000  Uiso   1.00
C109   C     0.65188   0.05535   0.26881   0.00000  Uiso   1.00
H110   H     0.66418   0.05396   0.22318   0.00000  Uiso   1.00
H111   H     0.64346   0.01432   0.27284   0.00000  Uiso   1.00
H112   H     0.62119   0.07734   0.27255   0.00000  Uiso   1.00
O113   O     0.80198   0.19906   0.01984   0.00000  Uiso   1.00
C114   C     0.81232   0.25083   0.01379   0.00000  Uiso   1.00
H115   H     0.78254   0.27457   0.01793   0.00000  Uiso   1.00
H116   H     0.82589   0.25030   0.30258   0.00000  Uiso   1.00
C117   C     0.84813   0.27797   0.06452   0.00000  Uiso   1.00
H118   H     0.87879   0.25597   0.06081   0.00000  Uiso   1.00
H119   H     0.85657   0.31900   0.06047   0.00000  Uiso   1.00
H120   H     0.83581   0.27940   0.11015   0.00000  Uiso   1.00
C121   C     0.24837   0.39991   0.15104   0.00000  Uiso   1.00
C122   C     0.25163   0.60009   0.18229   0.00000  Uiso   1.00
C123   C     0.01526   0.46316   0.05627   0.00000  Uiso   1.00
C124   C     0.48474   0.53684   0.27706   0.00000  Uiso   1.00
C125   C     0.24668   0.34380   0.14248   0.00000  Uiso   1.00
C126   C     0.25332   0.65620   0.19085   0.00000  Uiso   1.00
C127   C     0.16441   0.49938   0.16715   0.00000  Uiso   1.00
C128   C     0.33559   0.50062   0.16618   0.00000  Uiso   1.00
C129   C     0.41120   0.51929   0.22106   0.00000  Uiso   1.00
C130   C     0.08880   0.48071   0.11227   0.00000  Uiso   1.00
C131   C     0.38402   0.50152   0.16563   0.00000  Uiso   1.00
C132   C     0.11598   0.49848   0.16770   0.00000  Uiso   1.00
C133   C     0.40318   0.48391   0.11041   0.00000  Uiso   1.00
C134   C     0.09682   0.51608   0.22292   0.00000  Uiso   1.00
C135   C     0.44947   0.48292   0.11047   0.00000  Uiso   1.00
C136   C     0.05053   0.51708   0.22286   0.00000  Uiso   1.00
C137   C     0.47673   0.50051   0.16640   0.00000  Uiso   1.00
C138   C     0.02328   0.49949   0.16694   0.00000  Uiso   1.00
C139   C     0.45747   0.51907   0.22182   0.00000  Uiso   1.00
C140   C     0.04253   0.48093   0.11152   0.00000  Uiso   1.00
C141   C     0.46893   0.46422   0.05574   0.00000  Uiso   1.00
C142   C     0.03107   0.53577   0.27760   0.00000  Uiso   1.00
Cu143  Cu    0.25501   0.50579   0.22813   0.00000  Uiso   1.00
Cu144  Cu    0.24500   0.49421   0.10521   0.00000  Uiso   1.00
H145   H     0.39640   0.53334   0.26376   0.00000  Uiso   1.00
H146   H     0.10360   0.46666   0.06958   0.00000  Uiso   1.00
H147   H     0.38210   0.47014   0.06764   0.00000  Uiso   1.00
H148   H     0.11790   0.52986   0.26569   0.00000  Uiso   1.00
H149   H     0.44836   0.45051   0.01257   0.00000  Uiso   1.00
H150   H     0.05164   0.54949   0.32076   0.00000  Uiso   1.00
H151   H     0.02977   0.44862   0.01351   0.00000  Uiso   1.00
H152   H     0.47023   0.55138   0.31983   0.00000  Uiso   1.00
H153   H     0.23955   0.65295   0.09609   0.00000  Uiso   1.00
H154   H     0.26045   0.34705   0.23724   0.00000  Uiso   1.00
N155   N     0.23745   0.48547   0.01284   0.00000  Uiso   1.00
N156   N     0.26256   0.51453   0.32049   0.00000  Uiso   1.00
O157   O     0.25326   0.42871   0.20659   0.00000  Uiso   1.00
O158   O     0.24675   0.57129   0.12674   0.00000  Uiso   1.00
O159   O     0.24480   0.41892   0.10279   0.00000  Uiso   1.00
O160   O     0.25520   0.58108   0.23055   0.00000  Uiso   1.00
O161   O     0.18936   0.50488   0.21857   0.00000  Uiso   1.00
O162   O     0.31065   0.49512   0.11476   0.00000  Uiso   1.00
O163   O     0.18090   0.49510   0.11477   0.00000  Uiso   1.00
O164   O     0.31910   0.50490   0.21857   0.00000  Uiso   1.00
O165   O     0.19802   0.46760   0.31349   0.00000  Uiso   1.00
C166   C     0.18769   0.41583   0.31955   0.00000  Uiso   1.00
H167   H     0.17412   0.41636   0.03076   0.00000  Uiso   1.00
H168   H     0.21747   0.39210   0.31541   0.00000  Uiso   1.00
C169   C     0.15188   0.38869   0.26881   0.00000  Uiso   1.00
H170   H     0.16418   0.38730   0.22318   0.00000  Uiso   1.00
H171   H     0.14346   0.34765   0.27284   0.00000  Uiso   1.00
H172   H     0.12119   0.41067   0.27255   0.00000  Uiso   1.00
O173   O     0.30198   0.53240   0.01984   0.00000  Uiso   1.00
C174   C     0.31232   0.58416   0.01379   0.00000  Uiso   1.00
H175   H     0.28254   0.60791   0.01793   0.00000  Uiso   1.00
H176   H     0.32589   0.58363   0.30258   0.00000  Uiso   1.00
C177   C     0.34813   0.61131   0.06452   0.00000  Uiso   1.00
H178   H     0.37879   0.58930   0.06081   0.00000  Uiso   1.00
H179   H     0.35657   0.65233   0.06047   0.00000  Uiso   1.00
H180   H     0.33581   0.61273   0.11015   0.00000  Uiso   1.00
C181   C     0.74837   0.39991   0.15104   0.00000  Uiso   1.00
C182   C     0.75163   0.60009   0.18229   0.00000  Uiso   1.00
C183   C     0.51526   0.46316   0.05627   0.00000  Uiso   1.00
C184   C     0.98474   0.53684   0.27706   0.00000  Uiso   1.00
C185   C     0.74668   0.34380   0.14248   0.00000  Uiso   1.00
C186   C     0.75332   0.65620   0.19085   0.00000  Uiso   1.00
C187   C     0.66441   0.49938   0.16715   0.00000  Uiso   1.00
C188   C     0.83559   0.50062   0.16618   0.00000  Uiso   1.00
C189   C     0.91120   0.51929   0.22106   0.00000  Uiso   1.00
C190   C     0.58880   0.48071   0.11227   0.00000  Uiso   1.00
C191   C     0.88402   0.50152   0.16563   0.00000  Uiso   1.00
C192   C     0.61598   0.49848   0.16770   0.00000  Uiso   1.00
C193   C     0.90318   0.48391   0.11041   0.00000  Uiso   1.00
C194   C     0.59682   0.51608   0.22292   0.00000  Uiso   1.00
C195   C     0.94947   0.48292   0.11047   0.00000  Uiso   1.00
C196   C     0.55053   0.51708   0.22286   0.00000  Uiso   1.00
C197   C     0.97673   0.50051   0.16640   0.00000  Uiso   1.00
C198   C     0.52328   0.49949   0.16694   0.00000  Uiso   1.00
C199   C     0.95747   0.51907   0.22182   0.00000  Uiso   1.00
C200   C     0.54253   0.48093   0.11152   0.00000  Uiso   1.00
C201   C     0.96893   0.46422   0.05574   0.00000  Uiso   1.00
C202   C     0.53107   0.53577   0.27760   0.00000  Uiso   1.00
Cu203  Cu    0.75501   0.50579   0.22813   0.00000  Uiso   1.00
Cu204  Cu    0.74500   0.49421   0.10521   0.00000  Uiso   1.00
H205   H     0.89640   0.53334   0.26376   0.00000  Uiso   1.00
H206   H     0.60360   0.46666   0.06958   0.00000  Uiso   1.00
H207   H     0.88210   0.47014   0.06764   0.00000  Uiso   1.00
H208   H     0.61790   0.52986   0.26569   0.00000  Uiso   1.00
H209   H     0.94836   0.45051   0.01257   0.00000  Uiso   1.00
H210   H     0.55164   0.54949   0.32076   0.00000  Uiso   1.00
H211   H     0.52977   0.44862   0.01351   0.00000  Uiso   1.00
H212   H     0.97023   0.55138   0.31983   0.00000  Uiso   1.00
H213   H     0.73955   0.65295   0.09609   0.00000  Uiso   1.00
H214   H     0.76045   0.34705   0.23724   0.00000  Uiso   1.00
N215   N     0.73745   0.48547   0.01284   0.00000  Uiso   1.00
N216   N     0.76256   0.51453   0.32049   0.00000  Uiso   1.00
O217   O     0.75326   0.42871   0.20659   0.00000  Uiso   1.00
O218   O     0.74675   0.57129   0.12674   0.00000  Uiso   1.00
O219   O     0.74480   0.41892   0.10279   0.00000  Uiso   1.00
O220   O     0.75520   0.58108   0.23055   0.00000  Uiso   1.00
O221   O     0.68936   0.50488   0.21857   0.00000  Uiso   1.00
O222   O     0.81065   0.49512   0.11476   0.00000  Uiso   1.00
O223   O     0.68090   0.49510   0.11477   0.00000  Uiso   1.00
O224   O     0.81910   0.50490   0.21857   0.00000  Uiso   1.00
O225   O     0.69802   0.46760   0.31349   0.00000  Uiso   1.00
C226   C     0.68769   0.41583   0.31955   0.00000  Uiso   1.00
H227   H     0.67412   0.41636   0.03076   0.00000  Uiso   1.00
H228   H     0.71747   0.39210   0.31541   0.00000  Uiso   1.00
C229   C     0.65188   0.38869   0.26881   0.00000  Uiso   1.00
H230   H     0.66418   0.38730   0.22318   0.00000  Uiso   1.00
H231   H     0.64346   0.34765   0.27284   0.00000  Uiso   1.00
H232   H     0.62119   0.41067   0.27255   0.00000  Uiso   1.00
O233   O     0.80198   0.53240   0.01984   0.00000  Uiso   1.00
C234   C     0.81232   0.58416   0.01379   0.00000  Uiso   1.00
H235   H     0.78254   0.60791   0.01793   0.00000  Uiso   1.00
H236   H     0.82589   0.58363   0.30258   0.00000  Uiso   1.00
C237   C     0.84813   0.61131   0.06452   0.00000  Uiso   1.00
H238   H     0.87879   0.58930   0.06081   0.00000  Uiso   1.00
H239   H     0.85657   0.65233   0.06047   0.00000  Uiso   1.00
H240   H     0.83581   0.61273   0.11015   0.00000  Uiso   1.00
C241   C     0.24837   0.73324   0.15104   0.00000  Uiso   1.00
C242   C     0.25163   0.93343   0.18229   0.00000  Uiso   1.00
C243   C     0.01526   0.79649   0.05627   0.00000  Uiso   1.00
C244   C     0.48474   0.87017   0.27706   0.00000  Uiso   1.00
C245   C     0.24668   0.67713   0.14248   0.00000  Uiso   1.00
C246   C     0.25332   0.98954   0.19085   0.00000  Uiso   1.00
C247   C     0.16441   0.83271   0.16715   0.00000  Uiso   1.00
C248   C     0.33559   0.83396   0.16618   0.00000  Uiso   1.00
C249   C     0.41120   0.85263   0.22106   0.00000  Uiso   1.00
C250   C     0.08880   0.81404   0.11227   0.00000  Uiso   1.00
C251   C     0.38402   0.83485   0.16563   0.00000  Uiso   1.00
C252   C     0.11598   0.83181   0.16770   0.00000  Uiso   1.00
C253   C     0.40318   0.81725   0.11041   0.00000  Uiso   1.00
C254   C     0.09682   0.84942   0.22292   0.00000  Uiso   1.00
C255   C     0.44947   0.81625   0.11047   0.00000  Uiso   1.00
C256   C     0.05053   0.85041   0.22286   0.00000  Uiso   1.00
C257   C     0.47673   0.83385   0.16640   0.00000  Uiso   1.00
C258   C     0.02328   0.83282   0.16694   0.00000  Uiso   1.00
C259   C     0.45747   0.85240   0.22182   0.00000  Uiso   1.00
C260   C     0.04253   0.81426   0.11152   0.00000  Uiso   1.00
C261   C     0.46893   0.79756   0.05574   0.00000  Uiso   1.00
C262   C     0.03107   0.86911   0.27760   0.00000  Uiso   1.00
Cu263  Cu    0.25501   0.83913   0.22813   0.00000  Uiso   1.00
Cu264  Cu    0.24500   0.82754   0.10521   0.00000  Uiso   1.00
H265   H     0.39640   0.86668   0.26376   0.00000  Uiso   1.00
H266   H     0.10360   0.79999   0.06958   0.00000  Uiso   1.00
H267   H     0.38210   0.80348   0.06764   0.00000  Uiso   1.00
H268   H     0.11790   0.86319   0.26569   0.00000  Uiso   1.00
H269   H     0.44836   0.78384   0.01257   0.00000  Uiso   1.00
H270   H     0.05164   0.88282   0.32076   0.00000  Uiso   1.00
H271   H     0.02977   0.78195   0.01351   0.00000  Uiso   1.00
H272   H     0.47023   0.88471   0.31983   0.00000  Uiso   1.00
H273   H     0.23955   0.98628   0.09609   0.00000  Uiso   1.00
H274   H     0.26045   0.68039   0.23724   0.00000  Uiso   1.00
N275   N     0.23745   0.81881   0.01284   0.00000  Uiso   1.00
N276   N     0.26256   0.84786   0.32049   0.00000  Uiso   1.00
O277   O     0.25326   0.76204   0.20659   0.00000  Uiso   1.00
O278   O     0.24675   0.90462   0.12674   0.00000  Uiso   1.00
O279   O     0.24480   0.75226   0.10279   0.00000  Uiso   1.00
O280   O     0.25520   0.91441   0.23055   0.00000  Uiso   1.00
O281   O     0.18936   0.83821   0.21857   0.00000  Uiso   1.00
O282   O     0.31065   0.82845   0.11476   0.00000  Uiso   1.00
O283   O     0.18090   0.82843   0.11477   0.00000  Uiso   1.00
O284   O     0.31910   0.83824   0.21857   0.00000  Uiso   1.00
O285   O     0.19802   0.80093   0.31349   0.00000  Uiso   1.00
C286   C     0.18769   0.74917   0.31955   0.00000  Uiso   1.00
H287   H     0.17412   0.74970   0.03076   0.00000  Uiso   1.00
H288   H     0.21747   0.72543   0.31541   0.00000  Uiso   1.00
C289   C     0.15188   0.72202   0.26881   0.00000  Uiso   1.00
H290   H     0.16418   0.72063   0.22318   0.00000  Uiso   1.00
H291   H     0.14346   0.68098   0.27284   0.00000  Uiso   1.00
H292   H     0.12119   0.74400   0.27255   0.00000  Uiso   1.00
O293   O     0.30198   0.86573   0.01984   0.00000  Uiso   1.00
C294   C     0.31232   0.91750   0.01379   0.00000  Uiso   1.00
H295   H     0.28254   0.94124   0.01793   0.00000  Uiso   1.00
H296   H     0.32589   0.91697   0.30258   0.00000  Uiso   1.00
C297   C     0.34813   0.94464   0.06452   0.00000  Uiso   1.00
H298   H     0.37879   0.92263   0.06081   0.00000  Uiso   1.00
H299   H     0.35657   0.98566   0.06047   0.00000  Uiso   1.00
H300   H     0.33581   0.94607   0.11015   0.00000  Uiso   1.00
C301   C     0.74837   0.73324   0.15104   0.00000  Uiso   1.00
C302   C     0.75163   0.93343   0.18229   0.00000  Uiso   1.00
C303   C     0.51526   0.79649   0.05627   0.00000  Uiso   1.00
C304   C     0.98474   0.87017   0.27706   0.00000  Uiso   1.00
C305   C     0.74668   0.67713   0.14248   0.00000  Uiso   1.00
C306   C     0.75332   0.98954   0.19085   0.00000  Uiso   1.00
C307   C     0.66441   0.83271   0.16715   0.00000  Uiso   1.00
C308   C     0.83559   0.83396   0.16618   0.00000  Uiso   1.00
C309   C     0.91120   0.85263   0.22106   0.00000  Uiso   1.00
C310   C     0.58880   0.81404   0.11227   0.00000  Uiso   1.00
C311   C     0.88402   0.83485   0.16563   0.00000  Uiso   1.00
C312   C     0.61598   0.83181   0.16770   0.00000  Uiso   1.00
C313   C     0.90318   0.81725   0.11041   0.00000  Uiso   1.00
C314   C     0.59682   0.84942   0.22292   0.00000  Uiso   1.00
C315   C     0.94947   0.81625   0.11047   0.00000  Uiso   1.00
C316   C     0.55053   0.85041   0.22286   0.00000  Uiso   1.00
C317   C     0.97673   0.83385   0.16640   0.00000  Uiso   1.00
C318   C     0.52328   0.83282   0.16694   0.00000  Uiso   1.00
C319   C     0.95747   0.85240   0.22182   0.00000  Uiso   1.00
C320   C     0.54253   0.81426   0.11152   0.00000  Uiso   1.00
C321   C     0.96893   0.79756   0.05574   0.00000  Uiso   1.00
C322   C     0.53107   0.86911   0.27760   0.00000  Uiso   1.00
Cu323  Cu    0.75501   0.83913   0.22813   0.00000  Uiso   1.00
Cu324  Cu    0.74500   0.82754   0.10521   0.00000  Uiso   1.00
H325   H     0.89640   0.86668   0.26376   0.00000  Uiso   1.00
H326   H     0.60360   0.79999   0.06958   0.00000  Uiso   1.00
H327   H     0.88210   0.80348   0.06764   0.00000  Uiso   1.00
H328   H     0.61790   0.86319   0.26569   0.00000  Uiso   1.00
H329   H     0.94836   0.78384   0.01257   0.00000  Uiso   1.00
H330   H     0.55164   0.88282   0.32076   0.00000  Uiso   1.00
H331   H     0.52977   0.78195   0.01351   0.00000  Uiso   1.00
H332   H     0.97023   0.88471   0.31983   0.00000  Uiso   1.00
H333   H     0.73955   0.98628   0.09609   0.00000  Uiso   1.00
H334   H     0.76045   0.68039   0.23724   0.00000  Uiso   1.00
N335   N     0.73745   0.81881   0.01284   0.00000  Uiso   1.00
N336   N     0.76256   0.84786   0.32049   0.00000  Uiso   1.00
O337   O     0.75326   0.76204   0.20659   0.00000  Uiso   1.00
O338   O     0.74675   0.90462   0.12674   0.00000  Uiso   1.00
O339   O     0.74480   0.75226   0.10279   0.00000  Uiso   1.00
O340   O     0.75520   0.91441   0.23055   0.00000  Uiso   1.00
O341   O     0.68936   0.83821   0.21857   0.00000  Uiso   1.00
O342   O     0.81065   0.82845   0.11476   0.00000  Uiso   1.00
O343   O     0.68090   0.82843   0.11477   0.00000  Uiso   1.00
O344   O     0.81910   0.83824   0.21857   0.00000  Uiso   1.00
O345   O     0.69802   0.80093   0.31349   0.00000  Uiso   1.00
C346   C     0.68769   0.74917   0.31955   0.00000  Uiso   1.00
H347   H     0.67412   0.74970   0.03076   0.00000  Uiso   1.00
H348   H     0.71747   0.72543   0.31541   0.00000  Uiso   1.00
C349   C     0.65188   0.72202   0.26881   0.00000  Uiso   1.00
H350   H     0.66418   0.72063   0.22318   0.00000  Uiso   1.00
H351   H     0.64346   0.68098   0.27284   0.00000  Uiso   1.00
H352   H     0.62119   0.74400   0.27255   0.00000  Uiso   1.00
O353   O     0.80198   0.86573   0.01984   0.00000  Uiso   1.00
C354   C     0.81232   0.91750   0.01379   0.00000  Uiso   1.00
H355   H     0.78254   0.94124   0.01793   0.00000  Uiso   1.00
H356   H     0.82589   0.91697   0.30258   0.00000  Uiso   1.00
C357   C     0.84813   0.94464   0.06452   0.00000  Uiso   1.00
H358   H     0.87879   0.92263   0.06081   0.00000  Uiso   1.00
H359   H     0.85657   0.98566   0.06047   0.00000  Uiso   1.00
H360   H     0.83581   0.94607   0.11015   0.00000  Uiso   1.00
C361   C     0.24837   0.06657   0.48437   0.00000  Uiso   1.00
C362   C     0.25163   0.26676   0.51563   0.00000  Uiso   1.00
C363   C     0.01526   0.12983   0.38961   0.00000  Uiso   1.00
C364   C     0.48474   0.20351   0.61040   0.00000  Uiso   1.00
C365   C     0.24668   0.01046   0.47582   0.00000  Uiso   1.00
C366   C     0.25332   0.32287   0.52418   0.00000  Uiso   1.00
C367   C     0.16441   0.16605   0.50048   0.00000  Uiso   1.00
C368   C     0.33559   0.16729   0.49952   0.00000  Uiso   1.00
C369   C     0.41120   0.18596   0.55440   0.00000  Uiso   1.00
C370   C     0.08880   0.14738   0.44561   0.00000  Uiso   1.00
C371   C     0.38402   0.16819   0.49897   0.00000  Uiso   1.00
C372   C     0.11598   0.16515   0.50104   0.00000  Uiso   1.00
C373   C     0.40318   0.15058   0.44374   0.00000  Uiso   1.00
C374   C     0.09682   0.18275   0.55625   0.00000  Uiso   1.00
C375   C     0.44947   0.14959   0.44381   0.00000  Uiso   1.00
C376   C     0.05053   0.18375   0.55619   0.00000  Uiso   1.00
C377   C     0.47673   0.16718   0.49973   0.00000  Uiso   1.00
C378   C     0.02328   0.16616   0.50027   0.00000  Uiso   1.00
C379   C     0.45747   0.18574   0.55515   0.00000  Uiso   1.00
C380   C     0.04253   0.14760   0.44485   0.00000  Uiso   1.00
C381   C     0.46893   0.13089   0.38907   0.00000  Uiso   1.00
C382   C     0.03107   0.20244   0.61093   0.00000  Uiso   1.00
Cu383  Cu    0.25501   0.17246   0.56146   0.00000  Uiso   1.00
Cu384  Cu    0.24500   0.16087   0.43854   0.00000  Uiso   1.00
H385   H     0.39640   0.20001   0.59710   0.00000  Uiso   1.00
H386   H     0.10360   0.13333   0.40291   0.00000  Uiso   1.00
H387   H     0.38210   0.13681   0.40097   0.00000  Uiso   1.00
H388   H     0.11790   0.19652   0.59902   0.00000  Uiso   1.00
H389   H     0.44836   0.11718   0.34591   0.00000  Uiso   1.00
H390   H     0.05164   0.21615   0.65409   0.00000  Uiso   1.00
H391   H     0.02977   0.11528   0.34684   0.00000  Uiso   1.00
H392   H     0.47023   0.21804   0.65316   0.00000  Uiso   1.00
H393   H     0.23955   0.31961   0.42943   0.00000  Uiso   1.00
H394   H     0.26045   0.01372   0.57057   0.00000  Uiso   1.00
N395   N     0.23745   0.15214   0.34617   0.00000  Uiso   1.00
N396   N     0.26256   0.18119   0.65383   0.00000  Uiso   1.00
O397   O     0.25326   0.09538   0.53992   0.00000  Uiso   1.00
O398   O     0.24675   0.23796   0.46008   0.00000  Uiso   1.00
O399   O     0.24480   0.08559   0.43612   0.00000  Uiso   1.00
O400   O     0.25520   0.24774   0.56388   0.00000  Uiso   1.00
O401   O     0.18936   0.17155   0.55191   0.00000  Uiso   1.00
O402   O     0.31065   0.16179   0.44809   0.00000  Uiso   1.00
O403   O     0.18090   0.16176   0.44810   0.00000  Uiso   1.00
O404   O     0.31910   0.17157   0.55190   0.00000  Uiso   1.00
O405   O     0.19802   0.13427   0.64682   0.00000  Uiso   1.00
C406   C     0.18769   0.08250   0.65288   0.00000  Uiso   1.00
H407   H     0.17412   0.08303   0.36409   0.00000  Uiso   1.00
H408   H     0.21747   0.05876   0.64874   0.00000  Uiso   1.00
C409   C     0.15188   0.05535   0.60215   0.00000  Uiso   1.00
H410   H     0.16418   0.05396   0.55651   0.00000  Uiso   1.00
H411   H     0.14346   0.01432   0.60617   0.00000  Uiso   1.00
H412   H     0.12119   0.07734   0.60589   0.00000  Uiso   1.00
O413   O     0.30198   0.19906   0.35318   0.00000  Uiso   1.00
C414   C     0.31232   0.25083   0.34712   0.00000  Uiso   1.00
H415   H     0.28254   0.27457   0.35126   0.00000  Uiso   1.00
H416   H     0.32589   0.25030   0.63591   0.00000  Uiso   1.00
C417   C     0.34813   0.27797   0.39786   0.00000  Uiso   1.00
H418   H     0.37879   0.25597   0.39415   0.00000  Uiso   1.00
H419   H     0.35657   0.31900   0.39380   0.00000  Uiso   1.00
H420   H     0.33581   0.27940   0.44349   0.00000  Uiso   1.00
C421   C     0.74837   0.06657   0.48437   0.00000  Uiso   1.00
C422   C     0.75163   0.26676   0.51563   0.00000  Uiso   1.00
C423   C     0.51526   0.12983   0.38961   0.00000  Uiso   1.00
C424   C     0.98474   0.20351   0.61040   0.00000  Uiso   1.00
C425   C     0.74668   0.01046   0.47582   0.00000  Uiso   1.00
C426   C     0.75332   0.32287   0.52418   0.00000  Uiso   1.00
C427   C     0.66441   0.16605   0.50048   0.00000  Uiso   1.00
C428   C     0.83559   0.16729   0.49952   0.00000  Uiso   1.00
C429   C     0.91120   0.18596   0.55440   0.00000  Uiso   1.00
C430   C     0.58880   0.14738   0.44561   0.00000  Uiso   1.00
C431   C     0.88402   0.16819   0.49897   0.00000  Uiso   1.00
C432   C     0.61598   0.16515   0.50104   0.00000  Uiso   1.00
C433   C     0.90318   0.15058   0.44374   0.00000  Uiso   1.00
C434   C     0.59682   0.18275   0.55625   0.00000  Uiso   1.00
C435   C     0.94947   0.14959   0.44381   0.00000  Uiso   1.00
C436   C     0.55053   0.18375   0.55619   0.00000  Uiso   1.00
C437   C     0.97673   0.16718   0.49973   0.00000  Uiso   1.00
C438   C     0.52328   0.16616   0.50027   0.00000  Uiso   1.00
C439   C     0.95747   0.18574   0.55515   0.00000  Uiso   1.00
C440   C     0.54253   0.14760   0.44485   0.00000  Uiso   1.00
C441   C     0.96893   0.13089   0.38907   0.00000  Uiso   1.00
C442   C     0.53107   0.20244   0.61093   0.00000  Uiso   1.00
Cu443  Cu    0.75501   0.17246   0.56146   0.00000  Uiso   1.00
Cu444  Cu    0.74500   0.16087   0.43854   0.00000  Uiso   1.00
H445   H     0.89640   0.20001   0.59710   0.00000  Uiso   1.00
H446   H     0.60360   0.13333   0.40291   0.00000  Uiso   1.00
H447   H     0.88210   0.13681   0.40097   0.00000  Uiso   1.00
H448   H     0.61790   0.19652   0.59902   0.00000  Uiso   1.00
H449   H     0.94836   0.11718   0.34591   0.00000  Uiso   1.00
H450   H     0.55164   0.21615   0.65409   0.00000  Uiso   1.00
H451   H     0.52977   0.11528   0.34684   0.00000  Uiso   1.00
H452   H     0.97023   0.21804   0.65316   0.00000  Uiso   1.00
H453   H     0.73955   0.31961   0.42943   0.00000  Uiso   1.00
H454   H     0.76045   0.01372   0.57057   0.00000  Uiso   1.00
N455   N     0.73745   0.15214   0.34617   0.00000  Uiso   1.00
N456   N     0.76256   0.18119   0.65383   0.00000  Uiso   1.00
O457   O     0.75326   0.09538   0.53992   0.00000  Uiso   1.00
O458   O     0.74675   0.23796   0.46008   0.00000  Uiso   1.00
O459   O     0.74480   0.08559   0.43612   0.00000  Uiso   1.00
O460   O     0.75520   0.24774   0.56388   0.00000  Uiso   1.00
O461   O     0.68936   0.17155   0.55191   0.00000  Uiso   1.00
O462   O     0.81065   0.16179   0.44809   0.00000  Uiso   1.00
O463   O     0.68090   0.16176   0.44810   0.00000  Uiso   1.00
O464   O     0.81910   0.17157   0.55190   0.00000  Uiso   1.00
O465   O     0.69802   0.13427   0.64682   0.00000  Uiso   1.00
C466   C     0.68769   0.08250   0.65288   0.00000  Uiso   1.00
H467   H     0.67412   0.08303   0.36409   0.00000  Uiso   1.00
H468   H     0.71747   0.05876   0.64874   0.00000  Uiso   1.00
C469   C     0.65188   0.05535   0.60215   0.00000  Uiso   1.00
H470   H     0.66418   0.05396   0.55651   0.00000  Uiso   1.00
H471   H     0.64346   0.01432   0.60617   0.00000  Uiso   1.00
H472   H     0.62119   0.07734   0.60589   0.00000  Uiso   1.00
O473   O     0.80198   0.19906   0.35318   0.00000  Uiso   1.00
C474   C     0.81232   0.25083   0.34712   0.00000  Uiso   1.00
H475   H     0.78254   0.27457   0.35126   0.00000  Uiso   1.00
H476   H     0.82589   0.25030   0.63591   0.00000  Uiso   1.00
C477   C     0.84813   0.27797   0.39786   0.00000  Uiso   1.00
H478   H     0.87879   0.25597   0.39415   0.00000  Uiso   1.00
H479   H     0.85657   0.31900   0.39380   0.00000  Uiso   1.00
H480   H     0.83581   0.27940   0.44349   0.00000  Uiso   1.00
C481   C     0.24837   0.39991   0.48437   0.00000  Uiso   1.00
C482   C     0.25163   0.60009   0.51563   0.00000  Uiso   1.00
C483   C     0.01526   0.46316   0.38961   0.00000  Uiso   1.00
C484   C     0.48474   0.53684   0.61040   0.00000  Uiso   1.00
C485   C     0.24668   0.34380   0.47582   0.00000  Uiso   1.00
C486   C     0.25332   0.65620   0.52418   0.00000  Uiso   1.00
C487   C     0.16441   0.49938   0.50048   0.00000  Uiso   1.00
C488   C     0.33559   0.50062   0.49952   0.00000  Uiso   1.00
C489   C     0.41120   0.51929   0.55440   0.00000  Uiso   1.00
C490   C     0.08880   0.48071   0.44561   0.00000  Uiso   1.00
C491   C     0.38402   0.50152   0.49897   0.00000  Uiso   1.00
C492   C     0.11598   0.49848   0.50104   0.00000  Uiso   1.00
C493   C     0.40318   0.48391   0.44374   0.00000  Uiso   1.00
C494   C     0.09682   0.51608   0.55625   0.00000  Uiso   1.00
C495   C     0.44947   0.48292   0.44381   0.00000  Uiso   1.00
C496   C     0.05053   0.51708   0.55619   0.00000  Uiso   1.00
C497   C     0.47673   0.50051   0.49973   0.00000  Uiso   1.00
C498   C     0.02328   0.49949   0.50027   0.00000  Uiso   1.00
C499   C     0.45747   0.51907   0.55515   0.00000  Uiso   1.00
C500   C     0.04253   0.48093   0.44485   0.00000  Uiso   1.00
C501   C     0.46893   0.46422   0.38907   0.00000  Uiso   1.00
C502   C     0.03107   0.53577   0.61093   0.00000  Uiso   1.00
Cu503  Cu    0.25501   0.50579   0.56146   0.00000  Uiso   1.00
Cu504  Cu    0.24500   0.49421   0.43854   0.00000  Uiso   1.00
H505   H     0.39640   0.53334   0.59710   0.00000  Uiso   1.00
H506   H     0.10360   0.46666   0.40291   0.00000  Uiso   1.00
H507   H     0.38210   0.47014   0.40097   0.00000  Uiso   1.00
H508   H     0.11790   0.52986   0.59902   0.00000  Uiso   1.00
H509   H     0.44836   0.45051   0.34591   0.00000  Uiso   1.00
H510   H     0.05164   0.54949   0.65409   0.00000  Uiso   1.00
H511   H     0.02977   0.44862   0.34684   0.00000  Uiso   1.00
H512   H     0.47023   0.55138   0.65316   0.00000  Uiso   1.00
H513   H     0.23955   0.65295   0.42943   0.00000  Uiso   1.00
H514   H     0.26045   0.34705   0.57057   0.00000  Uiso   1.00
N515   N     0.23745   0.48547   0.34617   0.00000  Uiso   1.00
N516   N     0.26256   0.51453   0.65383   0.00000  Uiso   1.00
O517   O     0.25326   0.42871   0.53992   0.00000  Uiso   1.00
O518   O     0.24675   0.57129   0.46008   0.00000  Uiso   1.00
O519   O     0.24480   0.41892   0.43612   0.00000  Uiso   1.00
O520   O     0.25520   0.58108   0.56388   0.00000  Uiso   1.00
O521   O     0.18936   0.50488   0.55191   0.00000  Uiso   1.00
O522   O     0.31065   0.49512   0.44809   0.00000  Uiso   1.00
O523   O     0.18090   0.49510   0.44810   0.00000  Uiso   1.00
O524   O     0.31910   0.50490   0.55190   0.00000  Uiso   1.00
O525   O     0.19802   0.46760   0.64682   0.00000  Uiso   1.00
C526   C     0.18769   0.41583   0.65288   0.00000  Uiso   1.00
H527   H     0.17412   0.41636   0.36409   0.00000  Uiso   1.00
H528   H     0.21747   0.39210   0.64874   0.00000  Uiso   1.00
C529   C     0.15188   0.38869   0.60215   0.00000  Uiso   1.00
H530   H     0.16418   0.38730   0.55651   0.00000  Uiso   1.00
H531   H     0.14346   0.34765   0.60617   0.00000  Uiso   1.00
H532   H     0.12119   0.41067   0.60589   0.00000  Uiso   1.00
O533   O     0.30198   0.53240   0.35318   0.00000  Uiso   1.00
C534   C     0.31232   0.58416   0.34712   0.00000  Uiso   1.00
H535   H     0.28254   0.60791   0.35126   0.00000  Uiso   1.00
H536   H     0.32589   0.58363   0.63591   0.00000  Uiso   1.00
C537   C     0.34813   0.61131   0.39786   0.00000  Uiso   1.00
H538   H     0.37879   0.58930   0.39415   0.00000  Uiso   1.00
H539   H     0.35657   0.65233   0.39380   0.00000  Uiso   1.00
H540   H     0.33581   0.61273   0.44349   0.00000  Uiso   1.00
C541   C     0.74837   0.39991   0.48437   0.00000  Uiso   1.00
C542   C     0.75163   0.60009   0.51563   0.00000  Uiso   1.00
C543   C     0.51526   0.46316   0.38961   0.00000  Uiso   1.00
C544   C     0.98474   0.53684   0.61040   0.00000  Uiso   1.00
C545   C     0.74668   0.34380   0.47582   0.00000  Uiso   1.00
C546   C     0.75332   0.65620   0.52418   0.00000  Uiso   1.00
C547   C     0.66441   0.49938   0.50048   0.00000  Uiso   1.00
C548   C     0.83559   0.50062   0.49952   0.00000  Uiso   1.00
C549   C     0.91120   0.51929   0.55440   0.00000  Uiso   1.00
C550   C     0.58880   0.48071   0.44561   0.00000  Uiso   1.00
C551   C     0.88402   0.50152   0.49897   0.00000  Uiso   1.00
C552   C     0.61598   0.49848   0.50104   0.00000  Uiso   1.00
C553   C     0.90318   0.48391   0.44374   0.00000  Uiso   1.00
C554   C     0.59682   0.51608   0.55625   0.00000  Uiso   1.00
C555   C     0.94947   0.48292   0.44381   0.00000  Uiso   1.00
C556   C     0.55053   0.51708   0.55619   0.00000  Uiso   1.00
C557   C     0.97673   0.50051   0.49973   0.00000  Uiso   1.00
C558   C     0.52328   0.49949   0.50027   0.00000  Uiso   1.00
C559   C     0.95747   0.51907   0.55515   0.00000  Uiso   1.00
C560   C     0.54253   0.48093   0.44485   0.00000  Uiso   1.00
C561   C     0.96893   0.46422   0.38907   0.00000  Uiso   1.00
C562   C     0.53107   0.53577   0.61093   0.00000  Uiso   1.00
Cu563  Cu    0.75501   0.50579   0.56146   0.00000  Uiso   1.00
Cu564  Cu    0.74500   0.49421   0.43854   0.00000  Uiso   1.00
H565   H     0.89640   0.53334   0.59710   0.00000  Uiso   1.00
H566   H     0.60360   0.46666   0.40291   0.00000  Uiso   1.00
H567   H     0.88210   0.47014   0.40097   0.00000  Uiso   1.00
H568   H     0.61790   0.52986   0.59902   0.00000  Uiso   1.00
H569   H     0.94836   0.45051   0.34591   0.00000  Uiso   1.00
H570   H     0.55164   0.54949   0.65409   0.00000  Uiso   1.00
H571   H     0.52977   0.44862   0.34684   0.00000  Uiso   1.00
H572   H     0.97023   0.55138   0.65316   0.00000  Uiso   1.00
H573   H     0.73955   0.65295   0.42943   0.00000  Uiso   1.00
H574   H     0.76045   0.34705   0.57057   0.00000  Uiso   1.00
N575   N     0.73745   0.48547   0.34617   0.00000  Uiso   1.00
N576   N     0.76256   0.51453   0.65383   0.00000  Uiso   1.00
O577   O     0.75326   0.42871   0.53992   0.00000  Uiso   1.00
O578   O     0.74675   0.57129   0.46008   0.00000  Uiso   1.00
O579   O     0.74480   0.41892   0.43612   0.00000  Uiso   1.00
O580   O     0.75520   0.58108   0.56388   0.00000  Uiso   1.00
O581   O     0.68936   0.50488   0.55191   0.00000  Uiso   1.00
O582   O     0.81065   0.49512   0.44809   0.00000  Uiso   1.00
O583   O     0.68090   0.49510   0.44810   0.00000  Uiso   1.00
O584   O     0.81910   0.50490   0.55190   0.00000  Uiso   1.00
O585   O     0.69802   0.46760   0.64682   0.00000  Uiso   1.00
C586   C     0.68769   0.41583   0.65288   0.00000  Uiso   1.00
H587   H     0.67412   0.41636   0.36409   0.00000  Uiso   1.00
H588   H     0.71747   0.39210   0.64874   0.00000  Uiso   1.00
C589   C     0.65188   0.38869   0.60215   0.00000  Uiso   1.00
H590   H     0.66418   0.38730   0.55651   0.00000  Uiso   1.00
H591   H     0.64346   0.34765   0.60617   0.00000  Uiso   1.00
H592   H     0.62119   0.41067   0.60589   0.00000  Uiso   1.00
O593   O     0.80198   0.53240   0.35318   0.00000  Uiso   1.00
C594   C     0.81232   0.58416   0.34712   0.00000  Uiso   1.00
H595   H     0.78254   0.60791   0.35126   0.00000  Uiso   1.00
H596   H     0.82589   0.58363   0.63591   0.00000  Uiso   1.00
C597   C     0.84813   0.61131   0.39786   0.00000  Uiso   1.00
H598   H     0.87879   0.58930   0.39415   0.00000  Uiso   1.00
H599   H     0.85657   0.65233   0.39380   0.00000  Uiso   1.00
H600   H     0.83581   0.61273   0.44349   0.00000  Uiso   1.00
C601   C     0.24837   0.73324   0.48437   0.00000  Uiso   1.00
C602   C     0.25163   0.93343   0.51563   0.00000  Uiso   1.00
C603   C     0.01526   0.79649   0.38961   0.00000  Uiso   1.00
C604   C     0.48474   0.87017   0.61040   0.00000  Uiso   1.00
C605   C     0.24668   0.67713   0.47582   0.00000  Uiso   1.00
C606   C     0.25332   0.98954   0.52418   0.00000  Uiso   1.00
C607   C     0.16441   0.83271   0.50048   0.00000  Uiso   1.00
C608   C     0.33559   0.83396   0.49952   0.00000  Uiso   1.00
C609   C     0.41120   0.85263   0.55440   0.00000  Uiso   1.00
C610   C     0.08880   0.81404   0.44561   0.00000  Uiso   1.00
C611   C     0.38402   0.83485   0.49897   0.00000  Uiso   1.00
C612   C     0.11598   0.83181   0.50104   0.00000  Uiso   1.00
C613   C     0.40318   0.81725   0.44374   0.00000  Uiso   1.00
C614   C     0.09682   0.84942   0.55625   0.00000  Uiso   1.00
C615   C     0.44947   0.81625   0.44381   0.00000  Uiso   1.00
C616   C     0.05053   0.85041   0.55619   0.00000  Uiso   1.00
C617   C     0.47673   0.83385   0.49973   0.00000  Uiso   1.00
C618   C     0.02328   0.83282   0.50027   0.00000  Uiso   1.00
C619   C     0.45747   0.85240   0.55515   0.00000  Uiso   1.00
C620   C     0.04253   0.81426   0.44485   0.00000  Uiso   1.00
C621   C     0.46893   0.79756   0.38907   0.00000  Uiso   1.00
C622   C     0.03107   0.86911   0.61093   0.00000  Uiso   1.00
Cu623  Cu    0.25501   0.83913   0.56146   0.00000  Uiso   1.00
Cu624  Cu    0.24500   0.82754   0.43854   0.00000  Uiso   1.00
H625   H     0.39640   0.86668   0.59710   0.00000  Uiso   1.00
H626   H     0.10360   0.79999   0.40291   0.00000  Uiso   1.00
H627   H     0.38210   0.80348   0.40097   0.00000  Uiso   1.00
H628   H     0.11790   0.86319   0.59902   0.00000  Uiso   1.00
H629   H     0.44836   0.78384   0.34591   0.00000  Uiso   1.00
H630   H     0.05164   0.88282   0.65409   0.00000  Uiso   1.00
H631   H     0.02977   0.78195   0.34684   0.00000  Uiso   1.00
H632   H     0.47023   0.88471   0.65316   0.00000  Uiso   1.00
H633   H     0.23955   0.98628   0.42943   0.00000  Uiso   1.00
H634   H     0.26045   0.68039   0.57057   0.00000  Uiso   1.00
N635   N     0.23745   0.81881   0.34617   0.00000  Uiso   1.00
N636   N     0.26256   0.84786   0.65383   0.00000  Uiso   1.00
O637   O     0.25326   0.76204   0.53992   0.00000  Uiso   1.00
O638   O     0.24675   0.90462   0.46008   0.00000  Uiso   1.00
O639   O     0.24480   0.75226   0.43612   0.00000  Uiso   1.00
O640   O     0.25520   0.91441   0.56388   0.00000  Uiso   1.00
O641   O     0.18936   0.83821   0.55191   0.00000  Uiso   1.00
O642   O     0.31065   0.82845   0.44809   0.00000  Uiso   1.00
O643   O     0.18090   0.82843   0.44810   0.00000  Uiso   1.00
O644   O     0.31910   0.83824   0.55190   0.00000  Uiso   1.00
O645   O     0.19802   0.80093   0.64682   0.00000  Uiso   1.00
C646   C     0.18769   0.74917   0.65288   0.00000  Uiso   1.00
H647   H     0.17412   0.74970   0.36409   0.00000  Uiso   1.00
H648   H     0.21747   0.72543   0.64874   0.00000  Uiso   1.00
C649   C     0.15188   0.72202   0.60215   0.00000  Uiso   1.00
H650   H     0.16418   0.72063   0.55651   0.00000  Uiso   1.00
H651   H     0.14346   0.68098   0.60617   0.00000  Uiso   1.00
H652   H     0.12119   0.74400   0.60589   0.00000  Uiso   1.00
O653   O     0.30198   0.86573   0.35318   0.00000  Uiso   1.00
C654   C     0.31232   0.91750   0.34712   0.00000  Uiso   1.00
H655   H     0.28254   0.94124   0.35126   0.00000  Uiso   1.00
H656   H     0.32589   0.91697   0.63591   0.00000  Uiso   1.00
C657   C     0.34813   0.94464   0.39786   0.00000  Uiso   1.00
H658   H     0.37879   0.92263   0.39415   0.00000  Uiso   1.00
H659   H     0.35657   0.98566   0.39380   0.00000  Uiso   1.00
H660   H     0.33581   0.94607   0.44349   0.00000  Uiso   1.00
C661   C     0.74837   0.73324   0.48437   0.00000  Uiso   1.00
C662   C     0.75163   0.93343   0.51563   0.00000  Uiso   1.00
C663   C     0.51526   0.79649   0.38961   0.00000  Uiso   1.00
C664   C     0.98474   0.87017   0.61040   0.00000  Uiso   1.00
C665   C     0.74668   0.67713   0.47582   0.00000  Uiso   1.00
C666   C     0.75332   0.98954   0.52418   0.00000  Uiso   1.00
C667   C     0.66441   0.83271   0.50048   0.00000  Uiso   1.00
C668   C     0.83559   0.83396   0.49952   0.00000  Uiso   1.00
C669   C     0.91120   0.85263   0.55440   0.00000  Uiso   1.00
C670   C     0.58880   0.81404   0.44561   0.00000  Uiso   1.00
C671   C     0.88402   0.83485   0.49897   0.00000  Uiso   1.00
C672   C     0.61598   0.83181   0.50104   0.00000  Uiso   1.00
C673   C     0.90318   0.81725   0.44374   0.00000  Uiso   1.00
C674   C     0.59682   0.84942   0.55625   0.00000  Uiso   1.00
C675   C     0.94947   0.81625   0.44381   0.00000  Uiso   1.00
C676   C     0.55053   0.85041   0.55619   0.00000  Uiso   1.00
C677   C     0.97673   0.83385   0.49973   0.00000  Uiso   1.00
C678   C     0.52328   0.83282   0.50027   0.00000  Uiso   1.00
C679   C     0.95747   0.85240   0.55515   0.00000  Uiso   1.00
C680   C     0.54253   0.81426   0.44485   0.00000  Uiso   1.00
C681   C     0.96893   0.79756   0.38907   0.00000  Uiso   1.00
C682   C     0.53107   0.86911   0.61093   0.00000  Uiso   1.00
Cu683  Cu    0.75501   0.83913   0.56146   0.00000  Uiso   1.00
Cu684  Cu    0.74500   0.82754   0.43854   0.00000  Uiso   1.00
H685   H     0.89640   0.86668   0.59710   0.00000  Uiso   1.00
H686   H     0.60360   0.79999   0.40291   0.00000  Uiso   1.00
H687   H     0.88210   0.80348   0.40097   0.00000  Uiso   1.00
H688   H     0.61790   0.86319   0.59902   0.00000  Uiso   1.00
H689   H     0.94836   0.78384   0.34591   0.00000  Uiso   1.00
H690   H     0.55164   0.88282   0.65409   0.00000  Uiso   1.00
H691   H     0.52977   0.78195   0.34684   0.00000  Uiso   1.00
H692   H     0.97023   0.88471   0.65316   0.00000  Uiso   1.00
H693   H     0.73955   0.98628   0.42943   0.00000  Uiso   1.00
H694   H     0.76045   0.68039   0.57057   0.00000  Uiso   1.00
N695   N     0.73745   0.81881   0.34617   0.00000  Uiso   1.00
N696   N     0.76256   0.84786   0.65383   0.00000  Uiso   1.00
O697   O     0.75326   0.76204   0.53992   0.00000  Uiso   1.00
O698   O     0.74675   0.90462   0.46008   0.00000  Uiso   1.00
O699   O     0.74480   0.75226   0.43612   0.00000  Uiso   1.00
O700   O     0.75520   0.91441   0.56388   0.00000  Uiso   1.00
O701   O     0.68936   0.83821   0.55191   0.00000  Uiso   1.00
O702   O     0.81065   0.82845   0.44809   0.00000  Uiso   1.00
O703   O     0.68090   0.82843   0.44810   0.00000  Uiso   1.00
O704   O     0.81910   0.83824   0.55190   0.00000  Uiso   1.00
O705   O     0.69802   0.80093   0.64682   0.00000  Uiso   1.00
C706   C     0.68769   0.74917   0.65288   0.00000  Uiso   1.00
H707   H     0.67412   0.74970   0.36409   0.00000  Uiso   1.00
H708   H     0.71747   0.72543   0.64874   0.00000  Uiso   1.00
C709   C     0.65188   0.72202   0.60215   0.00000  Uiso   1.00
H710   H     0.66418   0.72063   0.55651   0.00000  Uiso   1.00
H711   H     0.64346   0.68098   0.60617   0.00000  Uiso   1.00
H712   H     0.62119   0.74400   0.60589   0.00000  Uiso   1.00
O713   O     0.80198   0.86573   0.35318   0.00000  Uiso   1.00
C714   C     0.81232   0.91750   0.34712   0.00000  Uiso   1.00
H715   H     0.78254   0.94124   0.35126   0.00000  Uiso   1.00
H716   H     0.82589   0.91697   0.63591   0.00000  Uiso   1.00
C717   C     0.84813   0.94464   0.39786   0.00000  Uiso   1.00
H718   H     0.87879   0.92263   0.39415   0.00000  Uiso   1.00
H719   H     0.85657   0.98566   0.39380   0.00000  Uiso   1.00
H720   H     0.83581   0.94607   0.44349   0.00000  Uiso   1.00
C721   C     0.24837   0.06657   0.81771   0.00000  Uiso   1.00
C722   C     0.25163   0.26676   0.84896   0.00000  Uiso   1.00
C723   C     0.01526   0.12983   0.72294   0.00000  Uiso   1.00
C724   C     0.48474   0.20351   0.94373   0.00000  Uiso   1.00
C725   C     0.24668   0.01046   0.80915   0.00000  Uiso   1.00
C726   C     0.25332   0.32287   0.85752   0.00000  Uiso   1.00
C727   C     0.16441   0.16605   0.83382   0.00000  Uiso   1.00
C728   C     0.33559   0.16729   0.83285   0.00000  Uiso   1.00
C729   C     0.41120   0.18596   0.88773   0.00000  Uiso   1.00
C730   C     0.08880   0.14738   0.77894   0.00000  Uiso   1.00
C731   C     0.38402   0.16819   0.83230   0.00000  Uiso   1.00
C732   C     0.11598   0.16515   0.83437   0.00000  Uiso   1.00
C733   C     0.40318   0.15058   0.77708   0.00000  Uiso   1.00
C734   C     0.09682   0.18275   0.88959   0.00000  Uiso   1.00
C735   C     0.44947   0.14959   0.77714   0.00000  Uiso   1.00
C736   C     0.05053   0.18375   0.88953   0.00000  Uiso   1.00
C737   C     0.47673   0.16718   0.83307   0.00000  Uiso   1.00
C738   C     0.02328   0.16616   0.83360   0.00000  Uiso   1.00
C739   C     0.45747   0.18574   0.88848   0.00000  Uiso   1.00
C740   C     0.04253   0.14760   0.77819   0.00000  Uiso   1.00
C741   C     0.46893   0.13089   0.72240   0.00000  Uiso   1.00
C742   C     0.03107   0.20244   0.94426   0.00000  Uiso   1.00
Cu743  Cu    0.25501   0.17246   0.89479   0.00000  Uiso   1.00
Cu744  Cu    0.24500   0.16087   0.77187   0.00000  Uiso   1.00
H745   H     0.39640   0.20001   0.93043   0.00000  Uiso   1.00
H746   H     0.10360   0.13333   0.73624   0.00000  Uiso   1.00
H747   H     0.38210   0.13681   0.73431   0.00000  Uiso   1.00
H748   H     0.11790   0.19652   0.93235   0.00000  Uiso   1.00
H749   H     0.44836   0.11718   0.67924   0.00000  Uiso   1.00
H750   H     0.05164   0.21615   0.98742   0.00000  Uiso   1.00
H751   H     0.02977   0.11528   0.68017   0.00000  Uiso   1.00
H752   H     0.47023   0.21804   0.98649   0.00000  Uiso   1.00
H753   H     0.23955   0.31961   0.76276   0.00000  Uiso   1.00
H754   H     0.26045   0.01372   0.90391   0.00000  Uiso   1.00
N755   N     0.23745   0.15214   0.67951   0.00000  Uiso   1.00
N756   N     0.26256   0.18119   0.98716   0.00000  Uiso   1.00
O757   O     0.25326   0.09538   0.87326   0.00000  Uiso   1.00
O758   O     0.24675   0.23796   0.79341   0.00000  Uiso   1.00
O759   O     0.24480   0.08559   0.76945   0.00000  Uiso   1.00
O760   O     0.25520   0.24774   0.89721   0.00000  Uiso   1.00
O761   O     0.18936   0.17155   0.88524   0.00000  Uiso   1.00
O762   O     0.31065   0.16179   0.78143   0.00000  Uiso   1.00
O763   O     0.18090   0.16176   0.78143   0.00000  Uiso   1.00
O764   O     0.31910   0.17157   0.88523   0.00000  Uiso   1.00
O765   O     0.19802   0.13427   0.98016   0.00000  Uiso   1.00
C766   C     0.18769   0.08250   0.98622   0.00000  Uiso   1.00
H767   H     0.17412   0.08303   0.69742   0.00000  Uiso   1.00
H768   H     0.21747   0.05876   0.98207   0.00000  Uiso   1.00
C769   C     0.15188   0.05535   0.93548   0.00000  Uiso   1.00
H770   H     0.16418   0.05396   0.88984   0.00000  Uiso   1.00
H771   H     0.14346   0.01432   0.93951   0.00000  Uiso   1.00
H772   H     0.12119   0.07734   0.93922   0.00000  Uiso   1.00
O773   O     0.30198   0.19906   0.68651   0.00000  Uiso   1.00
C774   C     0.31232   0.25083   0.68045   0.00000  Uiso   1.00
H775   H     0.28254   0.27457   0.68459   0.00000  Uiso   1.00
H776   H     0.32589   0.25030   0.96925   0.00000  Uiso   1.00
C777   C     0.34813   0.27797   0.73119   0.00000  Uiso   1.00
H778   H     0.37879   0.25597   0.72748   0.00000  Uiso   1.00
H779   H     0.35657   0.31900   0.72714   0.00000  Uiso   1.00
H780   H     0.33581   0.27940   0.77682   0.00000  Uiso   1.00
C781   C     0.74837   0.06657   0.81771   0.00000  Uiso   1.00
C782   C     0.75163   0.26676   0.84896   0.00000  Uiso   1.00
C783   C     0.51526   0.12983   0.72294   0.00000  Uiso   1.00
C784   C     0.98474   0.20351   0.94373   0.00000  Uiso   1.00
C785   C     0.74668   0.01046   0.80915   0.00000  Uiso   1.00
C786   C     0.75332   0.32287   0.85752   0.00000  Uiso   1.00
C787   C     0.66441   0.16605   0.83382   0.00000  Uiso   1.00
C788   C     0.83559   0.16729   0.83285   0.00000  Uiso   1.00
C789   C     0.91120   0.18596   0.88773   0.00000  Uiso   1.00
C790   C     0.58880   0.14738   0.77894   0.00000  Uiso   1.00
C791   C     0.88402   0.16819   0.83230   0.00000  Uiso   1.00
C792   C     0.61598   0.16515   0.83437   0.00000  Uiso   1.00
C793   C     0.90318   0.15058   0.77708   0.00000  Uiso   1.00
C794   C     0.59682   0.18275   0.88959   0.00000  Uiso   1.00
C795   C     0.94947   0.14959   0.77714   0.00000  Uiso   1.00
C796   C     0.55053   0.18375   0.88953   0.00000  Uiso   1.00
C797   C     0.97673   0.16718   0.83307   0.00000  Uiso   1.00
C798   C     0.52328   0.16616   0.83360   0.00000  Uiso   1.00
C799   C     0.95747   0.18574   0.88848   0.00000  Uiso   1.00
C800   C     0.54253   0.14760   0.77819   0.00000  Uiso   1.00
C801   C     0.96893   0.13089   0.72240   0.00000  Uiso   1.00
C802   C     0.53107   0.20244   0.94426   0.00000  Uiso   1.00
Cu803  Cu    0.75501   0.17246   0.89479   0.00000  Uiso   1.00
Cu804  Cu    0.74500   0.16087   0.77187   0.00000  Uiso   1.00
H805   H     0.89640   0.20001   0.93043   0.00000  Uiso   1.00
H806   H     0.60360   0.13333   0.73624   0.00000  Uiso   1.00
H807   H     0.88210   0.13681   0.73431   0.00000  Uiso   1.00
H808   H     0.61790   0.19652   0.93235   0.00000  Uiso   1.00
H809   H     0.94836   0.11718   0.67924   0.00000  Uiso   1.00
H810   H     0.55164   0.21615   0.98742   0.00000  Uiso   1.00
H811   H     0.52977   0.11528   0.68017   0.00000  Uiso   1.00
H812   H     0.97023   0.21804   0.98649   0.00000  Uiso   1.00
H813   H     0.73955   0.31961   0.76276   0.00000  Uiso   1.00
H814   H     0.76045   0.01372   0.90391   0.00000  Uiso   1.00
N815   N     0.73745   0.15214   0.67951   0.00000  Uiso   1.00
N816   N     0.76256   0.18119   0.98716   0.00000  Uiso   1.00
O817   O     0.75326   0.09538   0.87326   0.00000  Uiso   1.00
O818   O     0.74675   0.23796   0.79341   0.00000  Uiso   1.00
O819   O     0.74480   0.08559   0.76945   0.00000  Uiso   1.00
O820   O     0.75520   0.24774   0.89721   0.00000  Uiso   1.00
O821   O     0.68936   0.17155   0.88524   0.00000  Uiso   1.00
O822   O     0.81065   0.16179   0.78143   0.00000  Uiso   1.00
O823   O     0.68090   0.16176   0.78143   0.00000  Uiso   1.00
O824   O     0.81910   0.17157   0.88523   0.00000  Uiso   1.00
O825   O     0.69802   0.13427   0.98016   0.00000  Uiso   1.00
C826   C     0.68769   0.08250   0.98622   0.00000  Uiso   1.00
H827   H     0.67412   0.08303   0.69742   0.00000  Uiso   1.00
H828   H     0.71747   0.05876   0.98207   0.00000  Uiso   1.00
C829   C     0.65188   0.05535   0.93548   0.00000  Uiso   1.00
H830   H     0.66418   0.05396   0.88984   0.00000  Uiso   1.00
H831   H     0.64346   0.01432   0.93951   0.00000  Uiso   1.00
H832   H     0.62119   0.07734   0.93922   0.00000  Uiso   1.00
O833   O     0.80198   0.19906   0.68651   0.00000  Uiso   1.00
C834   C     0.81232   0.25083   0.68045   0.00000  Uiso   1.00
H835   H     0.78254   0.27457   0.68459   0.00000  Uiso   1.00
H836   H     0.82589   0.25030   0.96925   0.00000  Uiso   1.00
C837   C     0.84813   0.27797   0.73119   0.00000  Uiso   1.00
H838   H     0.87879   0.25597   0.72748   0.00000  Uiso   1.00
H839   H     0.85657   0.31900   0.72714   0.00000  Uiso   1.00
H840   H     0.83581   0.27940   0.77682   0.00000  Uiso   1.00
C841   C     0.24837   0.39991   0.81771   0.00000  Uiso   1.00
C842   C     0.25163   0.60009   0.84896   0.00000  Uiso   1.00
C843   C     0.01526   0.46316   0.72294   0.00000  Uiso   1.00
C844   C     0.48474   0.53684   0.94373   0.00000  Uiso   1.00
C845   C     0.24668   0.34380   0.80915   0.00000  Uiso   1.00
C846   C     0.25332   0.65620   0.85752   0.00000  Uiso   1.00
C847   C     0.16441   0.49938   0.83382   0.00000  Uiso   1.00
C848   C     0.33559   0.50062   0.83285   0.00000  Uiso   1.00
C849   C     0.41120   0.51929   0.88773   0.00000  Uiso   1.00
C850   C     0.08880   0.48071   0.77894   0.00000  Uiso   1.00
C851   C     0.38402   0.50152   0.83230   0.00000  Uiso   1.00
C852   C     0.11598   0.49848   0.83437   0.00000  Uiso   1.00
C853   C     0.40318   0.48391   0.77708   0.00000  Uiso   1.00
C854   C     0.09682   0.51608   0.88959   0.00000  Uiso   1.00
C855   C     0.44947   0.48292   0.77714   0.00000  Uiso   1.00
C856   C     0.05053   0.51708   0.88953   0.00000  Uiso   1.00
C857   C     0.47673   0.50051   0.83307   0.00000  Uiso   1.00
C858   C     0.02328   0.49949   0.83360   0.00000  Uiso   1.00
C859   C     0.45747   0.51907   0.88848   0.00000  Uiso   1.00
C860   C     0.04253   0.48093   0.77819   0.00000  Uiso   1.00
C861   C     0.46893   0.46422   0.72240   0.00000  Uiso   1.00
C862   C     0.03107   0.53577   0.94426   0.00000  Uiso   1.00
Cu863  Cu    0.25501   0.50579   0.89479   0.00000  Uiso   1.00
Cu864  Cu    0.24500   0.49421   0.77187   0.00000  Uiso   1.00
H865   H     0.39640   0.53334   0.93043   0.00000  Uiso   1.00
H866   H     0.10360   0.46666   0.73624   0.00000  Uiso   1.00
H867   H     0.38210   0.47014   0.73431   0.00000  Uiso   1.00
H868   H     0.11790   0.52986   0.93235   0.00000  Uiso   1.00
H869   H     0.44836   0.45051   0.67924   0.00000  Uiso   1.00
H870   H     0.05164   0.54949   0.98742   0.00000  Uiso   1.00
H871   H     0.02977   0.44862   0.68017   0.00000  Uiso   1.00
H872   H     0.47023   0.55138   0.98649   0.00000  Uiso   1.00
H873   H     0.23955   0.65295   0.76276   0.00000  Uiso   1.00
H874   H     0.26045   0.34705   0.90391   0.00000  Uiso   1.00
N875   N     0.23745   0.48547   0.67951   0.00000  Uiso   1.00
N876   N     0.26256   0.51453   0.98716   0.00000  Uiso   1.00
O877   O     0.25326   0.42871   0.87326   0.00000  Uiso   1.00
O878   O     0.24675   0.57129   0.79341   0.00000  Uiso   1.00
O879   O     0.24480   0.41892   0.76945   0.00000  Uiso   1.00
O880   O     0.25520   0.58108   0.89721   0.00000  Uiso   1.00
O881   O     0.18936   0.50488   0.88524   0.00000  Uiso   1.00
O882   O     0.31065   0.49512   0.78143   0.00000  Uiso   1.00
O883   O     0.18090   0.49510   0.78143   0.00000  Uiso   1.00
O884   O     0.31910   0.50490   0.88523   0.00000  Uiso   1.00
O885   O     0.19802   0.46760   0.98016   0.00000  Uiso   1.00
C886   C     0.18769   0.41583   0.98622   0.00000  Uiso   1.00
H887   H     0.17412   0.41636   0.69742   0.00000  Uiso   1.00
H888   H     0.21747   0.39210   0.98207   0.00000  Uiso   1.00
C889   C     0.15188   0.38869   0.93548   0.00000  Uiso   1.00
H890   H     0.16418   0.38730   0.88984   0.00000  Uiso   1.00
H891   H     0.14346   0.34765   0.93951   0.00000  Uiso   1.00
H892   H     0.12119   0.41067   0.93922   0.00000  Uiso   1.00
O893   O     0.30198   0.53240   0.68651   0.00000  Uiso   1.00
C894   C     0.31232   0.58416   0.68045   0.00000  Uiso   1.00
H895   H     0.28254   0.60791   0.68459   0.00000  Uiso   1.00
H896   H     0.32589   0.58363   0.96925   0.00000  Uiso   1.00
C897   C     0.34813   0.61131   0.73119   0.00000  Uiso   1.00
H898   H     0.37879   0.58930   0.72748   0.00000  Uiso   1.00
H899   H     0.35657   0.65233   0.72714   0.00000  Uiso   1.00
H900   H     0.33581   0.61273   0.77682   0.00000  Uiso   1.00
C901   C     0.74837   0.39991   0.81771   0.00000  Uiso   1.00
C902   C     0.75163   0.60009   0.84896   0.00000  Uiso   1.00
C903   C     0.51526   0.46316   0.72294   0.00000  Uiso   1.00
C904   C     0.98474   0.53684   0.94373   0.00000  Uiso   1.00
C905   C     0.74668   0.34380   0.80915   0.00000  Uiso   1.00
C906   C     0.75332   0.65620   0.85752   0.00000  Uiso   1.00
C907   C     0.66441   0.49938   0.83382   0.00000  Uiso   1.00
C908   C     0.83559   0.50062   0.83285   0.00000  Uiso   1.00
C909   C     0.91120   0.51929   0.88773   0.00000  Uiso   1.00
C910   C     0.58880   0.48071   0.77894   0.00000  Uiso   1.00
C911   C     0.88402   0.50152   0.83230   0.00000  Uiso   1.00
C912   C     0.61598   0.49848   0.83437   0.00000  Uiso   1.00
C913   C     0.90318   0.48391   0.77708   0.00000  Uiso   1.00
C914   C     0.59682   0.51608   0.88959   0.00000  Uiso   1.00
C915   C     0.94947   0.48292   0.77714   0.00000  Uiso   1.00
C916   C     0.55053   0.51708   0.88953   0.00000  Uiso   1.00
C917   C     0.97673   0.50051   0.83307   0.00000  Uiso   1.00
C918   C     0.52328   0.49949   0.83360   0.00000  Uiso   1.00
C919   C     0.95747   0.51907   0.88848   0.00000  Uiso   1.00
C920   C     0.54253   0.48093   0.77819   0.00000  Uiso   1.00
C921   C     0.96893   0.46422   0.72240   0.00000  Uiso   1.00
C922   C     0.53107   0.53577   0.94426   0.00000  Uiso   1.00
Cu923  Cu    0.75501   0.50579   0.89479   0.00000  Uiso   1.00
Cu924  Cu    0.74500   0.49421   0.77187   0.00000  Uiso   1.00
H925   H     0.89640   0.53334   0.93043   0.00000  Uiso   1.00
H926   H     0.60360   0.46666   0.73624   0.00000  Uiso   1.00
H927   H     0.88210   0.47014   0.73431   0.00000  Uiso   1.00
H928   H     0.61790   0.52986   0.93235   0.00000  Uiso   1.00
H929   H     0.94836   0.45051   0.67924   0.00000  Uiso   1.00
H930   H     0.55164   0.54949   0.98742   0.00000  Uiso   1.00
H931   H     0.52977   0.44862   0.68017   0.00000  Uiso   1.00
H932   H     0.97023   0.55138   0.98649   0.00000  Uiso   1.00
H933   H     0.73955   0.65295   0.76276   0.00000  Uiso   1.00
H934   H     0.76045   0.34705   0.90391   0.00000  Uiso   1.00
N935   N     0.73745   0.48547   0.67951   0.00000  Uiso   1.00
N936   N     0.76256   0.51453   0.98716   0.00000  Uiso   1.00
O937   O     0.75326   0.42871   0.87326   0.00000  Uiso   1.00
O938   O     0.74675   0.57129   0.79341   0.00000  Uiso   1.00
O939   O     0.74480   0.41892   0.76945   0.00000  Uiso   1.00
O940   O     0.75520   0.58108   0.89721   0.00000  Uiso   1.00
O941   O     0.68936   0.50488   0.88524   0.00000  Uiso   1.00
O942   O     0.81065   0.49512   0.78143   0.00000  Uiso   1.00
O943   O     0.68090   0.49510   0.78143   0.00000  Uiso   1.00
O944   O     0.81910   0.50490   0.88523   0.00000  Uiso   1.00
O945   O     0.69802   0.46760   0.98016   0.00000  Uiso   1.00
C946   C     0.68769   0.41583   0.98622   0.00000  Uiso   1.00
H947   H     0.67412   0.41636   0.69742   0.00000  Uiso   1.00
H948   H     0.71747   0.39210   0.98207   0.00000  Uiso   1.00
C949   C     0.65188   0.38869   0.93548   0.00000  Uiso   1.00
H950   H     0.66418   0.38730   0.88984   0.00000  Uiso   1.00
H951   H     0.64346   0.34765   0.93951   0.00000  Uiso   1.00
H952   H     0.62119   0.41067   0.93922   0.00000  Uiso   1.00
O953   O     0.80198   0.53240   0.68651   0.00000  Uiso   1.00
C954   C     0.81232   0.58416   0.68045   0.00000  Uiso   1.00
H955   H     0.78254   0.60791   0.68459   0.00000  Uiso   1.00
H956   H     0.82589   0.58363   0.96925   0.00000  Uiso   1.00
C957   C     0.84813   0.61131   0.73119   0.00000  Uiso   1.00
H958   H     0.87879   0.58930   0.72748   0.00000  Uiso   1.00
H959   H     0.85657   0.65233   0.72714   0.00000  Uiso   1.00
H960   H     0.83581   0.61273   0.77682   0.00000  Uiso   1.00
C961   C     0.24837   0.73324   0.81771   0.00000  Uiso   1.00
C962   C     0.25163   0.93343   0.84896   0.00000  Uiso   1.00
C963   C     0.01526   0.79649   0.72294   0.00000  Uiso   1.00
C964   C     0.48474   0.87017   0.94373   0.00000  Uiso   1.00
C965   C     0.24668   0.67713   0.80915   0.00000  Uiso   1.00
C966   C     0.25332   0.98954   0.85752   0.00000  Uiso   1.00
C967   C     0.16441   0.83271   0.83382   0.00000  Uiso   1.00
C968   C     0.33559   0.83396   0.83285   0.00000  Uiso   1.00
C969   C     0.41120   0.85263   0.88773   0.00000  Uiso   1.00
C970   C     0.08880   0.81404   0.77894   0.00000  Uiso   1.00
C971   C     0.38402   0.83485   0.83230   0.00000  Uiso   1.00
C972   C     0.11598   0.83181   0.83437   0.00000  Uiso   1.00
C973   C     0.40318   0.81725   0.77708   0.00000  Uiso   1.00
C974   C     0.09682   0.84942   0.88959   0.00000  Uiso   1.00
C975   C     0.44947   0.81625   0.77714   0.00000  Uiso   1.00
C976   C     0.05053   0.85041   0.88953   0.00000  Uiso   1.00
C977   C     0.47673   0.83385   0.83307   0.00000  Uiso   1.00
C978   C     0.02328   0.83282   0.83360   0.00000  Uiso   1.00
C979   C     0.45747   0.85240   0.88848   0.00000  Uiso   1.00
C980   C     0.04253   0.81426   0.77819   0.00000  Uiso   1.00
C981   C     0.46893   0.79756   0.72240   0.00000  Uiso   1.00
C982   C     0.03107   0.86911   0.94426   0.00000  Uiso   1.00
Cu983  Cu    0.25501   0.83913   0.89479   0.00000  Uiso   1.00
Cu984  Cu    0.24500   0.82754   0.77187   0.00000  Uiso   1.00
H985   H     0.39640   0.86668   0.93043   0.00000  Uiso   1.00
H986   H     0.10360   0.79999   0.73624   0.00000  Uiso   1.00
H987   H     0.38210   0.80348   0.73431   0.00000  Uiso   1.00
H988   H     0.11790   0.86319   0.93235   0.00000  Uiso   1.00
H989   H     0.44836   0.78384   0.67924   0.00000  Uiso   1.00
H990   H     0.05164   0.88282   0.98742   0.00000  Uiso   1.00
H991   H     0.02977   0.78195   0.68017   0.00000  Uiso   1.00
H992   H     0.47023   0.88471   0.98649   0.00000  Uiso   1.00
H993   H     0.23955   0.98628   0.76276   0.00000  Uiso   1.00
H994   H     0.26045   0.68039   0.90391   0.00000  Uiso   1.00
N995   N     0.23745   0.81881   0.67951   0.00000  Uiso   1.00
N996   N     0.26256   0.84786   0.98716   0.00000  Uiso   1.00
O997   O     0.25326   0.76204   0.87326   0.00000  Uiso   1.00
O998   O     0.24675   0.90462   0.79341   0.00000  Uiso   1.00
O999   O     0.24480   0.75226   0.76945   0.00000  Uiso   1.00
O1000  O     0.25520   0.91441   0.89721   0.00000  Uiso   1.00
O1001  O     0.18936   0.83821   0.88524   0.00000  Uiso   1.00
O1002  O     0.31065   0.82845   0.78143   0.00000  Uiso   1.00
O1003  O     0.18090   0.82843   0.78143   0.00000  Uiso   1.00
O1004  O     0.31910   0.83824   0.88523   0.00000  Uiso   1.00
O1005  O     0.19802   0.80093   0.98016   0.00000  Uiso   1.00
C1006  C     0.18769   0.74917   0.98622   0.00000  Uiso   1.00
H1007  H     0.17412   0.74970   0.69742   0.00000  Uiso   1.00
H1008  H     0.21747   0.72543   0.98207   0.00000  Uiso   1.00
C1009  C     0.15188   0.72202   0.93548   0.00000  Uiso   1.00
H1010  H     0.16418   0.72063   0.88984   0.00000  Uiso   1.00
H1011  H     0.14346   0.68098   0.93951   0.00000  Uiso   1.00
H1012  H     0.12119   0.74400   0.93922   0.00000  Uiso   1.00
O1013  O     0.30198   0.86573   0.68651   0.00000  Uiso   1.00
C1014  C     0.31232   0.91750   0.68045   0.00000  Uiso   1.00
H1015  H     0.28254   0.94124   0.68459   0.00000  Uiso   1.00
H1016  H     0.32589   0.91697   0.96925   0.00000  Uiso   1.00
C1017  C     0.34813   0.94464   0.73119   0.00000  Uiso   1.00
H1018  H     0.37879   0.92263   0.72748   0.00000  Uiso   1.00
H1019  H     0.35657   0.98566   0.72714   0.00000  Uiso   1.00
H1020  H     0.33581   0.94607   0.77682   0.00000  Uiso   1.00
C1021  C     0.74837   0.73324   0.81771   0.00000  Uiso   1.00
C1022  C     0.75163   0.93343   0.84896   0.00000  Uiso   1.00
C1023  C     0.51526   0.79649   0.72294   0.00000  Uiso   1.00
C1024  C     0.98474   0.87017   0.94373   0.00000  Uiso   1.00
C1025  C     0.74668   0.67713   0.80915   0.00000  Uiso   1.00
C1026  C     0.75332   0.98954   0.85752   0.00000  Uiso   1.00
C1027  C     0.66441   0.83271   0.83382   0.00000  Uiso   1.00
C1028  C     0.83559   0.83396   0.83285   0.00000  Uiso   1.00
C1029  C     0.91120   0.85263   0.88773   0.00000  Uiso   1.00
C1030  C     0.58880   0.81404   0.77894   0.00000  Uiso   1.00
C1031  C     0.88402   0.83485   0.83230   0.00000  Uiso   1.00
C1032  C     0.61598   0.83181   0.83437   0.00000  Uiso   1.00
C1033  C     0.90318   0.81725   0.77708   0.00000  Uiso   1.00
C1034  C     0.59682   0.84942   0.88959   0.00000  Uiso   1.00
C1035  C     0.94947   0.81625   0.77714   0.00000  Uiso   1.00
C1036  C     0.55053   0.85041   0.88953   0.00000  Uiso   1.00
C1037  C     0.97673   0.83385   0.83307   0.00000  Uiso   1.00
C1038  C     0.52328   0.83282   0.83360   0.00000  Uiso   1.00
C1039  C     0.95747   0.85240   0.88848   0.00000  Uiso   1.00
C1040  C     0.54253   0.81426   0.77819   0.00000  Uiso   1.00
C1041  C     0.96893   0.79756   0.72240   0.00000  Uiso   1.00
C1042  C     0.53107   0.86911   0.94426   0.00000  Uiso   1.00
Cu1043 Cu    0.75501   0.83913   0.89479   0.00000  Uiso   1.00
Cu1044 Cu    0.74500   0.82754   0.77187   0.00000  Uiso   1.00
H1045  H     0.89640   0.86668   0.93043   0.00000  Uiso   1.00
H1046  H     0.60360   0.79999   0.73624   0.00000  Uiso   1.00
H1047  H     0.88210   0.80348   0.73431   0.00000  Uiso   1.00
H1048  H     0.61790   0.86319   0.93235   0.00000  Uiso   1.00
H1049  H     0.94836   0.78384   0.67924   0.00000  Uiso   1.00
H1050  H     0.55164   0.88282   0.98742   0.00000  Uiso   1.00
H1051  H     0.52977   0.78195   0.68017   0.00000  Uiso   1.00
H1052  H     0.97023   0.88471   0.98649   0.00000  Uiso   1.00
H1053  H     0.73955   0.98628   0.76276   0.00000  Uiso   1.00
H1054  H     0.76045   0.68039   0.90391   0.00000  Uiso   1.00
N1055  N     0.73745   0.81881   0.67951   0.00000  Uiso   1.00
N1056  N     0.76256   0.84786   0.98716   0.00000  Uiso   1.00
O1057  O     0.75326   0.76204   0.87326   0.00000  Uiso   1.00
O1058  O     0.74675   0.90462   0.79341   0.00000  Uiso   1.00
O1059  O     0.74480   0.75226   0.76945   0.00000  Uiso   1.00
O1060  O     0.75520   0.91441   0.89721   0.00000  Uiso   1.00
O1061  O     0.68936   0.83821   0.88524   0.00000  Uiso   1.00
O1062  O     0.81065   0.82845   0.78143   0.00000  Uiso   1.00
O1063  O     0.68090   0.82843   0.78143   0.00000  Uiso   1.00
O1064  O     0.81910   0.83824   0.88523   0.00000  Uiso   1.00
O1065  O     0.69802   0.80093   0.98016   0.00000  Uiso   1.00
C1066  C     0.68769   0.74917   0.98622   0.00000  Uiso   1.00
H1067  H     0.67412   0.74970   0.69742   0.00000  Uiso   1.00
H1068  H     0.71747   0.72543   0.98207   0.00000  Uiso   1.00
C1069  C     0.65188   0.72202   0.93548   0.00000  Uiso   1.00
H1070  H     0.66418   0.72063   0.88984   0.00000  Uiso   1.00
H1071  H     0.64346   0.68098   0.93951   0.00000  Uiso   1.00
H1072  H     0.62119   0.74400   0.93922   0.00000  Uiso   1.00
O1073  O     0.80198   0.86573   0.68651   0.00000  Uiso   1.00
C1074  C     0.81232   0.91750   0.68045   0.00000  Uiso   1.00
H1075  H     0.78254   0.94124   0.68459   0.00000  Uiso   1.00
H1076  H     0.82589   0.91697   0.96925   0.00000  Uiso   1.00
C1077  C     0.84813   0.94464   0.73119   0.00000  Uiso   1.00
H1078  H     0.87879   0.92263   0.72748   0.00000  Uiso   1.00
H1079  H     0.85657   0.98566   0.72714   0.00000  Uiso   1.00
H1080  H     0.83581   0.94607   0.77682   0.00000  Uiso   1.00
loop_
_geom_bond_atom_site_label_1
_geom_bond_atom_site_label_2
_geom_bond_distance
_geom_bond_site_symmetry_2
_ccdc_geom_bond_type
C1     O37     1.294   .     A
C1     C5      1.428   .     S
C1     O39     1.291   .     A
C2     O38     1.294   .     A
C2     C6      1.428   .     S
C2     O40     1.291   .     A
C3     C20     1.402   .     A
C3     H31     1.084   .     S
C3     C81     1.393   1_455 S
C4     H32     1.084   .     S
C4     C19     1.402   .     A
C4     C82     1.393   .     S
C5     C246    1.330   1_545 S
C5     H273    1.086   1_545 S
C6     C125    1.330   .     S
C6     H154    1.086   .     S
C7     O43     1.297   .     A
C7     O41     1.302   .     A
C7     C12     1.456   .     S
C8     O44     1.297   .     A
C8     C11     1.456   .     S
C8     O42     1.302   .     A
C9     C11     1.404   .     A
C9     H25     1.085   .     S
C9     C19     1.390   .     A
C10    H26     1.085   .     S
C10    C12     1.403   .     A
C10    C20     1.390   .     A
C11    C13     1.401   .     A
C12    C14     1.401   .     A
C13    C15     1.393   .     A
C13    H27     1.085   .     S
C14    C16     1.393   .     A
C14    H28     1.085   .     S
C15    C21     1.401   .     A
C15    C17     1.413   .     A
C16    C18     1.413   .     A
C16    C22     1.401   .     A
C17    C19     1.410   .     A
C17    C78     1.400   .     S
C18    C20     1.410   .     A
C18    C77     1.400   1_455 S
C21    H29     1.084   .     S
C21    C63     1.393   .     S
C22    H30     1.084   .     S
C22    C64     1.393   1_455 S
Cu23   Cu24    2.700   .     S
Cu23   O41     1.967   .     S
Cu23   O37     1.952   .     S
Cu23   O40     1.950   .     S
Cu23   N36     2.029   .     S
Cu23   O44     1.956   .     S
Cu24   O38     1.952   .     S
Cu24   N35     2.029   .     S
Cu24   O39     1.950   .     S
Cu24   O42     1.967   .     S
Cu24   O43     1.956   .     S
H33    C125    1.086   .     S
H34    C246    1.086   1_545 S
N35    N756    1.296   1_554 S
N35    O765    1.345   1_554 S
N36    N395    1.296   .     S
N36    O413    1.345   .     S
O45    C46     1.407   .     S
O45    N395    1.345   .     S
C46    C49     1.522   .     S
C46    H48     1.114   .     S
C46    H407    1.107   .     S
H47    C766    1.107   1_554 S
C49    H52     1.111   .     S
C49    H50     1.111   .     S
C49    H51     1.111   .     S
O53    C54     1.407   .     S
O53    N756    1.345   1_554 S
C54    H55     1.114   .     S
C54    C57     1.522   .     S
C54    H776    1.107   1_554 S
H56    C414    1.107   .     S
C57    H58     1.111   .     S
C57    H59     1.111   .     S
C57    H60     1.110   .     S
C61    O97     1.294   .     A
C61    C65     1.428   .     S
C61    O99     1.291   .     A
C62    O98     1.294   .     A
C62    C66     1.428   .     S
C62    O100    1.291   .     A
C63    C80     1.402   .     A
C63    H91     1.084   .     S
C64    H92     1.084   .     S
C64    C79     1.402   .     A
C64    C22     1.393   1_655 S
C65    C306    1.330   1_545 S
C65    H333    1.086   1_545 S
C66    C185    1.330   .     S
C66    H214    1.086   .     S
C67    O103    1.297   .     A
C67    O101    1.302   .     A
C67    C72     1.456   .     S
C68    O104    1.297   .     A
C68    C71     1.456   .     S
C68    O102    1.302   .     A
C69    C71     1.404   .     A
C69    H85     1.085   .     S
C69    C79     1.390   .     A
C70    H86     1.085   .     S
C70    C72     1.403   .     A
C70    C80     1.390   .     A
C71    C73     1.401   .     A
C72    C74     1.401   .     A
C73    C75     1.393   .     A
C73    H87     1.085   .     S
C74    C76     1.393   .     A
C74    H88     1.085   .     S
C75    C81     1.401   .     A
C75    C77     1.413   .     A
C76    C78     1.413   .     A
C76    C82     1.401   .     A
C77    C79     1.410   .     A
C77    C18     1.400   1_655 S
C78    C80     1.410   .     A
C81    H89     1.084   .     S
C81    C3      1.393   1_655 S
C82    H90     1.084   .     S
Cu83   Cu84    2.700   .     S
Cu83   O101    1.967   .     S
Cu83   O97     1.952   .     S
Cu83   O100    1.950   .     S
Cu83   N96     2.029   .     S
Cu83   O104    1.956   .     S
Cu84   O98     1.952   .     S
Cu84   N95     2.029   .     S
Cu84   O99     1.950   .     S
Cu84   O102    1.967   .     S
Cu84   O103    1.956   .     S
H93    C185    1.086   .     S
H94    C306    1.086   1_545 S
N95    N816    1.296   1_554 S
N95    O825    1.345   1_554 S
N96    N455    1.296   .     S
N96    O473    1.345   .     S
O105   C106    1.407   .     S
O105   N455    1.345   .     S
C106   C109    1.522   .     S
C106   H108    1.114   .     S
C106   H467    1.107   .     S
H107   C826    1.107   1_554 S
C109   H112    1.111   .     S
C109   H110    1.111   .     S
C109   H111    1.111   .     S
O113   C114    1.407   .     S
O113   N816    1.345   1_554 S
C114   H115    1.114   .     S
C114   C117    1.522   .     S
C114   H836    1.107   1_554 S
H116   C474    1.107   .     S
C117   H118    1.111   .     S
C117   H119    1.111   .     S
C117   H120    1.110   .     S
C121   O157    1.294   .     A
C121   C125    1.428   .     S
C121   O159    1.291   .     A
C122   O158    1.294   .     A
C122   C126    1.428   .     S
C122   O160    1.291   .     A
C123   C140    1.402   .     A
C123   H151    1.084   .     S
C123   C201    1.393   1_455 S
C124   H152    1.084   .     S
C124   C139    1.402   .     A
C124   C202    1.393   .     S
C126   C245    1.330   .     S
C126   H274    1.086   .     S
C127   O163    1.297   .     A
C127   O161    1.302   .     A
C127   C132    1.456   .     S
C128   O164    1.297   .     A
C128   C131    1.456   .     S
C128   O162    1.302   .     A
C129   C131    1.404   .     A
C129   H145    1.085   .     S
C129   C139    1.390   .     A
C130   H146    1.085   .     S
C130   C132    1.403   .     A
C130   C140    1.390   .     A
C131   C133    1.401   .     A
C132   C134    1.401   .     A
C133   C135    1.393   .     A
C133   H147    1.085   .     S
C134   C136    1.393   .     A
C134   H148    1.085   .     S
C135   C141    1.401   .     A
C135   C137    1.413   .     A
C136   C138    1.413   .     A
C136   C142    1.401   .     A
C137   C139    1.410   .     A
C137   C198    1.400   .     S
C138   C140    1.410   .     A
C138   C197    1.400   1_455 S
C141   H149    1.084   .     S
C141   C183    1.393   .     S
C142   H150    1.084   .     S
C142   C184    1.393   1_455 S
Cu143  Cu144   2.700   .     S
Cu143  O161    1.967   .     S
Cu143  O157    1.952   .     S
Cu143  O160    1.950   .     S
Cu143  N156    2.029   .     S
Cu143  O164    1.956   .     S
Cu144  O158    1.952   .     S
Cu144  N155    2.029   .     S
Cu144  O159    1.950   .     S
Cu144  O162    1.967   .     S
Cu144  O163    1.956   .     S
H153   C245    1.086   .     S
N155   N876    1.296   1_554 S
N155   O885    1.345   1_554 S
N156   N515    1.296   .     S
N156   O533    1.345   .     S
O165   C166    1.407   .     S
O165   N515    1.345   .     S
C166   C169    1.522   .     S
C166   H168    1.114   .     S
C166   H527    1.107   .     S
H167   C886    1.107   1_554 S
C169   H172    1.111   .     S
C169   H170    1.111   .     S
C169   H171    1.111   .     S
O173   C174    1.407   .     S
O173   N876    1.345   1_554 S
C174   H175    1.114   .     S
C174   C177    1.522   .     S
C174   H896    1.107   1_554 S
H176   C534    1.107   .     S
C177   H178    1.111   .     S
C177   H179    1.111   .     S
C177   H180    1.110   .     S
C181   O217    1.294   .     A
C181   C185    1.428   .     S
C181   O219    1.291   .     A
C182   O218    1.294   .     A
C182   C186    1.428   .     S
C182   O220    1.291   .     A
C183   C200    1.402   .     A
C183   H211    1.084   .     S
C184   H212    1.084   .     S
C184   C199    1.402   .     A
C184   C142    1.393   1_655 S
C186   C305    1.330   .     S
C186   H334    1.086   .     S
C187   O223    1.297   .     A
C187   O221    1.302   .     A
C187   C192    1.456   .     S
C188   O224    1.297   .     A
C188   C191    1.456   .     S
C188   O222    1.302   .     A
C189   C191    1.404   .     A
C189   H205    1.085   .     S
C189   C199    1.390   .     A
C190   H206    1.085   .     S
C190   C192    1.403   .     A
C190   C200    1.390   .     A
C191   C193    1.401   .     A
C192   C194    1.401   .     A
C193   C195    1.393   .     A
C193   H207    1.085   .     S
C194   C196    1.393   .     A
C194   H208    1.085   .     S
C195   C201    1.401   .     A
C195   C197    1.413   .     A
C196   C198    1.413   .     A
C196   C202    1.401   .     A
C197   C199    1.410   .     A
C197   C138    1.400   1_655 S
C198   C200    1.410   .     A
C201   H209    1.084   .     S
C201   C123    1.393   1_655 S
C202   H210    1.084   .     S
Cu203  Cu204   2.700   .     S
Cu203  O221    1.967   .     S
Cu203  O217    1.952   .     S
Cu203  O220    1.950   .     S
Cu203  N216    2.029   .     S
Cu203  O224    1.956   .     S
Cu204  O218    1.952   .     S
Cu204  N215    2.029   .     S
Cu204  O219    1.950   .     S
Cu204  O222    1.967   .     S
Cu204  O223    1.956   .     S
H213   C305    1.086   .     S
N215   N936    1.296   1_554 S
N215   O945    1.345   1_554 S
N216   N575    1.296   .     S
N216   O593    1.345   .     S
O225   C226    1.407   .     S
O225   N575    1.345   .     S
C226   C229    1.522   .     S
C226   H228    1.114   .     S
C226   H587    1.107   .     S
H227   C946    1.107   1_554 S
C229   H232    1.111   .     S
C229   H230    1.111   .     S
C229   H231    1.111   .     S
O233   C234    1.407   .     S
O233   N936    1.345   1_554 S
C234   H235    1.114   .     S
C234   C237    1.522   .     S
C234   H956    1.107   1_554 S
H236   C594    1.107   .     S
C237   H238    1.111   .     S
C237   H239    1.111   .     S
C237   H240    1.110   .     S
C241   O277    1.294   .     A
C241   C245    1.428   .     S
C241   O279    1.291   .     A
C242   O278    1.294   .     A
C242   C246    1.428   .     S
C242   O280    1.291   .     A
C243   C260    1.402   .     A
C243   H271    1.084   .     S
C243   C321    1.393   1_455 S
C244   H272    1.084   .     S
C244   C259    1.402   .     A
C244   C322    1.393   .     S
C246   C5      1.330   1_565 S
C246   H34     1.086   1_565 S
C247   O283    1.297   .     A
C247   O281    1.302   .     A
C247   C252    1.456   .     S
C248   O284    1.297   .     A
C248   C251    1.456   .     S
C248   O282    1.302   .     A
C249   C251    1.404   .     A
C249   H265    1.085   .     S
C249   C259    1.390   .     A
C250   H266    1.085   .     S
C250   C252    1.403   .     A
C250   C260    1.390   .     A
C251   C253    1.401   .     A
C252   C254    1.401   .     A
C253   C255    1.393   .     A
C253   H267    1.085   .     S
C254   C256    1.393   .     A
C254   H268    1.085   .     S
C255   C261    1.401   .     A
C255   C257    1.413   .     A
C256   C258    1.413   .     A
C256   C262    1.401   .     A
C257   C259    1.410   .     A
C257   C318    1.400   .     S
C258   C260    1.410   .     A
C258   C317    1.400   1_455 S
C261   H269    1.084   .     S
C261   C303    1.393   .     S
C262   H270    1.084   .     S
C262   C304    1.393   1_455 S
Cu263  Cu264   2.700   .     S
Cu263  O281    1.967   .     S
Cu263  O277    1.952   .     S
Cu263  O280    1.950   .     S
Cu263  N276    2.029   .     S
Cu263  O284    1.956   .     S
Cu264  O278    1.952   .     S
Cu264  N275    2.029   .     S
Cu264  O279    1.950   .     S
Cu264  O282    1.967   .     S
Cu264  O283    1.956   .     S
H273   C5      1.086   1_565 S
N275   N996    1.296   1_554 S
N275   O1005   1.345   1_554 S
N276   N635    1.296   .     S
N276   O653    1.345   .     S
O285   C286    1.407   .     S
O285   N635    1.345   .     S
C286   C289    1.522   .     S
C286   H288    1.114   .     S
C286   H647    1.107   .     S
H287   C1006   1.107   1_554 S
C289   H292    1.111   .     S
C289   H290    1.111   .     S
C289   H291    1.111   .     S
O293   C294    1.407   .     S
O293   N996    1.345   1_554 S
C294   H295    1.114   .     S
C294   C297    1.522   .     S
C294   H1016   1.107   1_554 S
H296   C654    1.107   .     S
C297   H298    1.111   .     S
C297   H299    1.111   .     S
C297   H300    1.110   .     S
C301   O337    1.294   .     A
C301   C305    1.428   .     S
C301   O339    1.291   .     A
C302   O338    1.294   .     A
C302   C306    1.428   .     S
C302   O340    1.291   .     A
C303   C320    1.402   .     A
C303   H331    1.084   .     S
C304   H332    1.084   .     S
C304   C319    1.402   .     A
C304   C262    1.393   1_655 S
C306   C65     1.330   1_565 S
C306   H94     1.086   1_565 S
C307   O343    1.297   .     A
C307   O341    1.302   .     A
C307   C312    1.456   .     S
C308   O344    1.297   .     A
C308   C311    1.456   .     S
C308   O342    1.302   .     A
C309   C311    1.404   .     A
C309   H325    1.085   .     S
C309   C319    1.390   .     A
C310   H326    1.085   .     S
C310   C312    1.403   .     A
C310   C320    1.390   .     A
C311   C313    1.401   .     A
C312   C314    1.401   .     A
C313   C315    1.393   .     A
C313   H327    1.085   .     S
C314   C316    1.393   .     A
C314   H328    1.085   .     S
C315   C321    1.401   .     A
C315   C317    1.413   .     A
C316   C318    1.413   .     A
C316   C322    1.401   .     A
C317   C319    1.410   .     A
C317   C258    1.400   1_655 S
C318   C320    1.410   .     A
C321   H329    1.084   .     S
C321   C243    1.393   1_655 S
C322   H330    1.084   .     S
Cu323  Cu324   2.700   .     S
Cu323  O341    1.967   .     S
Cu323  O337    1.952   .     S
Cu323  O340    1.950   .     S
Cu323  N336    2.029   .     S
Cu323  O344    1.956   .     S
Cu324  O338    1.952   .     S
Cu324  N335    2.029   .     S
Cu324  O339    1.950   .     S
Cu324  O342    1.967   .     S
Cu324  O343    1.956   .     S
H333   C65     1.086   1_565 S
N335   N1056   1.296   1_554 S
N335   O1065   1.345   1_554 S
N336   N695    1.296   .     S
N336   O713    1.345   .     S
O345   C346    1.407   .     S
O345   N695    1.345   .     S
C346   C349    1.522   .     S
C346   H348    1.114   .     S
C346   H707    1.107   .     S
H347   C1066   1.107   1_554 S
C349   H352    1.111   .     S
C349   H350    1.111   .     S
C349   H351    1.111   .     S
O353   C354    1.407   .     S
O353   N1056   1.345   1_554 S
C354   H355    1.114   .     S
C354   C357    1.522   .     S
C354   H1076   1.107   1_554 S
H356   C714    1.107   .     S
C357   H358    1.111   .     S
C357   H359    1.111   .     S
C357   H360    1.110   .     S
C361   O397    1.294   .     A
C361   C365    1.428   .     S
C361   O399    1.291   .     A
C362   O398    1.294   .     A
C362   C366    1.428   .     S
C362   O400    1.291   .     A
C363   C380    1.402   .     A
C363   H391    1.084   .     S
C363   C441    1.393   1_455 S
C364   H392    1.084   .     S
C364   C379    1.402   .     A
C364   C442    1.393   .     S
C365   C606    1.330   1_545 S
C365   H633    1.086   1_545 S
C366   C485    1.330   .     S
C366   H514    1.086   .     S
C367   O403    1.297   .     A
C367   O401    1.302   .     A
C367   C372    1.456   .     S
C368   O404    1.297   .     A
C368   C371    1.456   .     S
C368   O402    1.302   .     A
C369   C371    1.404   .     A
C369   H385    1.085   .     S
C369   C379    1.390   .     A
C370   H386    1.085   .     S
C370   C372    1.403   .     A
C370   C380    1.390   .     A
C371   C373    1.401   .     A
C372   C374    1.401   .     A
C373   C375    1.393   .     A
C373   H387    1.085   .     S
C374   C376    1.393   .     A
C374   H388    1.085   .     S
C375   C381    1.401   .     A
C375   C377    1.413   .     A
C376   C378    1.413   .     A
C376   C382    1.401   .     A
C377   C379    1.410   .     A
C377   C438    1.400   .     S
C378   C380    1.410   .     A
C378   C437    1.400   1_455 S
C381   H389    1.084   .     S
C381   C423    1.393   .     S
C382   H390    1.084   .     S
C382   C424    1.393   1_455 S
Cu383  Cu384   2.700   .     S
Cu383  O401    1.967   .     S
Cu383  O397    1.952   .     S
Cu383  O400    1.950   .     S
Cu383  N396    2.029   .     S
Cu383  O404    1.956   .     S
Cu384  O398    1.952   .     S
Cu384  N395    2.029   .     S
Cu384  O399    1.950   .     S
Cu384  O402    1.967   .     S
Cu384  O403    1.956   .     S
H393   C485    1.086   .     S
H394   C606    1.086   1_545 S
N396   N755    1.296   .     S
N396   O773    1.345   .     S
O405   C406    1.407   .     S
O405   N755    1.345   .     S
C406   C409    1.522   .     S
C406   H408    1.114   .     S
C406   H767    1.107   .     S
C409   H412    1.111   .     S
C409   H410    1.111   .     S
C409   H411    1.111   .     S
O413   C414    1.407   .     S
C414   H415    1.114   .     S
C414   C417    1.522   .     S
H416   C774    1.107   .     S
C417   H418    1.111   .     S
C417   H419    1.111   .     S
C417   H420    1.110   .     S
C421   O457    1.294   .     A
C421   C425    1.428   .     S
C421   O459    1.291   .     A
C422   O458    1.294   .     A
C422   C426    1.428   .     S
C422   O460    1.291   .     A
C423   C440    1.402   .     A
C423   H451    1.084   .     S
C424   H452    1.084   .     S
C424   C439    1.402   .     A
C424   C382    1.393   1_655 S
C425   C666    1.330   1_545 S
C425   H693    1.086   1_545 S
C426   C545    1.330   .     S
C426   H574    1.086   .     S
C427   O463    1.297   .     A
C427   O461    1.302   .     A
C427   C432    1.456   .     S
C428   O464    1.297   .     A
C428   C431    1.456   .     S
C428   O462    1.302   .     A
C429   C431    1.404   .     A
C429   H445    1.085   .     S
C429   C439    1.390   .     A
C430   H446    1.085   .     S
C430   C432    1.403   .     A
C430   C440    1.390   .     A
C431   C433    1.401   .     A
C432   C434    1.401   .     A
C433   C435    1.393   .     A
C433   H447    1.085   .     S
C434   C436    1.393   .     A
C434   H448    1.085   .     S
C435   C441    1.401   .     A
C435   C437    1.413   .     A
C436   C438    1.413   .     A
C436   C442    1.401   .     A
C437   C439    1.410   .     A
C437   C378    1.400   1_655 S
C438   C440    1.410   .     A
C441   H449    1.084   .     S
C441   C363    1.393   1_655 S
C442   H450    1.084   .     S
Cu443  Cu444   2.700   .     S
Cu443  O461    1.967   .     S
Cu443  O457    1.952   .     S
Cu443  O460    1.950   .     S
Cu443  N456    2.029   .     S
Cu443  O464    1.956   .     S
Cu444  O458    1.952   .     S
Cu444  N455    2.029   .     S
Cu444  O459    1.950   .     S
Cu444  O462    1.967   .     S
Cu444  O463    1.956   .     S
H453   C545    1.086   .     S
H454   C666    1.086   1_545 S
N456   N815    1.296   .     S
N456   O833    1.345   .     S
O465   C466    1.407   .     S
O465   N815    1.345   .     S
C466   C469    1.522   .     S
C466   H468    1.114   .     S
C466   H827    1.107   .     S
C469   H472    1.111   .     S
C469   H470    1.111   .     S
C469   H471    1.111   .     S
O473   C474    1.407   .     S
C474   H475    1.114   .     S
C474   C477    1.522   .     S
H476   C834    1.107   .     S
C477   H478    1.111   .     S
C477   H479    1.111   .     S
C477   H480    1.110   .     S
C481   O517    1.294   .     A
C481   C485    1.428   .     S
C481   O519    1.291   .     A
C482   O518    1.294   .     A
C482   C486    1.428   .     S
C482   O520    1.291   .     A
C483   C500    1.402   .     A
C483   H511    1.084   .     S
C483   C561    1.393   1_455 S
C484   H512    1.084   .     S
C484   C499    1.402   .     A
C484   C562    1.393   .     S
C486   C605    1.330   .     S
C486   H634    1.086   .     S
C487   O523    1.297   .     A
C487   O521    1.302   .     A
C487   C492    1.456   .     S
C488   O524    1.297   .     A
C488   C491    1.456   .     S
C488   O522    1.302   .     A
C489   C491    1.404   .     A
C489   H505    1.085   .     S
C489   C499    1.390   .     A
C490   H506    1.085   .     S
C490   C492    1.403   .     A
C490   C500    1.390   .     A
C491   C493    1.401   .     A
C492   C494    1.401   .     A
C493   C495    1.393   .     A
C493   H507    1.085   .     S
C494   C496    1.393   .     A
C494   H508    1.085   .     S
C495   C501    1.401   .     A
C495   C497    1.413   .     A
C496   C498    1.413   .     A
C496   C502    1.401   .     A
C497   C499    1.410   .     A
C497   C558    1.400   .     S
C498   C500    1.410   .     A
C498   C557    1.400   1_455 S
C501   H509    1.084   .     S
C501   C543    1.393   .     S
C502   H510    1.084   .     S
C502   C544    1.393   1_455 S
Cu503  Cu504   2.700   .     S
Cu503  O521    1.967   .     S
Cu503  O517    1.952   .     S
Cu503  O520    1.950   .     S
Cu503  N516    2.029   .     S
Cu503  O524    1.956   .     S
Cu504  O518    1.952   .     S
Cu504  N515    2.029   .     S
Cu504  O519    1.950   .     S
Cu504  O522    1.967   .     S
Cu504  O523    1.956   .     S
H513   C605    1.086   .     S
N516   N875    1.296   .     S
N516   O893    1.345   .     S
O525   C526    1.407   .     S
O525   N875    1.345   .     S
C526   C529    1.522   .     S
C526   H528    1.114   .     S
C526   H887    1.107   .     S
C529   H532    1.111   .     S
C529   H530    1.111   .     S
C529   H531    1.111   .     S
O533   C534    1.407   .     S
C534   H535    1.114   .     S
C534   C537    1.522   .     S
H536   C894    1.107   .     S
C537   H538    1.111   .     S
C537   H539    1.111   .     S
C537   H540    1.110   .     S
C541   O577    1.294   .     A
C541   C545    1.428   .     S
C541   O579    1.291   .     A
C542   O578    1.294   .     A
C542   C546    1.428   .     S
C542   O580    1.291   .     A
C543   C560    1.402   .     A
C543   H571    1.084   .     S
C544   H572    1.084   .     S
C544   C559    1.402   .     A
C544   C502    1.393   1_655 S
C546   C665    1.330   .     S
C546   H694    1.086   .     S
C547   O583    1.297   .     A
C547   O581    1.302   .     A
C547   C552    1.456   .     S
C548   O584    1.297   .     A
C548   C551    1.456   .     S
C548   O582    1.302   .     A
C549   C551    1.404   .     A
C549   H565    1.085   .     S
C549   C559    1.390   .     A
C550   H566    1.085   .     S
C550   C552    1.403   .     A
C550   C560    1.390   .     A
C551   C553    1.401   .     A
C552   C554    1.401   .     A
C553   C555    1.393   .     A
C553   H567    1.085   .     S
C554   C556    1.393   .     A
C554   H568    1.085   .     S
C555   C561    1.401   .     A
C555   C557    1.413   .     A
C556   C558    1.413   .     A
C556   C562    1.401   .     A
C557   C559    1.410   .     A
C557   C498    1.400   1_655 S
C558   C560    1.410   .     A
C561   H569    1.084   .     S
C561   C483    1.393   1_655 S
C562   H570    1.084   .     S
Cu563  Cu564   2.700   .     S
Cu563  O581    1.967   .     S
Cu563  O577    1.952   .     S
Cu563  O580    1.950   .     S
Cu563  N576    2.029   .     S
Cu563  O584    1.956   .     S
Cu564  O578    1.952   .     S
Cu564  N575    2.029   .     S
Cu564  O579    1.950   .     S
Cu564  O582    1.967   .     S
Cu564  O583    1.956   .     S
H573   C665    1.086   .     S
N576   N935    1.296   .     S
N576   O953    1.345   .     S
O585   C586    1.407   .     S
O585   N935    1.345   .     S
C586   C589    1.522   .     S
C586   H588    1.114   .     S
C586   H947    1.107   .     S
C589   H592    1.111   .     S
C589   H590    1.111   .     S
C589   H591    1.111   .     S
O593   C594    1.407   .     S
C594   H595    1.114   .     S
C594   C597    1.522   .     S
H596   C954    1.107   .     S
C597   H598    1.111   .     S
C597   H599    1.111   .     S
C597   H600    1.110   .     S
C601   O637    1.294   .     A
C601   C605    1.428   .     S
C601   O639    1.291   .     A
C602   O638    1.294   .     A
C602   C606    1.428   .     S
C602   O640    1.291   .     A
C603   C620    1.402   .     A
C603   H631    1.084   .     S
C603   C681    1.393   1_455 S
C604   H632    1.084   .     S
C604   C619    1.402   .     A
C604   C682    1.393   .     S
C606   C365    1.330   1_565 S
C606   H394    1.086   1_565 S
C607   O643    1.297   .     A
C607   O641    1.302   .     A
C607   C612    1.456   .     S
C608   O644    1.297   .     A
C608   C611    1.456   .     S
C608   O642    1.302   .     A
C609   C611    1.404   .     A
C609   H625    1.085   .     S
C609   C619    1.390   .     A
C610   H626    1.085   .     S
C610   C612    1.403   .     A
C610   C620    1.390   .     A
C611   C613    1.401   .     A
C612   C614    1.401   .     A
C613   C615    1.393   .     A
C613   H627    1.085   .     S
C614   C616    1.393   .     A
C614   H628    1.085   .     S
C615   C621    1.401   .     A
C615   C617    1.413   .     A
C616   C618    1.413   .     A
C616   C622    1.401   .     A
C617   C619    1.410   .     A
C617   C678    1.400   .     S
C618   C620    1.410   .     A
C618   C677    1.400   1_455 S
C621   H629    1.084   .     S
C621   C663    1.393   .     S
C622   H630    1.084   .     S
C622   C664    1.393   1_455 S
Cu623  Cu624   2.700   .     S
Cu623  O641    1.967   .     S
Cu623  O637    1.952   .     S
Cu623  O640    1.950   .     S
Cu623  N636    2.029   .     S
Cu623  O644    1.956   .     S
Cu624  O638    1.952   .     S
Cu624  N635    2.029   .     S
Cu624  O639    1.950   .     S
Cu624  O642    1.967   .     S
Cu624  O643    1.956   .     S
H633   C365    1.086   1_565 S
N636   N995    1.296   .     S
N636   O1013   1.345   .     S
O645   C646    1.407   .     S
O645   N995    1.345   .     S
C646   C649    1.522   .     S
C646   H648    1.114   .     S
C646   H1007   1.107   .     S
C649   H652    1.111   .     S
C649   H650    1.111   .     S
C649   H651    1.111   .     S
O653   C654    1.407   .     S
C654   H655    1.114   .     S
C654   C657    1.522   .     S
H656   C1014   1.107   .     S
C657   H658    1.111   .     S
C657   H659    1.111   .     S
C657   H660    1.110   .     S
C661   O697    1.294   .     A
C661   C665    1.428   .     S
C661   O699    1.291   .     A
C662   O698    1.294   .     A
C662   C666    1.428   .     S
C662   O700    1.291   .     A
C663   C680    1.402   .     A
C663   H691    1.084   .     S
C664   H692    1.084   .     S
C664   C679    1.402   .     A
C664   C622    1.393   1_655 S
C666   C425    1.330   1_565 S
C666   H454    1.086   1_565 S
C667   O703    1.297   .     A
C667   O701    1.302   .     A
C667   C672    1.456   .     S
C668   O704    1.297   .     A
C668   C671    1.456   .     S
C668   O702    1.302   .     A
C669   C671    1.404   .     A
C669   H685    1.085   .     S
C669   C679    1.390   .     A
C670   H686    1.085   .     S
C670   C672    1.403   .     A
C670   C680    1.390   .     A
C671   C673    1.401   .     A
C672   C674    1.401   .     A
C673   C675    1.393   .     A
C673   H687    1.085   .     S
C674   C676    1.393   .     A
C674   H688    1.085   .     S
C675   C681    1.401   .     A
C675   C677    1.413   .     A
C676   C678    1.413   .     A
C676   C682    1.401   .     A
C677   C679    1.410   .     A
C677   C618    1.400   1_655 S
C678   C680    1.410   .     A
C681   H689    1.084   .     S
C681   C603    1.393   1_655 S
C682   H690    1.084   .     S
Cu683  Cu684   2.700   .     S
Cu683  O701    1.967   .     S
Cu683  O697    1.952   .     S
Cu683  O700    1.950   .     S
Cu683  N696    2.029   .     S
Cu683  O704    1.956   .     S
Cu684  O698    1.952   .     S
Cu684  N695    2.029   .     S
Cu684  O699    1.950   .     S
Cu684  O702    1.967   .     S
Cu684  O703    1.956   .     S
H693   C425    1.086   1_565 S
N696   N1055   1.296   .     S
N696   O1073   1.345   .     S
O705   C706    1.407   .     S
O705   N1055   1.345   .     S
C706   C709    1.522   .     S
C706   H708    1.114   .     S
C706   H1067   1.107   .     S
C709   H712    1.111   .     S
C709   H710    1.111   .     S
C709   H711    1.111   .     S
O713   C714    1.407   .     S
C714   H715    1.114   .     S
C714   C717    1.522   .     S
H716   C1074   1.107   .     S
C717   H718    1.111   .     S
C717   H719    1.111   .     S
C717   H720    1.110   .     S
C721   O757    1.294   .     A
C721   C725    1.428   .     S
C721   O759    1.291   .     A
C722   O758    1.294   .     A
C722   C726    1.428   .     S
C722   O760    1.291   .     A
C723   C740    1.402   .     A
C723   H751    1.084   .     S
C723   C801    1.393   1_455 S
C724   H752    1.084   .     S
C724   C739    1.402   .     A
C724   C802    1.393   .     S
C725   C966    1.330   1_545 S
C725   H993    1.086   1_545 S
C726   C845    1.330   .     S
C726   H874    1.086   .     S
C727   O763    1.297   .     A
C727   O761    1.302   .     A
C727   C732    1.456   .     S
C728   O764    1.297   .     A
C728   C731    1.456   .     S
C728   O762    1.302   .     A
C729   C731    1.404   .     A
C729   H745    1.085   .     S
C729   C739    1.390   .     A
C730   H746    1.085   .     S
C730   C732    1.403   .     A
C730   C740    1.390   .     A
C731   C733    1.401   .     A
C732   C734    1.401   .     A
C733   C735    1.393   .     A
C733   H747    1.085   .     S
C734   C736    1.393   .     A
C734   H748    1.085   .     S
C735   C741    1.401   .     A
C735   C737    1.413   .     A
C736   C738    1.413   .     A
C736   C742    1.401   .     A
C737   C739    1.410   .     A
C737   C798    1.400   .     S
C738   C740    1.410   .     A
C738   C797    1.400   1_455 S
C741   H749    1.084   .     S
C741   C783    1.393   .     S
C742   H750    1.084   .     S
C742   C784    1.393   1_455 S
Cu743  Cu744   2.700   .     S
Cu743  O761    1.967   .     S
Cu743  O757    1.952   .     S
Cu743  O760    1.950   .     S
Cu743  N756    2.029   .     S
Cu743  O764    1.956   .     S
Cu744  O758    1.952   .     S
Cu744  N755    2.029   .     S
Cu744  O759    1.950   .     S
Cu744  O762    1.967   .     S
Cu744  O763    1.956   .     S
H753   C845    1.086   .     S
H754   C966    1.086   1_545 S
N756   N35     1.296   1_556 S
N756   O53     1.345   1_556 S
O765   C766    1.407   .     S
O765   N35     1.345   1_556 S
C766   C769    1.522   .     S
C766   H768    1.114   .     S
C766   H47     1.107   1_556 S
C769   H772    1.111   .     S
C769   H770    1.111   .     S
C769   H771    1.111   .     S
O773   C774    1.407   .     S
C774   H775    1.114   .     S
C774   C777    1.522   .     S
H776   C54     1.107   1_556 S
C777   H778    1.111   .     S
C777   H779    1.111   .     S
C777   H780    1.110   .     S
C781   O817    1.294   .     A
C781   C785    1.428   .     S
C781   O819    1.291   .     A
C782   O818    1.294   .     A
C782   C786    1.428   .     S
C782   O820    1.291   .     A
C783   C800    1.402   .     A
C783   H811    1.084   .     S
C784   H812    1.084   .     S
C784   C799    1.402   .     A
C784   C742    1.393   1_655 S
C785   C1026   1.330   1_545 S
C785   H1053   1.086   1_545 S
C786   C905    1.330   .     S
C786   H934    1.086   .     S
C787   O823    1.297   .     A
C787   O821    1.302   .     A
C787   C792    1.456   .     S
C788   O824    1.297   .     A
C788   C791    1.456   .     S
C788   O822    1.302   .     A
C789   C791    1.404   .     A
C789   H805    1.085   .     S
C789   C799    1.390   .     A
C790   H806    1.085   .     S
C790   C792    1.403   .     A
C790   C800    1.390   .     A
C791   C793    1.401   .     A
C792   C794    1.401   .     A
C793   C795    1.393   .     A
C793   H807    1.085   .     S
C794   C796    1.393   .     A
C794   H808    1.085   .     S
C795   C801    1.401   .     A
C795   C797    1.413   .     A
C796   C798    1.413   .     A
C796   C802    1.401   .     A
C797   C799    1.410   .     A
C797   C738    1.400   1_655 S
C798   C800    1.410   .     A
C801   H809    1.084   .     S
C801   C723    1.393   1_655 S
C802   H810    1.084   .     S
Cu803  Cu804   2.700   .     S
Cu803  O821    1.967   .     S
Cu803  O817    1.952   .     S
Cu803  O820    1.950   .     S
Cu803  N816    2.029   .     S
Cu803  O824    1.956   .     S
Cu804  O818    1.952   .     S
Cu804  N815    2.029   .     S
Cu804  O819    1.950   .     S
Cu804  O822    1.967   .     S
Cu804  O823    1.956   .     S
H813   C905    1.086   .     S
H814   C1026   1.086   1_545 S
N816   N95     1.296   1_556 S
N816   O113    1.345   1_556 S
O825   C826    1.407   .     S
O825   N95     1.345   1_556 S
C826   C829    1.522   .     S
C826   H828    1.114   .     S
C826   H107    1.107   1_556 S
C829   H832    1.111   .     S
C829   H830    1.111   .     S
C829   H831    1.111   .     S
O833   C834    1.407   .     S
C834   H835    1.114   .     S
C834   C837    1.522   .     S
H836   C114    1.107   1_556 S
C837   H838    1.111   .     S
C837   H839    1.111   .     S
C837   H840    1.110   .     S
C841   O877    1.294   .     A
C841   C845    1.428   .     S
C841   O879    1.291   .     A
C842   O878    1.294   .     A
C842   C846    1.428   .     S
C842   O880    1.291   .     A
C843   C860    1.402   .     A
C843   H871    1.084   .     S
C843   C921    1.393   1_455 S
C844   H872    1.084   .     S
C844   C859    1.402   .     A
C844   C922    1.393   .     S
C846   C965    1.330   .     S
C846   H994    1.086   .     S
C847   O883    1.297   .     A
C847   O881    1.302   .     A
C847   C852    1.456   .     S
C848   O884    1.297   .     A
C848   C851    1.456   .     S
C848   O882    1.302   .     A
C849   C851    1.404   .     A
C849   H865    1.085   .     S
C849   C859    1.390   .     A
C850   H866    1.085   .     S
C850   C852    1.403   .     A
C850   C860    1.390   .     A
C851   C853    1.401   .     A
C852   C854    1.401   .     A
C853   C855    1.393   .     A
C853   H867    1.085   .     S
C854   C856    1.393   .     A
C854   H868    1.085   .     S
C855   C861    1.401   .     A
C855   C857    1.413   .     A
C856   C858    1.413   .     A
C856   C862    1.401   .     A
C857   C859    1.410   .     A
C857   C918    1.400   .     S
C858   C860    1.410   .     A
C858   C917    1.400   1_455 S
C861   H869    1.084   .     S
C861   C903    1.393   .     S
C862   H870    1.084   .     S
C862   C904    1.393   1_455 S
Cu863  Cu864   2.700   .     S
Cu863  O881    1.967   .     S
Cu863  O877    1.952   .     S
Cu863  O880    1.950   .     S
Cu863  N876    2.029   .     S
Cu863  O884    1.956   .     S
Cu864  O878    1.952   .     S
Cu864  N875    2.029   .     S
Cu864  O879    1.950   .     S
Cu864  O882    1.967   .     S
Cu864  O883    1.956   .     S
H873   C965    1.086   .     S
N876   N155    1.296   1_556 S
N876   O173    1.345   1_556 S
O885   C886    1.407   .     S
O885   N155    1.345   1_556 S
C886   C889    1.522   .     S
C886   H888    1.114   .     S
C886   H167    1.107   1_556 S
C889   H892    1.111   .     S
C889   H890    1.111   .     S
C889   H891    1.111   .     S
O893   C894    1.407   .     S
C894   H895    1.114   .     S
C894   C897    1.522   .     S
H896   C174    1.107   1_556 S
C897   H898    1.111   .     S
C897   H899    1.111   .     S
C897   H900    1.110   .     S
C901   O937    1.294   .     A
C901   C905    1.428   .     S
C901   O939    1.291   .     A
C902   O938    1.294   .     A
C902   C906    1.428   .     S
C902   O940    1.291   .     A
C903   C920    1.402   .     A
C903   H931    1.084   .     S
C904   H932    1.084   .     S
C904   C919    1.402   .     A
C904   C862    1.393   1_655 S
C906   C1025   1.330   .     S
C906   H1054   1.086   .     S
C907   O943    1.297   .     A
C907   O941    1.302   .     A
C907   C912    1.456   .     S
C908   O944    1.297   .     A
C908   C911    1.456   .     S
C908   O942    1.302   .     A
C909   C911    1.404   .     A
C909   H925    1.085   .     S
C909   C919    1.390   .     A
C910   H926    1.085   .     S
C910   C912    1.403   .     A
C910   C920    1.390   .     A
C911   C913    1.401   .     A
C912   C914    1.401   .     A
C913   C915    1.393   .     A
C913   H927    1.085   .     S
C914   C916    1.393   .     A
C914   H928    1.085   .     S
C915   C921    1.401   .     A
C915   C917    1.413   .     A
C916   C918    1.413   .     A
C916   C922    1.401   .     A
C917   C919    1.410   .     A
C917   C858    1.400   1_655 S
C918   C920    1.410   .     A
C921   H929    1.084   .     S
C921   C843    1.393   1_655 S
C922   H930    1.084   .     S
Cu923  Cu924   2.700   .     S
Cu923  O941    1.967   .     S
Cu923  O937    1.952   .     S
Cu923  O940    1.950   .     S
Cu923  N936    2.029   .     S
Cu923  O944    1.956   .     S
Cu924  O938    1.952   .     S
Cu924  N935    2.029   .     S
Cu924  O939    1.950   .     S
Cu924  O942    1.967   .     S
Cu924  O943    1.956   .     S
H933   C1025   1.086   .     S
N936   N215    1.296   1_556 S
N936   O233    1.345   1_556 S
O945   C946    1.407   .     S
O945   N215    1.345   1_556 S
C946   C949    1.522   .     S
C946   H948    1.114   .     S
C946   H227    1.107   1_556 S
C949   H952    1.111   .     S
C949   H950    1.111   .     S
C949   H951    1.111   .     S
O953   C954    1.407   .     S
C954   H955    1.114   .     S
C954   C957    1.522   .     S
H956   C234    1.107   1_556 S
C957   H958    1.111   .     S
C957   H959    1.111   .     S
C957   H960    1.110   .     S
C961   O997    1.294   .     A
C961   C965    1.428   .     S
C961   O999    1.291   .     A
C962   O998    1.294   .     A
C962   C966    1.428   .     S
C962   O1000   1.291   .     A
C963   C980    1.402   .     A
C963   H991    1.084   .     S
C963   C1041   1.393   1_455 S
C964   H992    1.084   .     S
C964   C979    1.402   .     A
C964   C1042   1.393   .     S
C966   C725    1.330   1_565 S
C966   H754    1.086   1_565 S
C967   O1003   1.297   .     A
C967   O1001   1.302   .     A
C967   C972    1.456   .     S
C968   O1004   1.297   .     A
C968   C971    1.456   .     S
C968   O1002   1.302   .     A
C969   C971    1.404   .     A
C969   H985    1.085   .     S
C969   C979    1.390   .     A
C970   H986    1.085   .     S
C970   C972    1.403   .     A
C970   C980    1.390   .     A
C971   C973    1.401   .     A
C972   C974    1.401   .     A
C973   C975    1.393   .     A
C973   H987    1.085   .     S
C974   C976    1.393   .     A
C974   H988    1.085   .     S
C975   C981    1.401   .     A
C975   C977    1.413   .     A
C976   C978    1.413   .     A
C976   C982    1.401   .     A
C977   C979    1.410   .     A
C977   C1038   1.400   .     S
C978   C980    1.410   .     A
C978   C1037   1.400   1_455 S
C981   H989    1.084   .     S
C981   C1023   1.393   .     S
C982   H990    1.084   .     S
C982   C1024   1.393   1_455 S
Cu983  Cu984   2.700   .     S
Cu983  O1001   1.967   .     S
Cu983  O997    1.952   .     S
Cu983  O1000   1.950   .     S
Cu983  N996    2.029   .     S
Cu983  O1004   1.956   .     S
Cu984  O998    1.952   .     S
Cu984  N995    2.029   .     S
Cu984  O999    1.950   .     S
Cu984  O1002   1.967   .     S
Cu984  O1003   1.956   .     S
H993   C725    1.086   1_565 S
N996   N275    1.296   1_556 S
N996   O293    1.345   1_556 S
O1005  C1006   1.407   .     S
O1005  N275    1.345   1_556 S
C1006  C1009   1.522   .     S
C1006  H1008   1.114   .     S
C1006  H287    1.107   1_556 S
C1009  H1012   1.111   .     S
C1009  H1010   1.111   .     S
C1009  H1011   1.111   .     S
O1013  C1014   1.407   .     S
C1014  H1015   1.114   .     S
C1014  C1017   1.522   .     S
H1016  C294    1.107   1_556 S
C1017  H1018   1.111   .     S
C1017  H1019   1.111   .     S
C1017  H1020   1.110   .     S
C1021  O1057   1.294   .     A
C1021  C1025   1.428   .     S
C1021  O1059   1.291   .     A
C1022  O1058   1.294   .     A
C1022  C1026   1.428   .     S
C1022  O1060   1.291   .     A
C1023  C1040   1.402   .     A
C1023  H1051   1.084   .     S
C1024  H1052   1.084   .     S
C1024  C1039   1.402   .     A
C1024  C982    1.393   1_655 S
C1026  C785    1.330   1_565 S
C1026  H814    1.086   1_565 S
C1027  O1063   1.297   .     A
C1027  O1061   1.302   .     A
C1027  C1032   1.456   .     S
C1028  O1064   1.297   .     A
C1028  C1031   1.456   .     S
C1028  O1062   1.302   .     A
C1029  C1031   1.404   .     A
C1029  H1045   1.085   .     S
C1029  C1039   1.390   .     A
C1030  H1046   1.085   .     S
C1030  C1032   1.403   .     A
C1030  C1040   1.390   .     A
C1031  C1033   1.401   .     A
C1032  C1034   1.401   .     A
C1033  C1035   1.393   .     A
C1033  H1047   1.085   .     S
C1034  C1036   1.393   .     A
C1034  H1048   1.085   .     S
C1035  C1041   1.401   .     A
C1035  C1037   1.413   .     A
C1036  C1038   1.413   .     A
C1036  C1042   1.401   .     A
C1037  C1039   1.410   .     A
C1037  C978    1.400   1_655 S
C1038  C1040   1.410   .     A
C1041  H1049   1.084   .     S
C1041  C963    1.393   1_655 S
C1042  H1050   1.084   .     S
Cu1043 Cu1044  2.700   .     S
Cu1043 O1061   1.967   .     S
Cu1043 O1057   1.952   .     S
Cu1043 O1060   1.950   .     S
Cu1043 N1056   2.029   .     S
Cu1043 O1064   1.956   .     S
Cu1044 O1058   1.952   .     S
Cu1044 N1055   2.029   .     S
Cu1044 O1059   1.950   .     S
Cu1044 O1062   1.967   .     S
Cu1044 O1063   1.956   .     S
H1053  C785    1.086   1_565 S
N1056  N335    1.296   1_556 S
N1056  O353    1.345   1_556 S
O1065  C1066   1.407   .     S
O1065  N335    1.345   1_556 S
C1066  C1069   1.522   .     S
C1066  H1068   1.114   .     S
C1066  H347    1.107   1_556 S
C1069  H1072   1.111   .     S
C1069  H1070   1.111   .     S
C1069  H1071   1.111   .     S
O1073  C1074   1.407   .     S
C1074  H1075   1.114   .     S
C1074  C1077   1.522   .     S
H1076  C354    1.107   1_556 S
C1077  H1078   1.111   .     S
C1077  H1079   1.111   .     S
C1077  H1080   1.110   .     S
